MODEL 1
REMARK VINA RESULT:     -10.7      0.000      0.000
REMARK  Name = 9549259
REMARK  5 active torsions:
REMARK  status: ('A' for Active; 'I' for Inactive)
REMARK    1  A    between atoms: N_2  and  C_22
REMARK    2  A    between atoms: C_3  and  N_7
REMARK    3  A    between atoms: N_7  and  S_9
REMARK    4  A    between atoms: S_9  and  C_14
REMARK    5  A    between atoms: C_22  and  C_27
REMARK                            x       y       z     vdW  Elec       q    Type
REMARK                         _______ _______ _______ _____ _____    ______ ____
ROOT
ATOM      1  O   UNL     1      36.308 -20.358 -19.891  0.00  0.00    -0.273 OA
ATOM      2  N   UNL     1      34.843 -19.236 -21.349  0.00  0.00    -0.272 N 
ATOM      3  C   UNL     1      33.983 -21.027 -20.130  0.00  0.00    +0.153 C 
ATOM      4  C   UNL     1      32.838 -20.157 -20.634  0.00  0.00    +0.048 C 
ATOM      5  C   UNL     1      33.464 -19.363 -21.763  0.00  0.00    +0.096 C 
ATOM      6  C   UNL     1      35.209 -20.189 -20.399  0.00  0.00    +0.242 C 
ENDROOT
BRANCH   3   7
ATOM      7  N   UNL     1      33.867 -21.269 -18.687  0.00  0.00    -0.171 NA
ATOM      8  H   UNL     1      34.778 -21.071 -18.272  0.00  0.00    +0.149 HD
BRANCH   7   9
ATOM      9  S   UNL     1      33.399 -22.835 -18.167  0.00  0.00    +0.066 S 
ATOM     10  O   UNL     1      33.914 -23.820 -19.097  0.00  0.00    -0.152 OA
ATOM     11  O   UNL     1      31.998 -22.812 -17.792  0.00  0.00    -0.152 OA
BRANCH   9  14
ATOM     12 CL   UNL     1      38.339 -23.893 -11.846  0.00  0.00    -0.082 Cl
ATOM     13  S   UNL     1      33.222 -23.663 -15.375  0.00  0.00    -0.067 S 
ATOM     14  C   UNL     1      34.246 -23.150 -16.619  0.00  0.00    +0.151 C 
ATOM     15  C   UNL     1      35.545 -23.053 -16.262  0.00  0.00    +0.027 C 
ATOM     16  C   UNL     1      35.749 -23.415 -14.888  0.00  0.00    +0.009 C 
ATOM     17  C   UNL     1      34.545 -23.775 -14.275  0.00  0.00    +0.031 C 
ATOM     18  C   UNL     1      36.933 -23.456 -14.113  0.00  0.00    +0.012 C 
ATOM     19  C   UNL     1      34.496 -24.170 -12.924  0.00  0.00    +0.007 C 
ATOM     20  C   UNL     1      36.888 -23.847 -12.773  0.00  0.00    +0.058 C 
ATOM     21  C   UNL     1      35.681 -24.200 -12.186  0.00  0.00    +0.012 C 
ENDBRANCH   9  14
ENDBRANCH   7   9
ENDBRANCH   3   7
BRANCH   2  22
ATOM     22  C   UNL     1      35.738 -18.290 -21.978  0.00  0.00    +0.152 C 
ATOM     23  C   UNL     1      37.188 -18.690 -21.839  0.00  0.00    +0.031 C 
BRANCH  22  27
ATOM     24  O   UNL     1      33.597 -14.784 -24.912  0.00  0.00    -0.350 OA
ATOM     25  O   UNL     1      35.294 -19.349 -24.052  0.00  0.00    -0.273 OA
ATOM     26  N   UNL     1      34.985 -17.049 -23.973  0.00  0.00    -0.273 N 
ATOM     27  C   UNL     1      35.322 -18.286 -23.427  0.00  0.00    +0.244 C 
ATOM     28  C   UNL     1      34.565 -16.956 -25.371  0.00  0.00    +0.126 C 
ATOM     29  C   UNL     1      35.127 -15.754 -23.299  0.00  0.00    +0.126 C 
ATOM     30  C   UNL     1      33.339 -16.063 -25.499  0.00  0.00    +0.164 C 
ATOM     31  C   UNL     1      33.880 -14.907 -23.516  0.00  0.00    +0.164 C 
ENDBRANCH  22  27
ENDBRANCH   2  22
TORSDOF 5
ENDMDL
MODEL 2
REMARK VINA RESULT:     -10.4      1.348      1.965
REMARK  Name = 9549259
REMARK  5 active torsions:
REMARK  status: ('A' for Active; 'I' for Inactive)
REMARK    1  A    between atoms: N_2  and  C_22
REMARK    2  A    between atoms: C_3  and  N_7
REMARK    3  A    between atoms: N_7  and  S_9
REMARK    4  A    between atoms: S_9  and  C_14
REMARK    5  A    between atoms: C_22  and  C_27
REMARK                            x       y       z     vdW  Elec       q    Type
REMARK                         _______ _______ _______ _____ _____    ______ ____
ROOT
ATOM      1  O   UNL     1      36.613 -20.647 -20.362  0.00  0.00    -0.273 OA
ATOM      2  N   UNL     1      34.856 -19.423 -21.334  0.00  0.00    -0.272 N 
ATOM      3  C   UNL     1      34.288 -21.289 -20.058  0.00  0.00    +0.153 C 
ATOM      4  C   UNL     1      33.072 -20.381 -20.203  0.00  0.00    +0.048 C 
ATOM      5  C   UNL     1      33.416 -19.515 -21.399  0.00  0.00    +0.096 C 
ATOM      6  C   UNL     1      35.427 -20.440 -20.568  0.00  0.00    +0.242 C 
ENDROOT
BRANCH   3   7
ATOM      7  N   UNL     1      34.528 -21.628 -18.650  0.00  0.00    -0.171 NA
ATOM      8  H   UNL     1      35.508 -21.898 -18.566  0.00  0.00    +0.149 HD
BRANCH   7   9
ATOM      9  S   UNL     1      33.592 -22.885 -17.953  0.00  0.00    +0.066 S 
ATOM     10  O   UNL     1      33.808 -24.110 -18.699  0.00  0.00    -0.152 OA
ATOM     11  O   UNL     1      32.255 -22.391 -17.686  0.00  0.00    -0.152 OA
BRANCH   9  14
ATOM     12 CL   UNL     1      35.366 -24.719 -10.274  0.00  0.00    -0.082 Cl
ATOM     13  S   UNL     1      35.897 -22.802 -16.168  0.00  0.00    -0.067 S 
ATOM     14  C   UNL     1      34.261 -23.196 -16.319  0.00  0.00    +0.151 C 
ATOM     15  C   UNL     1      33.703 -23.686 -15.191  0.00  0.00    +0.027 C 
ATOM     16  C   UNL     1      34.649 -23.757 -14.114  0.00  0.00    +0.009 C 
ATOM     17  C   UNL     1      35.907 -23.297 -14.516  0.00  0.00    +0.031 C 
ATOM     18  C   UNL     1      34.493 -24.201 -12.780  0.00  0.00    +0.012 C 
ATOM     19  C   UNL     1      36.999 -23.272 -13.627  0.00  0.00    +0.007 C 
ATOM     20  C   UNL     1      35.574 -24.177 -11.895  0.00  0.00    +0.058 C 
ATOM     21  C   UNL     1      36.814 -23.716 -12.316  0.00  0.00    +0.012 C 
ENDBRANCH   9  14
ENDBRANCH   7   9
ENDBRANCH   3   7
BRANCH   2  22
ATOM     22  C   UNL     1      35.588 -18.439 -22.102  0.00  0.00    +0.152 C 
ATOM     23  C   UNL     1      35.367 -18.590 -23.588  0.00  0.00    +0.031 C 
BRANCH  22  27
ATOM     24  O   UNL     1      33.660 -14.438 -24.501  0.00  0.00    -0.350 OA
ATOM     25  O   UNL     1      35.252 -16.777 -20.446  0.00  0.00    -0.273 OA
ATOM     26  N   UNL     1      34.370 -16.340 -22.548  0.00  0.00    -0.273 N 
ATOM     27  C   UNL     1      35.057 -17.114 -21.615  0.00  0.00    +0.244 C 
ATOM     28  C   UNL     1      33.828 -15.038 -22.161  0.00  0.00    +0.126 C 
ATOM     29  C   UNL     1      34.012 -16.763 -23.907  0.00  0.00    +0.126 C 
ATOM     30  C   UNL     1      34.136 -13.996 -23.227  0.00  0.00    +0.164 C 
ATOM     31  C   UNL     1      34.308 -15.647 -24.901  0.00  0.00    +0.164 C 
ENDBRANCH  22  27
ENDBRANCH   2  22
TORSDOF 5
ENDMDL
MODEL 3
REMARK VINA RESULT:     -10.4      3.921      6.627
REMARK  Name = 9549259
REMARK  5 active torsions:
REMARK  status: ('A' for Active; 'I' for Inactive)
REMARK    1  A    between atoms: N_2  and  C_22
REMARK    2  A    between atoms: C_3  and  N_7
REMARK    3  A    between atoms: N_7  and  S_9
REMARK    4  A    between atoms: S_9  and  C_14
REMARK    5  A    between atoms: C_22  and  C_27
REMARK                            x       y       z     vdW  Elec       q    Type
REMARK                         _______ _______ _______ _____ _____    ______ ____
ROOT
ATOM      1  O   UNL     1      34.992 -14.481 -21.788  0.00  0.00    -0.273 OA
ATOM      2  N   UNL     1      33.938 -13.975 -23.829  0.00  0.00    -0.272 N 
ATOM      3  C   UNL     1      34.844 -16.108 -23.587  0.00  0.00    +0.153 C 
ATOM      4  C   UNL     1      33.829 -16.111 -24.724  0.00  0.00    +0.048 C 
ATOM      5  C   UNL     1      33.696 -14.645 -25.086  0.00  0.00    +0.096 C 
ATOM      6  C   UNL     1      34.615 -14.779 -22.912  0.00  0.00    +0.242 C 
ENDROOT
BRANCH   3   7
ATOM      7  N   UNL     1      34.571 -17.191 -22.634  0.00  0.00    -0.171 NA
ATOM      8  H   UNL     1      34.731 -16.818 -21.698  0.00  0.00    +0.149 HD
BRANCH   7   9
ATOM      9  S   UNL     1      35.488 -18.635 -22.770  0.00  0.00    +0.066 S 
ATOM     10  O   UNL     1      36.885 -18.337 -22.525  0.00  0.00    -0.152 OA
ATOM     11  O   UNL     1      35.067 -19.355 -23.956  0.00  0.00    -0.152 OA
BRANCH   9  14
ATOM     12 CL   UNL     1      31.953 -23.182 -17.085  0.00  0.00    -0.082 Cl
ATOM     13  S   UNL     1      36.278 -20.373 -20.565  0.00  0.00    -0.067 S 
ATOM     14  C   UNL     1      34.984 -19.706 -21.424  0.00  0.00    +0.151 C 
ATOM     15  C   UNL     1      33.768 -20.080 -20.971  0.00  0.00    +0.027 C 
ATOM     16  C   UNL     1      33.866 -20.970 -19.849  0.00  0.00    +0.009 C 
ATOM     17  C   UNL     1      35.201 -21.218 -19.516  0.00  0.00    +0.031 C 
ATOM     18  C   UNL     1      32.856 -21.593 -19.078  0.00  0.00    +0.012 C 
ATOM     19  C   UNL     1      35.547 -22.064 -18.445  0.00  0.00    +0.007 C 
ATOM     20  C   UNL     1      33.195 -22.433 -18.014  0.00  0.00    +0.058 C 
ATOM     21  C   UNL     1      34.528 -22.665 -17.702  0.00  0.00    +0.012 C 
ENDBRANCH   9  14
ENDBRANCH   7   9
ENDBRANCH   3   7
BRANCH   2  22
ATOM     22  C   UNL     1      33.609 -12.579 -23.639  0.00  0.00    +0.152 C 
ATOM     23  C   UNL     1      33.272 -11.886 -24.937  0.00  0.00    +0.031 C 
BRANCH  22  27
ATOM     24  O   UNL     1      31.528  -9.074 -20.660  0.00  0.00    -0.350 OA
ATOM     25  O   UNL     1      31.886 -13.676 -22.435  0.00  0.00    -0.273 OA
ATOM     26  N   UNL     1      31.982 -11.365 -22.236  0.00  0.00    -0.273 N 
ATOM     27  C   UNL     1      32.414 -12.598 -22.718  0.00  0.00    +0.244 C 
ATOM     28  C   UNL     1      30.833 -11.294 -21.334  0.00  0.00    +0.126 C 
ATOM     29  C   UNL     1      32.504 -10.058 -22.651  0.00  0.00    +0.126 C 
ATOM     30  C   UNL     1      31.128 -10.357 -20.171  0.00  0.00    +0.164 C 
ATOM     31  C   UNL     1      32.727  -9.169 -21.433  0.00  0.00    +0.164 C 
ENDBRANCH  22  27
ENDBRANCH   2  22
TORSDOF 5
ENDMDL
MODEL 4
REMARK VINA RESULT:     -10.1      7.440     12.614
REMARK  Name = 9549259
REMARK  5 active torsions:
REMARK  status: ('A' for Active; 'I' for Inactive)
REMARK    1  A    between atoms: N_2  and  C_22
REMARK    2  A    between atoms: C_3  and  N_7
REMARK    3  A    between atoms: N_7  and  S_9
REMARK    4  A    between atoms: S_9  and  C_14
REMARK    5  A    between atoms: C_22  and  C_27
REMARK                            x       y       z     vdW  Elec       q    Type
REMARK                         _______ _______ _______ _____ _____    ______ ____
ROOT
ATOM      1  O   UNL     1      32.373 -15.182 -21.588  0.00  0.00    -0.273 OA
ATOM      2  N   UNL     1      33.240 -14.902 -23.756  0.00  0.00    -0.272 N 
ATOM      3  C   UNL     1      32.342 -13.025 -22.707  0.00  0.00    +0.153 C 
ATOM      4  C   UNL     1      33.248 -12.585 -23.851  0.00  0.00    +0.048 C 
ATOM      5  C   UNL     1      33.360 -13.827 -24.714  0.00  0.00    +0.096 C 
ATOM      6  C   UNL     1      32.643 -14.497 -22.563  0.00  0.00    +0.242 C 
ENDROOT
BRANCH   3   7
ATOM      7  N   UNL     1      32.692 -12.332 -21.461  0.00  0.00    -0.171 NA
ATOM      8  H   UNL     1      32.954 -13.047 -20.781  0.00  0.00    +0.149 HD
BRANCH   7   9
ATOM      9  S   UNL     1      31.500 -11.343 -20.726  0.00  0.00    +0.066 S 
ATOM     10  O   UNL     1      31.858 -11.115 -19.339  0.00  0.00    -0.152 OA
ATOM     11  O   UNL     1      30.185 -11.831 -21.094  0.00  0.00    -0.152 OA
BRANCH   9  14
ATOM     12 CL   UNL     1      31.595  -4.753 -25.420  0.00  0.00    -0.082 Cl
ATOM     13  S   UNL     1      31.966  -8.477 -20.451  0.00  0.00    -0.067 S 
ATOM     14  C   UNL     1      31.589  -9.736 -21.514  0.00  0.00    +0.151 C 
ATOM     15  C   UNL     1      31.410  -9.345 -22.794  0.00  0.00    +0.027 C 
ATOM     16  C   UNL     1      31.587  -7.929 -22.949  0.00  0.00    +0.009 C 
ATOM     17  C   UNL     1      31.899  -7.322 -21.729  0.00  0.00    +0.031 C 
ATOM     18  C   UNL     1      31.494  -7.110 -24.100  0.00  0.00    +0.012 C 
ATOM     19  C   UNL     1      32.118  -5.934 -21.633  0.00  0.00    +0.007 C 
ATOM     20  C   UNL     1      31.711  -5.733 -24.008  0.00  0.00    +0.058 C 
ATOM     21  C   UNL     1      32.019  -5.152 -22.786  0.00  0.00    +0.012 C 
ENDBRANCH   9  14
ENDBRANCH   7   9
ENDBRANCH   3   7
BRANCH   2  22
ATOM     22  C   UNL     1      33.597 -16.262 -24.096  0.00  0.00    +0.152 C 
ATOM     23  C   UNL     1      33.769 -16.457 -25.584  0.00  0.00    +0.031 C 
BRANCH  22  27
ATOM     24  O   UNL     1      35.243 -20.023 -21.157  0.00  0.00    -0.350 OA
ATOM     25  O   UNL     1      35.712 -15.578 -23.273  0.00  0.00    -0.273 OA
ATOM     26  N   UNL     1      35.096 -17.776 -22.851  0.00  0.00    -0.273 N 
ATOM     27  C   UNL     1      34.900 -16.499 -23.373  0.00  0.00    +0.244 C 
ATOM     28  C   UNL     1      36.329 -18.089 -22.130  0.00  0.00    +0.126 C 
ATOM     29  C   UNL     1      34.211 -18.927 -23.059  0.00  0.00    +0.126 C 
ATOM     30  C   UNL     1      36.018 -18.860 -20.854  0.00  0.00    +0.164 C 
ATOM     31  C   UNL     1      33.990 -19.666 -21.746  0.00  0.00    +0.164 C 
ENDBRANCH  22  27
ENDBRANCH   2  22
TORSDOF 5
ENDMDL
MODEL 5
REMARK VINA RESULT:     -10.0      5.164      8.312
REMARK  Name = 9549259
REMARK  5 active torsions:
REMARK  status: ('A' for Active; 'I' for Inactive)
REMARK    1  A    between atoms: N_2  and  C_22
REMARK    2  A    between atoms: C_3  and  N_7
REMARK    3  A    between atoms: N_7  and  S_9
REMARK    4  A    between atoms: S_9  and  C_14
REMARK    5  A    between atoms: C_22  and  C_27
REMARK                            x       y       z     vdW  Elec       q    Type
REMARK                         _______ _______ _______ _____ _____    ______ ____
ROOT
ATOM      1  O   UNL     1      31.992 -13.544 -20.437  0.00  0.00    -0.273 OA
ATOM      2  N   UNL     1      32.034 -12.024 -22.232  0.00  0.00    -0.272 N 
ATOM      3  C   UNL     1      33.469 -13.858 -22.341  0.00  0.00    +0.153 C 
ATOM      4  C   UNL     1      33.288 -13.268 -23.735  0.00  0.00    +0.048 C 
ATOM      5  C   UNL     1      32.770 -11.869 -23.466  0.00  0.00    +0.096 C 
ATOM      6  C   UNL     1      32.405 -13.167 -21.524  0.00  0.00    +0.242 C 
ENDROOT
BRANCH   3   7
ATOM      7  N   UNL     1      33.220 -15.304 -22.343  0.00  0.00    -0.171 NA
ATOM      8  H   UNL     1      33.109 -15.593 -21.371  0.00  0.00    +0.149 HD
BRANCH   7   9
ATOM      9  S   UNL     1      34.404 -16.326 -23.047  0.00  0.00    +0.066 S 
ATOM     10  O   UNL     1      35.706 -15.699 -22.929  0.00  0.00    -0.152 OA
ATOM     11  O   UNL     1      33.914 -16.811 -24.323  0.00  0.00    -0.152 OA
BRANCH   9  14
ATOM     12 CL   UNL     1      33.448 -22.904 -18.432  0.00  0.00    -0.082 Cl
ATOM     13  S   UNL     1      36.064 -18.374 -21.799  0.00  0.00    -0.067 S 
ATOM     14  C   UNL     1      34.491 -17.805 -22.038  0.00  0.00    +0.151 C 
ATOM     15  C   UNL     1      33.536 -18.547 -21.436  0.00  0.00    +0.027 C 
ATOM     16  C   UNL     1      34.095 -19.661 -20.725  0.00  0.00    +0.009 C 
ATOM     17  C   UNL     1      35.488 -19.687 -20.842  0.00  0.00    +0.031 C 
ATOM     18  C   UNL     1      33.467 -20.677 -19.966  0.00  0.00    +0.012 C 
ATOM     19  C   UNL     1      36.259 -20.692 -20.226  0.00  0.00    +0.007 C 
ATOM     20  C   UNL     1      34.229 -21.676 -19.353  0.00  0.00    +0.058 C 
ATOM     21  C   UNL     1      35.611 -21.682 -19.483  0.00  0.00    +0.012 C 
ENDBRANCH   9  14
ENDBRANCH   7   9
ENDBRANCH   3   7
BRANCH   2  22
ATOM     22  C   UNL     1      31.116 -11.009 -21.766  0.00  0.00    +0.152 C 
ATOM     23  C   UNL     1      30.212 -11.513 -20.666  0.00  0.00    +0.031 C 
BRANCH  22  27
ATOM     24  O   UNL     1      32.846  -6.769 -23.890  0.00  0.00    -0.350 OA
ATOM     25  O   UNL     1      32.623 -10.057 -20.203  0.00  0.00    -0.273 OA
ATOM     26  N   UNL     1      32.075  -8.753 -22.044  0.00  0.00    -0.273 N 
ATOM     27  C   UNL     1      32.006  -9.902 -21.259  0.00  0.00    +0.244 C 
ATOM     28  C   UNL     1      32.920  -7.633 -21.629  0.00  0.00    +0.126 C 
ATOM     29  C   UNL     1      31.262  -8.485 -23.235  0.00  0.00    +0.126 C 
ATOM     30  C   UNL     1      33.722  -7.106 -22.811  0.00  0.00    +0.164 C 
ATOM     31  C   UNL     1      32.132  -7.918 -24.350  0.00  0.00    +0.164 C 
ENDBRANCH  22  27
ENDBRANCH   2  22
TORSDOF 5
ENDMDL
MODEL 6
REMARK VINA RESULT:     -10.0      3.591      6.056
REMARK  Name = 9549259
REMARK  5 active torsions:
REMARK  status: ('A' for Active; 'I' for Inactive)
REMARK    1  A    between atoms: N_2  and  C_22
REMARK    2  A    between atoms: C_3  and  N_7
REMARK    3  A    between atoms: N_7  and  S_9
REMARK    4  A    between atoms: S_9  and  C_14
REMARK    5  A    between atoms: C_22  and  C_27
REMARK                            x       y       z     vdW  Elec       q    Type
REMARK                         _______ _______ _______ _____ _____    ______ ____
ROOT
ATOM      1  O   UNL     1      35.338 -15.768 -24.035  0.00  0.00    -0.273 OA
ATOM      2  N   UNL     1      33.715 -14.383 -23.048  0.00  0.00    -0.272 N 
ATOM      3  C   UNL     1      34.103 -16.457 -22.059  0.00  0.00    +0.153 C 
ATOM      4  C   UNL     1      33.405 -15.539 -21.062  0.00  0.00    +0.048 C 
ATOM      5  C   UNL     1      32.795 -14.462 -21.937  0.00  0.00    +0.096 C 
ATOM      6  C   UNL     1      34.503 -15.526 -23.177  0.00  0.00    +0.242 C 
ENDROOT
BRANCH   3   7
ATOM      7  N   UNL     1      35.306 -17.057 -21.471  0.00  0.00    -0.171 NA
ATOM      8  H   UNL     1      36.079 -16.410 -21.635  0.00  0.00    +0.149 HD
BRANCH   7   9
ATOM      9  S   UNL     1      35.801 -18.597 -22.040  0.00  0.00    +0.066 S 
ATOM     10  O   UNL     1      37.249 -18.640 -22.101  0.00  0.00    -0.152 OA
ATOM     11  O   UNL     1      34.988 -18.964 -23.183  0.00  0.00    -0.152 OA
BRANCH   9  14
ATOM     12 CL   UNL     1      35.031 -24.011 -16.076  0.00  0.00    -0.082 Cl
ATOM     13  S   UNL     1      33.688 -20.152 -20.767  0.00  0.00    -0.067 S 
ATOM     14  C   UNL     1      35.339 -19.795 -20.790  0.00  0.00    +0.151 C 
ATOM     15  C   UNL     1      36.063 -20.461 -19.864  0.00  0.00    +0.027 C 
ATOM     16  C   UNL     1      35.243 -21.329 -19.069  0.00  0.00    +0.009 C 
ATOM     17  C   UNL     1      33.902 -21.258 -19.461  0.00  0.00    +0.031 C 
ATOM     18  C   UNL     1      35.583 -22.197 -18.004  0.00  0.00    +0.012 C 
ATOM     19  C   UNL     1      32.907 -22.023 -18.823  0.00  0.00    +0.007 C 
ATOM     20  C   UNL     1      34.598 -22.958 -17.369  0.00  0.00    +0.058 C 
ATOM     21  C   UNL     1      33.274 -22.871 -17.776  0.00  0.00    +0.012 C 
ENDBRANCH   9  14
ENDBRANCH   7   9
ENDBRANCH   3   7
BRANCH   2  22
ATOM     22  C   UNL     1      33.691 -13.271 -23.974  0.00  0.00    +0.152 C 
ATOM     23  C   UNL     1      33.104 -13.650 -25.313  0.00  0.00    +0.031 C 
BRANCH  22  27
ATOM     24  O   UNL     1      34.051  -8.250 -23.592  0.00  0.00    -0.350 OA
ATOM     25  O   UNL     1      31.959 -12.596 -22.502  0.00  0.00    -0.273 OA
ATOM     26  N   UNL     1      33.103 -10.903 -23.604  0.00  0.00    -0.273 N 
ATOM     27  C   UNL     1      32.834 -12.234 -23.291  0.00  0.00    +0.244 C 
ATOM     28  C   UNL     1      32.323  -9.833 -22.982  0.00  0.00    +0.126 C 
ATOM     29  C   UNL     1      34.048 -10.443 -24.628  0.00  0.00    +0.126 C 
ATOM     30  C   UNL     1      33.240  -8.713 -22.510  0.00  0.00    +0.164 C 
ATOM     31  C   UNL     1      34.891  -9.295 -24.089  0.00  0.00    +0.164 C 
ENDBRANCH  22  27
ENDBRANCH   2  22
TORSDOF 5
ENDMDL
MODEL 7
REMARK VINA RESULT:      -9.9      4.172     10.506
REMARK  Name = 9549259
REMARK  5 active torsions:
REMARK  status: ('A' for Active; 'I' for Inactive)
REMARK    1  A    between atoms: N_2  and  C_22
REMARK    2  A    between atoms: C_3  and  N_7
REMARK    3  A    between atoms: N_7  and  S_9
REMARK    4  A    between atoms: S_9  and  C_14
REMARK    5  A    between atoms: C_22  and  C_27
REMARK                            x       y       z     vdW  Elec       q    Type
REMARK                         _______ _______ _______ _____ _____    ______ ____
ROOT
ATOM      1  O   UNL     1      33.512 -22.735 -17.816  0.00  0.00    -0.273 OA
ATOM      2  N   UNL     1      35.298 -22.705 -16.285  0.00  0.00    -0.272 N 
ATOM      3  C   UNL     1      35.724 -21.952 -18.449  0.00  0.00    +0.153 C 
ATOM      4  C   UNL     1      36.807 -21.437 -17.508  0.00  0.00    +0.048 C 
ATOM      5  C   UNL     1      36.700 -22.356 -16.307  0.00  0.00    +0.096 C 
ATOM      6  C   UNL     1      34.673 -22.498 -17.515  0.00  0.00    +0.242 C 
ENDROOT
BRANCH   3   7
ATOM      7  N   UNL     1      35.150 -20.858 -19.242  0.00  0.00    -0.171 NA
ATOM      8  H   UNL     1      34.204 -21.138 -19.504  0.00  0.00    +0.149 HD
BRANCH   7   9
ATOM      9  S   UNL     1      35.960 -20.393 -20.681  0.00  0.00    +0.066 S 
ATOM     10  O   UNL     1      35.623 -21.324 -21.740  0.00  0.00    -0.152 OA
ATOM     11  O   UNL     1      37.339 -20.075 -20.367  0.00  0.00    -0.152 OA
BRANCH   9  14
ATOM     12 CL   UNL     1      32.070 -13.397 -21.867  0.00  0.00    -0.082 Cl
ATOM     13  S   UNL     1      35.940 -18.209 -22.614  0.00  0.00    -0.067 S 
ATOM     14  C   UNL     1      35.268 -18.819 -21.189  0.00  0.00    +0.151 C 
ATOM     15  C   UNL     1      34.314 -18.033 -20.645  0.00  0.00    +0.027 C 
ATOM     16  C   UNL     1      34.095 -16.845 -21.422  0.00  0.00    +0.009 C 
ATOM     17  C   UNL     1      34.930 -16.814 -22.543  0.00  0.00    +0.031 C 
ATOM     18  C   UNL     1      33.202 -15.766 -21.221  0.00  0.00    +0.012 C 
ATOM     19  C   UNL     1      34.895 -15.743 -23.457  0.00  0.00    +0.007 C 
ATOM     20  C   UNL     1      33.164 -14.701 -22.126  0.00  0.00    +0.058 C 
ATOM     21  C   UNL     1      34.003 -14.692 -23.232  0.00  0.00    +0.012 C 
ENDBRANCH   9  14
ENDBRANCH   7   9
ENDBRANCH   3   7
BRANCH   2  22
ATOM     22  C   UNL     1      34.688 -23.319 -15.126  0.00  0.00    +0.152 C 
ATOM     23  C   UNL     1      33.262 -23.746 -15.385  0.00  0.00    +0.031 C 
BRANCH  22  27
ATOM     24  O   UNL     1      37.868 -24.397 -11.357  0.00  0.00    -0.350 OA
ATOM     25  O   UNL     1      35.732 -25.365 -15.711  0.00  0.00    -0.273 OA
ATOM     26  N   UNL     1      36.125 -24.576 -13.563  0.00  0.00    -0.273 N 
ATOM     27  C   UNL     1      35.559 -24.515 -14.834  0.00  0.00    +0.244 C 
ATOM     28  C   UNL     1      36.987 -25.700 -13.199  0.00  0.00    +0.126 C 
ATOM     29  C   UNL     1      35.840 -23.652 -12.459  0.00  0.00    +0.126 C 
ATOM     30  C   UNL     1      38.234 -25.202 -12.481  0.00  0.00    +0.164 C 
ATOM     31  C   UNL     1      37.134 -23.242 -11.768  0.00  0.00    +0.164 C 
ENDBRANCH  22  27
ENDBRANCH   2  22
TORSDOF 5
ENDMDL
MODEL 8
REMARK VINA RESULT:      -9.7      4.287     10.447
REMARK  Name = 9549259
REMARK  5 active torsions:
REMARK  status: ('A' for Active; 'I' for Inactive)
REMARK    1  A    between atoms: N_2  and  C_22
REMARK    2  A    between atoms: C_3  and  N_7
REMARK    3  A    between atoms: N_7  and  S_9
REMARK    4  A    between atoms: S_9  and  C_14
REMARK    5  A    between atoms: C_22  and  C_27
REMARK                            x       y       z     vdW  Elec       q    Type
REMARK                         _______ _______ _______ _____ _____    ______ ____
ROOT
ATOM      1  O   UNL     1      32.901 -20.906 -19.620  0.00  0.00    -0.273 OA
ATOM      2  N   UNL     1      34.763 -21.895 -18.577  0.00  0.00    -0.272 N 
ATOM      3  C   UNL     1      35.166 -20.508 -20.406  0.00  0.00    +0.153 C 
ATOM      4  C   UNL     1      36.447 -20.669 -19.596  0.00  0.00    +0.048 C 
ATOM      5  C   UNL     1      36.194 -21.918 -18.775  0.00  0.00    +0.096 C 
ATOM      6  C   UNL     1      34.103 -21.092 -19.508  0.00  0.00    +0.242 C 
ENDROOT
BRANCH   3   7
ATOM      7  N   UNL     1      34.871 -19.091 -20.651  0.00  0.00    -0.171 NA
ATOM      8  H   UNL     1      33.882 -18.947 -20.445  0.00  0.00    +0.149 HD
BRANCH   7   9
ATOM      9  S   UNL     1      35.160 -18.466 -22.221  0.00  0.00    +0.066 S 
ATOM     10  O   UNL     1      34.441 -19.266 -23.193  0.00  0.00    -0.152 OA
ATOM     11  O   UNL     1      36.577 -18.193 -22.370  0.00  0.00    -0.152 OA
BRANCH   9  14
ATOM     12 CL   UNL     1      31.216 -11.457 -21.330  0.00  0.00    -0.082 Cl
ATOM     13  S   UNL     1      34.805 -15.963 -23.677  0.00  0.00    -0.067 S 
ATOM     14  C   UNL     1      34.407 -16.841 -22.289  0.00  0.00    +0.151 C 
ATOM     15  C   UNL     1      33.586 -16.189 -21.438  0.00  0.00    +0.027 C 
ATOM     16  C   UNL     1      33.240 -14.883 -21.925  0.00  0.00    +0.009 C 
ATOM     17  C   UNL     1      33.847 -14.627 -23.159  0.00  0.00    +0.031 C 
ATOM     18  C   UNL     1      32.417 -13.879 -21.362  0.00  0.00    +0.012 C 
ATOM     19  C   UNL     1      33.653 -13.407 -23.834  0.00  0.00    +0.007 C 
ATOM     20  C   UNL     1      32.223 -12.667 -22.030  0.00  0.00    +0.058 C 
ATOM     21  C   UNL     1      32.836 -12.435 -23.253  0.00  0.00    +0.012 C 
ENDBRANCH   9  14
ENDBRANCH   7   9
ENDBRANCH   3   7
BRANCH   2  22
ATOM     22  C   UNL     1      34.121 -22.733 -17.588  0.00  0.00    +0.152 C 
ATOM     23  C   UNL     1      33.574 -24.009 -18.183  0.00  0.00    +0.031 C 
BRANCH  22  27
ATOM     24  O   UNL     1      34.023 -24.194 -12.757  0.00  0.00    -0.350 OA
ATOM     25  O   UNL     1      36.374 -22.723 -16.851  0.00  0.00    -0.273 OA
ATOM     26  N   UNL     1      34.814 -23.655 -15.407  0.00  0.00    -0.273 N 
ATOM     27  C   UNL     1      35.210 -23.034 -16.589  0.00  0.00    +0.244 C 
ATOM     28  C   UNL     1      35.806 -23.978 -14.382  0.00  0.00    +0.126 C 
ATOM     29  C   UNL     1      33.464 -24.151 -15.117  0.00  0.00    +0.126 C 
ATOM     30  C   UNL     1      35.293 -23.585 -13.004  0.00  0.00    +0.164 C 
ATOM     31  C   UNL     1      33.049 -23.754 -13.706  0.00  0.00    +0.164 C 
ENDBRANCH  22  27
ENDBRANCH   2  22
TORSDOF 5
ENDMDL
MODEL 9
REMARK VINA RESULT:      -9.7      6.203     11.632
REMARK  Name = 9549259
REMARK  5 active torsions:
REMARK  status: ('A' for Active; 'I' for Inactive)
REMARK    1  A    between atoms: N_2  and  C_22
REMARK    2  A    between atoms: C_3  and  N_7
REMARK    3  A    between atoms: N_7  and  S_9
REMARK    4  A    between atoms: S_9  and  C_14
REMARK    5  A    between atoms: C_22  and  C_27
REMARK                            x       y       z     vdW  Elec       q    Type
REMARK                         _______ _______ _______ _____ _____    ______ ____
ROOT
ATOM      1  O   UNL     1      35.705 -16.509 -23.631  0.00  0.00    -0.273 OA
ATOM      2  N   UNL     1      34.390 -17.328 -21.861  0.00  0.00    -0.272 N 
ATOM      3  C   UNL     1      34.844 -15.042 -21.895  0.00  0.00    +0.153 C 
ATOM      4  C   UNL     1      33.642 -15.310 -20.997  0.00  0.00    +0.048 C 
ATOM      5  C   UNL     1      33.757 -16.788 -20.680  0.00  0.00    +0.096 C 
ATOM      6  C   UNL     1      35.051 -16.354 -22.611  0.00  0.00    +0.242 C 
ENDROOT
BRANCH   3   7
ATOM      7  N   UNL     1      34.545 -13.994 -22.878  0.00  0.00    -0.171 NA
ATOM      8  H   UNL     1      35.022 -13.145 -22.570  0.00  0.00    +0.149 HD
BRANCH   7   9
ATOM      9  S   UNL     1      32.902 -13.584 -23.146  0.00  0.00    +0.066 S 
ATOM     10  O   UNL     1      32.096 -14.108 -22.061  0.00  0.00    -0.152 OA
ATOM     11  O   UNL     1      32.566 -13.852 -24.531  0.00  0.00    -0.152 OA
BRANCH   9  14
ATOM     12 CL   UNL     1      31.350  -5.781 -21.666  0.00  0.00    -0.082 Cl
ATOM     13  S   UNL     1      33.865 -10.968 -24.005  0.00  0.00    -0.067 S 
ATOM     14  C   UNL     1      32.775 -11.801 -23.017  0.00  0.00    +0.151 C 
ATOM     15  C   UNL     1      31.975 -11.002 -22.279  0.00  0.00    +0.027 C 
ATOM     16  C   UNL     1      32.246  -9.612 -22.514  0.00  0.00    +0.009 C 
ATOM     17  C   UNL     1      33.272  -9.448 -23.450  0.00  0.00    +0.031 C 
ATOM     18  C   UNL     1      31.652  -8.452 -21.961  0.00  0.00    +0.012 C 
ATOM     19  C   UNL     1      33.712  -8.169 -23.842  0.00  0.00    +0.007 C 
ATOM     20  C   UNL     1      32.086  -7.181 -22.348  0.00  0.00    +0.058 C 
ATOM     21  C   UNL     1      33.106  -7.043 -23.278  0.00  0.00    +0.012 C 
ENDBRANCH   9  14
ENDBRANCH   7   9
ENDBRANCH   3   7
BRANCH   2  22
ATOM     22  C   UNL     1      34.416 -18.750 -22.124  0.00  0.00    +0.152 C 
ATOM     23  C   UNL     1      34.513 -19.061 -23.599  0.00  0.00    +0.031 C 
BRANCH  22  27
ATOM     24  O   UNL     1      35.091 -22.293 -18.592  0.00  0.00    -0.350 OA
ATOM     25  O   UNL     1      36.691 -18.606 -21.472  0.00  0.00    -0.273 OA
ATOM     26  N   UNL     1      35.490 -20.416 -20.655  0.00  0.00    -0.273 N 
ATOM     27  C   UNL     1      35.639 -19.244 -21.393  0.00  0.00    +0.244 C 
ATOM     28  C   UNL     1      36.625 -20.962 -19.911  0.00  0.00    +0.126 C 
ATOM     29  C   UNL     1      34.295 -21.267 -20.640  0.00  0.00    +0.126 C 
ATOM     30  C   UNL     1      36.191 -21.383 -18.514  0.00  0.00    +0.164 C 
ATOM     31  C   UNL     1      33.959 -21.680 -19.213  0.00  0.00    +0.164 C 
ENDBRANCH  22  27
ENDBRANCH   2  22
TORSDOF 5
ENDMDL
