MODEL 1
REMARK VINA RESULT:      -7.8      0.000      0.000
REMARK  Name = 46937103
REMARK  14 active torsions:
REMARK  status: ('A' for Active; 'I' for Inactive)
REMARK    1  A    between atoms: C_1  and  C_3
REMARK    2  A    between atoms: C_1  and  C_14
REMARK    3  A    between atoms: C_3  and  C_4
REMARK    4  A    between atoms: C_4  and  C_5
REMARK    5  A    between atoms: C_5  and  C_6
REMARK    6  A    between atoms: C_6  and  C_8
REMARK    7  A    between atoms: C_8  and  C_9
REMARK    8  A    between atoms: C_9  and  C_10
REMARK    9  A    between atoms: C_10  and  C_11
REMARK   10  A    between atoms: C_14  and  C_15
REMARK   11  A    between atoms: C_15  and  P_16
REMARK   12  A    between atoms: C_15  and  O_22
REMARK   13  A    between atoms: P_16  and  O_18
REMARK   14  A    between atoms: P_16  and  O_20
REMARK                            x       y       z     vdW  Elec       q    Type
REMARK                         _______ _______ _______ _____ _____    ______ ____
ROOT
ATOM      1  C   UNL     1      32.119 -23.691 -15.826  0.00  0.00    +0.003 C 
ATOM      2  C   UNL     1      33.198 -23.311 -14.805  0.00  0.00    +0.000 C 
ENDROOT
BRANCH   1   3
ATOM      3  C   UNL     1      32.341 -22.986 -17.181  0.00  0.00    +0.000 C 
BRANCH   3   4
ATOM      4  C   UNL     1      33.768 -23.045 -17.744  0.00  0.00    +0.000 C 
BRANCH   4   5
ATOM      5  C   UNL     1      33.906 -22.370 -19.112  0.00  0.00    +0.000 C 
BRANCH   5   6
ATOM      6  C   UNL     1      35.349 -21.933 -19.439  0.00  0.00    +0.000 C 
ATOM      7  C   UNL     1      36.150 -21.782 -18.140  0.00  0.00    +0.000 C 
BRANCH   6   8
ATOM      8  C   UNL     1      35.457 -20.666 -20.314  0.00  0.00    +0.000 C 
BRANCH   8   9
ATOM      9  C   UNL     1      34.123 -19.990 -20.648  0.00  0.00    +0.000 C 
BRANCH   9  10
ATOM     10  C   UNL     1      34.161 -19.183 -21.952  0.00  0.00    +0.000 C 
BRANCH  10  11
ATOM     11  C   UNL     1      35.214 -18.061 -22.021  0.00  0.00    +0.000 C 
ATOM     12  C   UNL     1      34.868 -16.878 -21.114  0.00  0.00    +0.000 C 
ATOM     13  C   UNL     1      35.361 -17.578 -23.467  0.00  0.00    +0.000 C 
ENDBRANCH  10  11
ENDBRANCH   9  10
ENDBRANCH   8   9
ENDBRANCH   6   8
ENDBRANCH   5   6
ENDBRANCH   4   5
ENDBRANCH   3   4
ENDBRANCH   1   3
BRANCH   1  14
ATOM     14  C   UNL     1      30.732 -23.353 -15.231  0.00  0.00    +0.042 C 
BRANCH  14  15
ATOM     15  C   UNL     1      29.580 -24.216 -15.746  0.00  0.00    +0.214 C 
BRANCH  15  16
ATOM     16  P   UNL     1      28.232 -23.273 -16.453  0.00  0.00    +0.363 P 
ATOM     17  O   UNL     1      27.216 -22.783 -15.464  0.00  0.00    -0.256 OA
BRANCH  16  18
ATOM     18  O   UNL     1      28.985 -22.114 -17.291  0.00  0.00    -0.322 OA
ATOM     19  H   UNL     1      29.502 -21.560 -16.684  0.00  0.00    +0.220 HD
ENDBRANCH  16  18
BRANCH  16  20
ATOM     20  O   UNL     1      27.653 -24.245 -17.607  0.00  0.00    -0.322 OA
ATOM     21  H   UNL     1      26.773 -23.937 -17.877  0.00  0.00    +0.220 HD
ENDBRANCH  16  20
ENDBRANCH  15  16
BRANCH  15  22
ATOM     22  O   UNL     1      28.988 -24.943 -14.678  0.00  0.00    -0.374 OA
ATOM     23  H   UNL     1      28.942 -25.884 -14.913  0.00  0.00    +0.211 HD
ENDBRANCH  15  22
ENDBRANCH  14  15
ENDBRANCH   1  14
TORSDOF 14
ENDMDL
MODEL 2
REMARK VINA RESULT:      -7.7      4.784      5.877
REMARK  Name = 46937103
REMARK  14 active torsions:
REMARK  status: ('A' for Active; 'I' for Inactive)
REMARK    1  A    between atoms: C_1  and  C_3
REMARK    2  A    between atoms: C_1  and  C_14
REMARK    3  A    between atoms: C_3  and  C_4
REMARK    4  A    between atoms: C_4  and  C_5
REMARK    5  A    between atoms: C_5  and  C_6
REMARK    6  A    between atoms: C_6  and  C_8
REMARK    7  A    between atoms: C_8  and  C_9
REMARK    8  A    between atoms: C_9  and  C_10
REMARK    9  A    between atoms: C_10  and  C_11
REMARK   10  A    between atoms: C_14  and  C_15
REMARK   11  A    between atoms: C_15  and  P_16
REMARK   12  A    between atoms: C_15  and  O_22
REMARK   13  A    between atoms: P_16  and  O_18
REMARK   14  A    between atoms: P_16  and  O_20
REMARK                            x       y       z     vdW  Elec       q    Type
REMARK                         _______ _______ _______ _____ _____    ______ ____
ROOT
ATOM      1  C   UNL     1      35.805 -22.857 -15.131  0.00  0.00    +0.003 C 
ATOM      2  C   UNL     1      34.446 -23.366 -15.630  0.00  0.00    +0.000 C 
ENDROOT
BRANCH   1   3
ATOM      3  C   UNL     1      36.840 -22.780 -16.273  0.00  0.00    +0.000 C 
BRANCH   3   4
ATOM      4  C   UNL     1      36.835 -21.486 -17.099  0.00  0.00    +0.000 C 
BRANCH   4   5
ATOM      5  C   UNL     1      36.644 -21.729 -18.600  0.00  0.00    +0.000 C 
BRANCH   5   6
ATOM      6  C   UNL     1      35.227 -21.388 -19.101  0.00  0.00    +0.000 C 
ATOM      7  C   UNL     1      34.392 -22.669 -19.202  0.00  0.00    +0.000 C 
BRANCH   6   8
ATOM      8  C   UNL     1      35.184 -20.586 -20.421  0.00  0.00    +0.000 C 
BRANCH   8   9
ATOM      9  C   UNL     1      33.815 -19.997 -20.779  0.00  0.00    +0.000 C 
BRANCH   9  10
ATOM     10  C   UNL     1      33.883 -18.937 -21.887  0.00  0.00    +0.000 C 
BRANCH  10  11
ATOM     11  C   UNL     1      35.072 -19.051 -22.859  0.00  0.00    +0.000 C 
ATOM     12  C   UNL     1      36.107 -17.944 -22.648  0.00  0.00    +0.000 C 
ATOM     13  C   UNL     1      34.565 -19.015 -24.303  0.00  0.00    +0.000 C 
ENDBRANCH  10  11
ENDBRANCH   9  10
ENDBRANCH   8   9
ENDBRANCH   6   8
ENDBRANCH   5   6
ENDBRANCH   4   5
ENDBRANCH   3   4
ENDBRANCH   1   3
BRANCH   1  14
ATOM     14  C   UNL     1      36.289 -23.776 -13.986  0.00  0.00    +0.042 C 
BRANCH  14  15
ATOM     15  C   UNL     1      37.544 -24.592 -14.298  0.00  0.00    +0.214 C 
BRANCH  15  16
ATOM     16  P   UNL     1      37.279 -26.363 -14.271  0.00  0.00    +0.363 P 
ATOM     17  O   UNL     1      38.429 -27.183 -14.776  0.00  0.00    -0.256 OA
BRANCH  16  18
ATOM     18  O   UNL     1      36.851 -26.654 -12.739  0.00  0.00    -0.322 OA
ATOM     19  H   UNL     1      36.936 -27.602 -12.554  0.00  0.00    +0.220 HD
ENDBRANCH  16  18
BRANCH  16  20
ATOM     20  O   UNL     1      35.893 -26.552 -15.082  0.00  0.00    -0.322 OA
ATOM     21  H   UNL     1      35.344 -27.212 -14.632  0.00  0.00    +0.220 HD
ENDBRANCH  16  20
ENDBRANCH  15  16
BRANCH  15  22
ATOM     22  O   UNL     1      38.543 -24.363 -13.313  0.00  0.00    -0.374 OA
ATOM     23  H   UNL     1      38.929 -23.482 -13.442  0.00  0.00    +0.211 HD
ENDBRANCH  15  22
ENDBRANCH  14  15
ENDBRANCH   1  14
TORSDOF 14
ENDMDL
MODEL 3
REMARK VINA RESULT:      -7.7      4.873      5.610
REMARK  Name = 46937103
REMARK  14 active torsions:
REMARK  status: ('A' for Active; 'I' for Inactive)
REMARK    1  A    between atoms: C_1  and  C_3
REMARK    2  A    between atoms: C_1  and  C_14
REMARK    3  A    between atoms: C_3  and  C_4
REMARK    4  A    between atoms: C_4  and  C_5
REMARK    5  A    between atoms: C_5  and  C_6
REMARK    6  A    between atoms: C_6  and  C_8
REMARK    7  A    between atoms: C_8  and  C_9
REMARK    8  A    between atoms: C_9  and  C_10
REMARK    9  A    between atoms: C_10  and  C_11
REMARK   10  A    between atoms: C_14  and  C_15
REMARK   11  A    between atoms: C_15  and  P_16
REMARK   12  A    between atoms: C_15  and  O_22
REMARK   13  A    between atoms: P_16  and  O_18
REMARK   14  A    between atoms: P_16  and  O_20
REMARK                            x       y       z     vdW  Elec       q    Type
REMARK                         _______ _______ _______ _____ _____    ______ ____
ROOT
ATOM      1  C   UNL     1      34.524 -23.323 -15.276  0.00  0.00    +0.003 C 
ATOM      2  C   UNL     1      33.030 -23.287 -14.930  0.00  0.00    +0.000 C 
ENDROOT
BRANCH   1   3
ATOM      3  C   UNL     1      34.772 -23.017 -16.768  0.00  0.00    +0.000 C 
BRANCH   3   4
ATOM      4  C   UNL     1      33.530 -23.013 -17.669  0.00  0.00    +0.000 C 
BRANCH   4   5
ATOM      5  C   UNL     1      33.861 -22.816 -19.152  0.00  0.00    +0.000 C 
BRANCH   5   6
ATOM      6  C   UNL     1      34.270 -21.371 -19.503  0.00  0.00    +0.000 C 
ATOM      7  C   UNL     1      33.052 -20.601 -20.026  0.00  0.00    +0.000 C 
BRANCH   6   8
ATOM      8  C   UNL     1      35.465 -21.256 -20.474  0.00  0.00    +0.000 C 
BRANCH   8   9
ATOM      9  C   UNL     1      36.558 -20.271 -20.047  0.00  0.00    +0.000 C 
BRANCH   9  10
ATOM     10  C   UNL     1      36.672 -19.053 -20.974  0.00  0.00    +0.000 C 
BRANCH  10  11
ATOM     11  C   UNL     1      35.353 -18.540 -21.581  0.00  0.00    +0.000 C 
ATOM     12  C   UNL     1      35.372 -18.548 -23.110  0.00  0.00    +0.000 C 
ATOM     13  C   UNL     1      35.068 -17.123 -21.075  0.00  0.00    +0.000 C 
ENDBRANCH  10  11
ENDBRANCH   9  10
ENDBRANCH   8   9
ENDBRANCH   6   8
ENDBRANCH   5   6
ENDBRANCH   4   5
ENDBRANCH   3   4
ENDBRANCH   1   3
BRANCH   1  14
ATOM     14  C   UNL     1      35.093 -24.704 -14.877  0.00  0.00    +0.042 C 
BRANCH  14  15
ATOM     15  C   UNL     1      36.619 -24.803 -14.886  0.00  0.00    +0.214 C 
BRANCH  15  16
ATOM     16  P   UNL     1      37.232 -26.477 -15.052  0.00  0.00    +0.363 P 
ATOM     17  O   UNL     1      36.602 -27.276 -16.154  0.00  0.00    -0.256 OA
BRANCH  16  18
ATOM     18  O   UNL     1      38.831 -26.279 -15.177  0.00  0.00    -0.322 OA
ATOM     19  H   UNL     1      39.161 -26.780 -15.941  0.00  0.00    +0.220 HD
ENDBRANCH  16  18
BRANCH  16  20
ATOM     20  O   UNL     1      37.053 -27.096 -13.569  0.00  0.00    -0.322 OA
ATOM     21  H   UNL     1      37.649 -26.639 -12.955  0.00  0.00    +0.220 HD
ENDBRANCH  16  20
ENDBRANCH  15  16
BRANCH  15  22
ATOM     22  O   UNL     1      37.154 -24.344 -13.652  0.00  0.00    -0.374 OA
ATOM     23  H   UNL     1      37.928 -23.784 -13.824  0.00  0.00    +0.211 HD
ENDBRANCH  15  22
ENDBRANCH  14  15
ENDBRANCH   1  14
TORSDOF 14
ENDMDL
MODEL 4
REMARK VINA RESULT:      -7.7      4.354      5.478
REMARK  Name = 46937103
REMARK  14 active torsions:
REMARK  status: ('A' for Active; 'I' for Inactive)
REMARK    1  A    between atoms: C_1  and  C_3
REMARK    2  A    between atoms: C_1  and  C_14
REMARK    3  A    between atoms: C_3  and  C_4
REMARK    4  A    between atoms: C_4  and  C_5
REMARK    5  A    between atoms: C_5  and  C_6
REMARK    6  A    between atoms: C_6  and  C_8
REMARK    7  A    between atoms: C_8  and  C_9
REMARK    8  A    between atoms: C_9  and  C_10
REMARK    9  A    between atoms: C_10  and  C_11
REMARK   10  A    between atoms: C_14  and  C_15
REMARK   11  A    between atoms: C_15  and  P_16
REMARK   12  A    between atoms: C_15  and  O_22
REMARK   13  A    between atoms: P_16  and  O_18
REMARK   14  A    between atoms: P_16  and  O_20
REMARK                            x       y       z     vdW  Elec       q    Type
REMARK                         _______ _______ _______ _____ _____    ______ ____
ROOT
ATOM      1  C   UNL     1      35.639 -22.912 -15.102  0.00  0.00    +0.003 C 
ATOM      2  C   UNL     1      34.292 -23.176 -15.786  0.00  0.00    +0.000 C 
ENDROOT
BRANCH   1   3
ATOM      3  C   UNL     1      36.786 -22.787 -16.127  0.00  0.00    +0.000 C 
BRANCH   3   4
ATOM      4  C   UNL     1      36.774 -21.524 -16.999  0.00  0.00    +0.000 C 
BRANCH   4   5
ATOM      5  C   UNL     1      36.596 -21.822 -18.491  0.00  0.00    +0.000 C 
BRANCH   5   6
ATOM      6  C   UNL     1      35.188 -21.485 -19.021  0.00  0.00    +0.000 C 
ATOM      7  C   UNL     1      34.417 -22.780 -19.300  0.00  0.00    +0.000 C 
BRANCH   6   8
ATOM      8  C   UNL     1      35.167 -20.545 -20.247  0.00  0.00    +0.000 C 
BRANCH   8   9
ATOM      9  C   UNL     1      33.780 -20.029 -20.646  0.00  0.00    +0.000 C 
BRANCH   9  10
ATOM     10  C   UNL     1      33.831 -18.761 -21.510  0.00  0.00    +0.000 C 
BRANCH  10  11
ATOM     11  C   UNL     1      35.114 -17.918 -21.396  0.00  0.00    +0.000 C 
ATOM     12  C   UNL     1      34.832 -16.481 -20.953  0.00  0.00    +0.000 C 
ATOM     13  C   UNL     1      35.848 -17.909 -22.740  0.00  0.00    +0.000 C 
ENDBRANCH  10  11
ENDBRANCH   9  10
ENDBRANCH   8   9
ENDBRANCH   6   8
ENDBRANCH   5   6
ENDBRANCH   4   5
ENDBRANCH   3   4
ENDBRANCH   1   3
BRANCH   1  14
ATOM     14  C   UNL     1      35.909 -24.044 -14.083  0.00  0.00    +0.042 C 
BRANCH  14  15
ATOM     15  C   UNL     1      35.240 -23.862 -12.721  0.00  0.00    +0.214 C 
BRANCH  15  16
ATOM     16  P   UNL     1      36.314 -24.226 -11.335  0.00  0.00    +0.363 P 
ATOM     17  O   UNL     1      37.099 -23.057 -10.818  0.00  0.00    -0.256 OA
BRANCH  16  18
ATOM     18  O   UNL     1      35.318 -24.911 -10.261  0.00  0.00    -0.322 OA
ATOM     19  H   UNL     1      34.854 -24.220  -9.763  0.00  0.00    +0.220 HD
ENDBRANCH  16  18
BRANCH  16  20
ATOM     20  O   UNL     1      37.202 -25.471 -11.860  0.00  0.00    -0.322 OA
ATOM     21  H   UNL     1      38.051 -25.143 -12.194  0.00  0.00    +0.220 HD
ENDBRANCH  16  20
ENDBRANCH  15  16
BRANCH  15  22
ATOM     22  O   UNL     1      34.150 -24.762 -12.578  0.00  0.00    -0.374 OA
ATOM     23  H   UNL     1      34.309 -25.346 -11.820  0.00  0.00    +0.211 HD
ENDBRANCH  15  22
ENDBRANCH  14  15
ENDBRANCH   1  14
TORSDOF 14
ENDMDL
MODEL 5
REMARK VINA RESULT:      -7.6      4.924      6.190
REMARK  Name = 46937103
REMARK  14 active torsions:
REMARK  status: ('A' for Active; 'I' for Inactive)
REMARK    1  A    between atoms: C_1  and  C_3
REMARK    2  A    between atoms: C_1  and  C_14
REMARK    3  A    between atoms: C_3  and  C_4
REMARK    4  A    between atoms: C_4  and  C_5
REMARK    5  A    between atoms: C_5  and  C_6
REMARK    6  A    between atoms: C_6  and  C_8
REMARK    7  A    between atoms: C_8  and  C_9
REMARK    8  A    between atoms: C_9  and  C_10
REMARK    9  A    between atoms: C_10  and  C_11
REMARK   10  A    between atoms: C_14  and  C_15
REMARK   11  A    between atoms: C_15  and  P_16
REMARK   12  A    between atoms: C_15  and  O_22
REMARK   13  A    between atoms: P_16  and  O_18
REMARK   14  A    between atoms: P_16  and  O_20
REMARK                            x       y       z     vdW  Elec       q    Type
REMARK                         _______ _______ _______ _____ _____    ______ ____
ROOT
ATOM      1  C   UNL     1      38.282 -24.937 -14.654  0.00  0.00    +0.003 C 
ATOM      2  C   UNL     1      39.627 -25.634 -14.891  0.00  0.00    +0.000 C 
ENDROOT
BRANCH   1   3
ATOM      3  C   UNL     1      38.202 -23.584 -15.391  0.00  0.00    +0.000 C 
BRANCH   3   4
ATOM      4  C   UNL     1      36.793 -23.109 -15.774  0.00  0.00    +0.000 C 
BRANCH   4   5
ATOM      5  C   UNL     1      36.783 -22.144 -16.964  0.00  0.00    +0.000 C 
BRANCH   5   6
ATOM      6  C   UNL     1      35.401 -22.009 -17.634  0.00  0.00    +0.000 C 
ATOM      7  C   UNL     1      34.445 -23.062 -17.063  0.00  0.00    +0.000 C 
BRANCH   6   8
ATOM      8  C   UNL     1      35.425 -22.052 -19.177  0.00  0.00    +0.000 C 
BRANCH   8   9
ATOM      9  C   UNL     1      36.179 -20.900 -19.848  0.00  0.00    +0.000 C 
BRANCH   9  10
ATOM     10  C   UNL     1      35.435 -20.308 -21.053  0.00  0.00    +0.000 C 
BRANCH  10  11
ATOM     11  C   UNL     1      34.282 -19.342 -20.726  0.00  0.00    +0.000 C 
ATOM     12  C   UNL     1      32.914 -20.025 -20.779  0.00  0.00    +0.000 C 
ATOM     13  C   UNL     1      34.306 -18.159 -21.699  0.00  0.00    +0.000 C 
ENDBRANCH  10  11
ENDBRANCH   9  10
ENDBRANCH   8   9
ENDBRANCH   6   8
ENDBRANCH   5   6
ENDBRANCH   4   5
ENDBRANCH   3   4
ENDBRANCH   1   3
BRANCH   1  14
ATOM     14  C   UNL     1      38.071 -24.768 -13.132  0.00  0.00    +0.042 C 
BRANCH  14  15
ATOM     15  C   UNL     1      36.703 -25.211 -12.614  0.00  0.00    +0.214 C 
BRANCH  15  16
ATOM     16  P   UNL     1      36.004 -24.110 -11.387  0.00  0.00    +0.363 P 
ATOM     17  O   UNL     1      36.962 -23.104 -10.821  0.00  0.00    -0.256 OA
BRANCH  16  18
ATOM     18  O   UNL     1      34.717 -23.484 -12.137  0.00  0.00    -0.322 OA
ATOM     19  H   UNL     1      34.225 -24.192 -12.583  0.00  0.00    +0.220 HD
ENDBRANCH  16  18
BRANCH  16  20
ATOM     20  O   UNL     1      35.347 -25.115 -10.305  0.00  0.00    -0.322 OA
ATOM     21  H   UNL     1      35.480 -26.032 -10.593  0.00  0.00    +0.220 HD
ENDBRANCH  16  20
ENDBRANCH  15  16
BRANCH  15  22
ATOM     22  O   UNL     1      36.804 -26.467 -11.954  0.00  0.00    -0.374 OA
ATOM     23  H   UNL     1      35.930 -26.887 -11.921  0.00  0.00    +0.211 HD
ENDBRANCH  15  22
ENDBRANCH  14  15
ENDBRANCH   1  14
TORSDOF 14
ENDMDL
MODEL 6
REMARK VINA RESULT:      -7.6      4.702      5.496
REMARK  Name = 46937103
REMARK  14 active torsions:
REMARK  status: ('A' for Active; 'I' for Inactive)
REMARK    1  A    between atoms: C_1  and  C_3
REMARK    2  A    between atoms: C_1  and  C_14
REMARK    3  A    between atoms: C_3  and  C_4
REMARK    4  A    between atoms: C_4  and  C_5
REMARK    5  A    between atoms: C_5  and  C_6
REMARK    6  A    between atoms: C_6  and  C_8
REMARK    7  A    between atoms: C_8  and  C_9
REMARK    8  A    between atoms: C_9  and  C_10
REMARK    9  A    between atoms: C_10  and  C_11
REMARK   10  A    between atoms: C_14  and  C_15
REMARK   11  A    between atoms: C_15  and  P_16
REMARK   12  A    between atoms: C_15  and  O_22
REMARK   13  A    between atoms: P_16  and  O_18
REMARK   14  A    between atoms: P_16  and  O_20
REMARK                            x       y       z     vdW  Elec       q    Type
REMARK                         _______ _______ _______ _____ _____    ______ ____
ROOT
ATOM      1  C   UNL     1      33.870 -23.532 -14.303  0.00  0.00    +0.003 C 
ATOM      2  C   UNL     1      32.560 -24.021 -13.672  0.00  0.00    +0.000 C 
ENDROOT
BRANCH   1   3
ATOM      3  C   UNL     1      33.849 -23.669 -15.840  0.00  0.00    +0.000 C 
BRANCH   3   4
ATOM      4  C   UNL     1      34.911 -22.862 -16.601  0.00  0.00    +0.000 C 
BRANCH   4   5
ATOM      5  C   UNL     1      34.516 -22.559 -18.049  0.00  0.00    +0.000 C 
BRANCH   5   6
ATOM      6  C   UNL     1      35.676 -22.000 -18.898  0.00  0.00    +0.000 C 
ATOM      7  C   UNL     1      36.793 -21.495 -17.978  0.00  0.00    +0.000 C 
BRANCH   6   8
ATOM      8  C   UNL     1      35.264 -20.921 -19.924  0.00  0.00    +0.000 C 
BRANCH   8   9
ATOM      9  C   UNL     1      33.754 -20.723 -20.087  0.00  0.00    +0.000 C 
BRANCH   9  10
ATOM     10  C   UNL     1      33.392 -19.601 -21.070  0.00  0.00    +0.000 C 
BRANCH  10  11
ATOM     11  C   UNL     1      34.576 -18.814 -21.662  0.00  0.00    +0.000 C 
ATOM     12  C   UNL     1      34.534 -17.330 -21.295  0.00  0.00    +0.000 C 
ATOM     13  C   UNL     1      34.590 -18.970 -23.185  0.00  0.00    +0.000 C 
ENDBRANCH  10  11
ENDBRANCH   9  10
ENDBRANCH   8   9
ENDBRANCH   6   8
ENDBRANCH   5   6
ENDBRANCH   4   5
ENDBRANCH   3   4
ENDBRANCH   1   3
BRANCH   1  14
ATOM     14  C   UNL     1      35.045 -24.319 -13.678  0.00  0.00    +0.042 C 
BRANCH  14  15
ATOM     15  C   UNL     1      35.407 -23.916 -12.249  0.00  0.00    +0.214 C 
BRANCH  15  16
ATOM     16  P   UNL     1      37.162 -23.671 -11.990  0.00  0.00    +0.363 P 
ATOM     17  O   UNL     1      37.890 -24.856 -11.428  0.00  0.00    -0.256 OA
BRANCH  16  18
ATOM     18  O   UNL     1      37.686 -23.167 -13.434  0.00  0.00    -0.322 OA
ATOM     19  H   UNL     1      38.382 -22.502 -13.312  0.00  0.00    +0.220 HD
ENDBRANCH  16  18
BRANCH  16  20
ATOM     20  O   UNL     1      37.229 -22.332 -11.086  0.00  0.00    -0.322 OA
ATOM     21  H   UNL     1      36.964 -22.543 -10.177  0.00  0.00    +0.220 HD
ENDBRANCH  16  20
ENDBRANCH  15  16
BRANCH  15  22
ATOM     22  O   UNL     1      35.050 -24.946 -11.336  0.00  0.00    -0.374 OA
ATOM     23  H   UNL     1      34.102 -24.885 -11.135  0.00  0.00    +0.211 HD
ENDBRANCH  15  22
ENDBRANCH  14  15
ENDBRANCH   1  14
TORSDOF 14
ENDMDL
MODEL 7
REMARK VINA RESULT:      -7.6      8.404     11.553
REMARK  Name = 46937103
REMARK  14 active torsions:
REMARK  status: ('A' for Active; 'I' for Inactive)
REMARK    1  A    between atoms: C_1  and  C_3
REMARK    2  A    between atoms: C_1  and  C_14
REMARK    3  A    between atoms: C_3  and  C_4
REMARK    4  A    between atoms: C_4  and  C_5
REMARK    5  A    between atoms: C_5  and  C_6
REMARK    6  A    between atoms: C_6  and  C_8
REMARK    7  A    between atoms: C_8  and  C_9
REMARK    8  A    between atoms: C_9  and  C_10
REMARK    9  A    between atoms: C_10  and  C_11
REMARK   10  A    between atoms: C_14  and  C_15
REMARK   11  A    between atoms: C_15  and  P_16
REMARK   12  A    between atoms: C_15  and  O_22
REMARK   13  A    between atoms: P_16  and  O_18
REMARK   14  A    between atoms: P_16  and  O_20
REMARK                            x       y       z     vdW  Elec       q    Type
REMARK                         _______ _______ _______ _____ _____    ______ ____
ROOT
ATOM      1  C   UNL     1      33.085 -13.949 -23.679  0.00  0.00    +0.003 C 
ATOM      2  C   UNL     1      33.078 -13.864 -25.211  0.00  0.00    +0.000 C 
ENDROOT
BRANCH   1   3
ATOM      3  C   UNL     1      32.721 -12.596 -23.030  0.00  0.00    +0.000 C 
BRANCH   3   4
ATOM      4  C   UNL     1      31.906 -12.671 -21.731  0.00  0.00    +0.000 C 
BRANCH   4   5
ATOM      5  C   UNL     1      31.175 -11.366 -21.401  0.00  0.00    +0.000 C 
BRANCH   5   6
ATOM      6  C   UNL     1      31.903 -10.504 -20.349  0.00  0.00    +0.000 C 
ATOM      7  C   UNL     1      31.248 -10.701 -18.977  0.00  0.00    +0.000 C 
BRANCH   6   8
ATOM      8  C   UNL     1      32.014  -9.006 -20.708  0.00  0.00    +0.000 C 
BRANCH   8   9
ATOM      9  C   UNL     1      32.383  -8.713 -22.166  0.00  0.00    +0.000 C 
BRANCH   9  10
ATOM     10  C   UNL     1      33.480  -7.649 -22.310  0.00  0.00    +0.000 C 
BRANCH  10  11
ATOM     11  C   UNL     1      34.545  -7.920 -23.389  0.00  0.00    +0.000 C 
ATOM     12  C   UNL     1      34.472  -6.923 -24.546  0.00  0.00    +0.000 C 
ATOM     13  C   UNL     1      34.387  -9.346 -23.925  0.00  0.00    +0.000 C 
ENDBRANCH  10  11
ENDBRANCH   9  10
ENDBRANCH   8   9
ENDBRANCH   6   8
ENDBRANCH   5   6
ENDBRANCH   4   5
ENDBRANCH   3   4
ENDBRANCH   1   3
BRANCH   1  14
ATOM     14  C   UNL     1      34.474 -14.445 -23.216  0.00  0.00    +0.042 C 
BRANCH  14  15
ATOM     15  C   UNL     1      34.553 -15.937 -22.892  0.00  0.00    +0.214 C 
BRANCH  15  16
ATOM     16  P   UNL     1      34.486 -16.300 -21.140  0.00  0.00    +0.363 P 
ATOM     17  O   UNL     1      35.306 -17.479 -20.707  0.00  0.00    -0.256 OA
BRANCH  16  18
ATOM     18  O   UNL     1      34.890 -14.895 -20.451  0.00  0.00    -0.322 OA
ATOM     19  H   UNL     1      34.088 -14.443 -20.143  0.00  0.00    +0.220 HD
ENDBRANCH  16  18
BRANCH  16  20
ATOM     20  O   UNL     1      32.902 -16.418 -20.837  0.00  0.00    -0.322 OA
ATOM     21  H   UNL     1      32.405 -16.255 -21.654  0.00  0.00    +0.220 HD
ENDBRANCH  16  20
ENDBRANCH  15  16
BRANCH  15  22
ATOM     22  O   UNL     1      35.797 -16.474 -23.323  0.00  0.00    -0.374 OA
ATOM     23  H   UNL     1      35.937 -17.340 -22.909  0.00  0.00    +0.211 HD
ENDBRANCH  15  22
ENDBRANCH  14  15
ENDBRANCH   1  14
TORSDOF 14
ENDMDL
MODEL 8
REMARK VINA RESULT:      -7.6      4.791      5.683
REMARK  Name = 46937103
REMARK  14 active torsions:
REMARK  status: ('A' for Active; 'I' for Inactive)
REMARK    1  A    between atoms: C_1  and  C_3
REMARK    2  A    between atoms: C_1  and  C_14
REMARK    3  A    between atoms: C_3  and  C_4
REMARK    4  A    between atoms: C_4  and  C_5
REMARK    5  A    between atoms: C_5  and  C_6
REMARK    6  A    between atoms: C_6  and  C_8
REMARK    7  A    between atoms: C_8  and  C_9
REMARK    8  A    between atoms: C_9  and  C_10
REMARK    9  A    between atoms: C_10  and  C_11
REMARK   10  A    between atoms: C_14  and  C_15
REMARK   11  A    between atoms: C_15  and  P_16
REMARK   12  A    between atoms: C_15  and  O_22
REMARK   13  A    between atoms: P_16  and  O_18
REMARK   14  A    between atoms: P_16  and  O_20
REMARK                            x       y       z     vdW  Elec       q    Type
REMARK                         _______ _______ _______ _____ _____    ______ ____
ROOT
ATOM      1  C   UNL     1      34.661 -23.411 -14.842  0.00  0.00    +0.003 C 
ATOM      2  C   UNL     1      34.081 -24.082 -13.591  0.00  0.00    +0.000 C 
ENDROOT
BRANCH   1   3
ATOM      3  C   UNL     1      33.670 -23.451 -16.024  0.00  0.00    +0.000 C 
BRANCH   3   4
ATOM      4  C   UNL     1      34.248 -23.088 -17.399  0.00  0.00    +0.000 C 
BRANCH   4   5
ATOM      5  C   UNL     1      33.223 -22.433 -18.331  0.00  0.00    +0.000 C 
BRANCH   5   6
ATOM      6  C   UNL     1      33.854 -21.792 -19.584  0.00  0.00    +0.000 C 
ATOM      7  C   UNL     1      35.336 -21.502 -19.325  0.00  0.00    +0.000 C 
BRANCH   6   8
ATOM      8  C   UNL     1      33.120 -20.538 -20.106  0.00  0.00    +0.000 C 
BRANCH   8   9
ATOM      9  C   UNL     1      33.827 -19.800 -21.247  0.00  0.00    +0.000 C 
BRANCH   9  10
ATOM     10  C   UNL     1      33.859 -18.277 -21.057  0.00  0.00    +0.000 C 
BRANCH  10  11
ATOM     11  C   UNL     1      35.216 -17.594 -21.304  0.00  0.00    +0.000 C 
ATOM     12  C   UNL     1      35.190 -16.665 -22.519  0.00  0.00    +0.000 C 
ATOM     13  C   UNL     1      36.303 -18.656 -21.489  0.00  0.00    +0.000 C 
ENDBRANCH  10  11
ENDBRANCH   9  10
ENDBRANCH   8   9
ENDBRANCH   6   8
ENDBRANCH   5   6
ENDBRANCH   4   5
ENDBRANCH   3   4
ENDBRANCH   1   3
BRANCH   1  14
ATOM     14  C   UNL     1      35.999 -24.100 -15.199  0.00  0.00    +0.042 C 
BRANCH  14  15
ATOM     15  C   UNL     1      36.155 -25.525 -14.668  0.00  0.00    +0.214 C 
BRANCH  15  16
ATOM     16  P   UNL     1      37.743 -25.839 -13.902  0.00  0.00    +0.363 P 
ATOM     17  O   UNL     1      38.566 -26.904 -14.565  0.00  0.00    -0.256 OA
BRANCH  16  18
ATOM     18  O   UNL     1      38.429 -24.377 -13.849  0.00  0.00    -0.322 OA
ATOM     19  H   UNL     1      38.702 -24.115 -14.742  0.00  0.00    +0.220 HD
ENDBRANCH  16  18
BRANCH  16  20
ATOM     20  O   UNL     1      37.368 -26.127 -12.356  0.00  0.00    -0.322 OA
ATOM     21  H   UNL     1      37.316 -25.286 -11.875  0.00  0.00    +0.220 HD
ENDBRANCH  16  20
ENDBRANCH  15  16
BRANCH  15  22
ATOM     22  O   UNL     1      36.078 -26.463 -15.733  0.00  0.00    -0.374 OA
ATOM     23  H   UNL     1      35.255 -26.972 -15.657  0.00  0.00    +0.211 HD
ENDBRANCH  15  22
ENDBRANCH  14  15
ENDBRANCH   1  14
TORSDOF 14
ENDMDL
MODEL 9
REMARK VINA RESULT:      -7.6      4.215      5.161
REMARK  Name = 46937103
REMARK  14 active torsions:
REMARK  status: ('A' for Active; 'I' for Inactive)
REMARK    1  A    between atoms: C_1  and  C_3
REMARK    2  A    between atoms: C_1  and  C_14
REMARK    3  A    between atoms: C_3  and  C_4
REMARK    4  A    between atoms: C_4  and  C_5
REMARK    5  A    between atoms: C_5  and  C_6
REMARK    6  A    between atoms: C_6  and  C_8
REMARK    7  A    between atoms: C_8  and  C_9
REMARK    8  A    between atoms: C_9  and  C_10
REMARK    9  A    between atoms: C_10  and  C_11
REMARK   10  A    between atoms: C_14  and  C_15
REMARK   11  A    between atoms: C_15  and  P_16
REMARK   12  A    between atoms: C_15  and  O_22
REMARK   13  A    between atoms: P_16  and  O_18
REMARK   14  A    between atoms: P_16  and  O_20
REMARK                            x       y       z     vdW  Elec       q    Type
REMARK                         _______ _______ _______ _____ _____    ______ ____
ROOT
ATOM      1  C   UNL     1      33.456 -22.861 -16.914  0.00  0.00    +0.003 C 
ATOM      2  C   UNL     1      31.971 -23.243 -16.872  0.00  0.00    +0.000 C 
ENDROOT
BRANCH   1   3
ATOM      3  C   UNL     1      34.044 -23.014 -18.333  0.00  0.00    +0.000 C 
BRANCH   3   4
ATOM      4  C   UNL     1      33.565 -21.992 -19.373  0.00  0.00    +0.000 C 
BRANCH   4   5
ATOM      5  C   UNL     1      34.677 -21.057 -19.860  0.00  0.00    +0.000 C 
BRANCH   5   6
ATOM      6  C   UNL     1      34.152 -19.811 -20.601  0.00  0.00    +0.000 C 
ATOM      7  C   UNL     1      32.624 -19.874 -20.700  0.00  0.00    +0.000 C 
BRANCH   6   8
ATOM      8  C   UNL     1      34.794 -19.565 -21.984  0.00  0.00    +0.000 C 
BRANCH   8   9
ATOM      9  C   UNL     1      35.056 -18.095 -22.327  0.00  0.00    +0.000 C 
BRANCH   9  10
ATOM     10  C   UNL     1      35.077 -17.180 -21.095  0.00  0.00    +0.000 C 
BRANCH  10  11
ATOM     11  C   UNL     1      34.455 -15.784 -21.280  0.00  0.00    +0.000 C 
ATOM     12  C   UNL     1      32.980 -15.743 -20.876  0.00  0.00    +0.000 C 
ATOM     13  C   UNL     1      34.604 -15.341 -22.738  0.00  0.00    +0.000 C 
ENDBRANCH  10  11
ENDBRANCH   9  10
ENDBRANCH   8   9
ENDBRANCH   6   8
ENDBRANCH   5   6
ENDBRANCH   4   5
ENDBRANCH   3   4
ENDBRANCH   1   3
BRANCH   1  14
ATOM     14  C   UNL     1      34.221 -23.727 -15.886  0.00  0.00    +0.042 C 
BRANCH  14  15
ATOM     15  C   UNL     1      35.236 -22.969 -15.030  0.00  0.00    +0.214 C 
BRANCH  15  16
ATOM     16  P   UNL     1      36.926 -23.510 -15.267  0.00  0.00    +0.363 P 
ATOM     17  O   UNL     1      37.859 -23.181 -14.139  0.00  0.00    -0.256 OA
BRANCH  16  18
ATOM     18  O   UNL     1      36.773 -25.086 -15.591  0.00  0.00    -0.322 OA
ATOM     19  H   UNL     1      37.365 -25.326 -16.321  0.00  0.00    +0.220 HD
ENDBRANCH  16  18
BRANCH  16  20
ATOM     20  O   UNL     1      37.330 -22.877 -16.698  0.00  0.00    -0.322 OA
ATOM     21  H   UNL     1      37.356 -21.910 -16.628  0.00  0.00    +0.220 HD
ENDBRANCH  16  20
ENDBRANCH  15  16
BRANCH  15  22
ATOM     22  O   UNL     1      34.979 -23.184 -13.649  0.00  0.00    -0.374 OA
ATOM     23  H   UNL     1      35.266 -22.409 -13.141  0.00  0.00    +0.211 HD
ENDBRANCH  15  22
ENDBRANCH  14  15
ENDBRANCH   1  14
TORSDOF 14
ENDMDL
