MODEL 1
REMARK VINA RESULT:      -7.1      0.000      0.000
REMARK  Name = 6279
REMARK  3 active torsions:
REMARK  status: ('A' for Active; 'I' for Inactive)
REMARK    1  A    between atoms: C_6  and  C_23
REMARK    2  A    between atoms: C_6  and  O_25
REMARK    3  A    between atoms: O_25  and  C_27
REMARK                            x       y       z     vdW  Elec       q    Type
REMARK                         _______ _______ _______ _____ _____    ______ ____
ROOT
ATOM      1  O   UNL     1      32.835 -18.991 -20.950  0.00  0.00    -0.291 OA
ATOM      2  C   UNL     1      35.864 -24.154 -14.988  0.00  0.00    +0.040 C 
ATOM      3  C   UNL     1      36.661 -23.068 -15.748  0.00  0.00    +0.004 C 
ATOM      4  C   UNL     1      36.212 -22.901 -17.206  0.00  0.00    +0.001 C 
ATOM      5  C   UNL     1      34.706 -22.509 -17.232  0.00  0.00    +0.003 C 
ATOM      6  C   UNL     1      36.615 -24.122 -13.633  0.00  0.00    +0.186 C 
ATOM      7  C   UNL     1      34.160 -22.271 -18.693  0.00  0.00    +0.016 C 
ATOM      8  C   UNL     1      34.392 -23.715 -14.967  0.00  0.00    +0.004 C 
ATOM      9  C   UNL     1      33.843 -23.486 -16.387  0.00  0.00    +0.000 C 
ATOM     10  C   UNL     1      38.116 -23.431 -15.467  0.00  0.00    +0.004 C 
ATOM     11  C   UNL     1      37.045 -21.835 -17.929  0.00  0.00    +0.004 C 
ATOM     12  C   UNL     1      38.102 -23.979 -14.026  0.00  0.00    +0.047 C 
ATOM     13  C   UNL     1      36.592 -21.660 -19.385  0.00  0.00    +0.018 C 
ATOM     14  C   UNL     1      35.103 -21.312 -19.452  0.00  0.00    -0.042 C 
ATOM     15  C   UNL     1      35.980 -25.564 -15.633  0.00  0.00    +0.004 C 
ATOM     16  C   UNL     1      32.734 -21.653 -18.572  0.00  0.00    +0.012 C 
ATOM     17  C   UNL     1      34.058 -23.589 -19.495  0.00  0.00    +0.004 C 
ATOM     18  C   UNL     1      32.227 -21.032 -19.861  0.00  0.00    +0.069 C 
ATOM     19  C   UNL     1      34.649 -20.258 -20.156  0.00  0.00    +0.029 C 
ATOM     20  C   UNL     1      37.552 -20.688 -20.087  0.00  0.00    +0.004 C 
ATOM     21  C   UNL     1      33.202 -19.997 -20.345  0.00  0.00    +0.173 C 
ENDROOT
BRANCH   6  23
ATOM     22  O   UNL     1      35.280 -25.439 -12.157  0.00  0.00    -0.292 OA
ATOM     23  C   UNL     1      36.354 -25.299 -12.742  0.00  0.00    +0.187 C 
ATOM     24  C   UNL     1      37.468 -26.299 -12.598  0.00  0.00    +0.076 C 
ENDBRANCH   6  23
BRANCH   6  25
ATOM     25  O   UNL     1      36.221 -22.995 -12.856  0.00  0.00    -0.449 OA
BRANCH  25  27
ATOM     26  O   UNL     1      38.135 -22.073 -11.949  0.00  0.00    -0.250 OA
ATOM     27  C   UNL     1      37.065 -22.654 -11.836  0.00  0.00    +0.318 C 
ATOM     28  C   UNL     1      36.484 -23.098 -10.527  0.00  0.00    +0.121 C 
ENDBRANCH  25  27
ENDBRANCH   6  25
TORSDOF 3
ENDMDL
MODEL 2
REMARK VINA RESULT:      -6.6      2.590      3.727
REMARK  Name = 6279
REMARK  3 active torsions:
REMARK  status: ('A' for Active; 'I' for Inactive)
REMARK    1  A    between atoms: C_6  and  C_23
REMARK    2  A    between atoms: C_6  and  O_25
REMARK    3  A    between atoms: O_25  and  C_27
REMARK                            x       y       z     vdW  Elec       q    Type
REMARK                         _______ _______ _______ _____ _____    ______ ____
ROOT
ATOM      1  O   UNL     1      27.819 -21.671 -16.300  0.00  0.00    -0.291 OA
ATOM      2  C   UNL     1      35.394 -24.628 -14.009  0.00  0.00    +0.040 C 
ATOM      3  C   UNL     1      35.124 -23.502 -15.035  0.00  0.00    +0.004 C 
ATOM      4  C   UNL     1      33.843 -23.725 -15.850  0.00  0.00    +0.001 C 
ATOM      5  C   UNL     1      32.630 -23.801 -14.879  0.00  0.00    +0.003 C 
ATOM      6  C   UNL     1      36.759 -24.148 -13.454  0.00  0.00    +0.186 C 
ATOM      7  C   UNL     1      31.254 -23.985 -15.629  0.00  0.00    +0.016 C 
ATOM      8  C   UNL     1      34.218 -24.642 -13.020  0.00  0.00    +0.004 C 
ATOM      9  C   UNL     1      32.870 -24.829 -13.739  0.00  0.00    +0.000 C 
ATOM     10  C   UNL     1      36.451 -23.370 -15.776  0.00  0.00    +0.004 C 
ATOM     11  C   UNL     1      33.629 -22.601 -16.872  0.00  0.00    +0.004 C 
ATOM     12  C   UNL     1      37.520 -23.645 -14.700  0.00  0.00    +0.047 C 
ATOM     13  C   UNL     1      32.344 -22.817 -17.682  0.00  0.00    +0.018 C 
ATOM     14  C   UNL     1      31.130 -22.937 -16.755  0.00  0.00    -0.042 C 
ATOM     15  C   UNL     1      35.545 -26.030 -14.663  0.00  0.00    +0.004 C 
ATOM     16  C   UNL     1      30.113 -23.801 -14.582  0.00  0.00    +0.012 C 
ATOM     17  C   UNL     1      31.122 -25.392 -16.257  0.00  0.00    +0.004 C 
ATOM     18  C   UNL     1      28.746 -23.584 -15.204  0.00  0.00    +0.069 C 
ATOM     19  C   UNL     1      30.020 -22.197 -16.937  0.00  0.00    +0.029 C 
ATOM     20  C   UNL     1      32.263 -21.741 -18.776  0.00  0.00    +0.004 C 
ATOM     21  C   UNL     1      28.791 -22.407 -16.136  0.00  0.00    +0.173 C 
ENDROOT
BRANCH   6  23
ATOM     22  O   UNL     1      37.030 -25.743 -11.700  0.00  0.00    -0.292 OA
ATOM     23  C   UNL     1      37.521 -25.180 -12.678  0.00  0.00    +0.187 C 
ATOM     24  C   UNL     1      38.913 -25.492 -13.153  0.00  0.00    +0.076 C 
ENDBRANCH   6  23
BRANCH   6  25
ATOM     25  O   UNL     1      36.588 -23.070 -12.537  0.00  0.00    -0.449 OA
BRANCH  25  27
ATOM     26  O   UNL     1      38.709 -22.817 -11.657  0.00  0.00    -0.250 OA
ATOM     27  C   UNL     1      37.507 -23.000 -11.528  0.00  0.00    +0.318 C 
ATOM     28  C   UNL     1      36.823 -23.180 -10.206  0.00  0.00    +0.121 C 
ENDBRANCH  25  27
ENDBRANCH   6  25
TORSDOF 3
ENDMDL
MODEL 3
REMARK VINA RESULT:      -5.4      2.047      7.908
REMARK  Name = 6279
REMARK  3 active torsions:
REMARK  status: ('A' for Active; 'I' for Inactive)
REMARK    1  A    between atoms: C_6  and  C_23
REMARK    2  A    between atoms: C_6  and  O_25
REMARK    3  A    between atoms: O_25  and  C_27
REMARK                            x       y       z     vdW  Elec       q    Type
REMARK                         _______ _______ _______ _____ _____    ______ ____
ROOT
ATOM      1  O   UNL     1      34.043 -23.654 -12.373  0.00  0.00    -0.291 OA
ATOM      2  C   UNL     1      35.195 -20.755 -20.224  0.00  0.00    +0.040 C 
ATOM      3  C   UNL     1      33.847 -20.845 -19.471  0.00  0.00    +0.004 C 
ATOM      4  C   UNL     1      33.755 -22.065 -18.546  0.00  0.00    +0.001 C 
ATOM      5  C   UNL     1      34.897 -21.991 -17.492  0.00  0.00    +0.003 C 
ATOM      6  C   UNL     1      34.916 -19.509 -21.103  0.00  0.00    +0.186 C 
ATOM      7  C   UNL     1      34.860 -23.186 -16.462  0.00  0.00    +0.016 C 
ATOM      8  C   UNL     1      36.304 -20.615 -19.169  0.00  0.00    +0.004 C 
ATOM      9  C   UNL     1      36.283 -21.778 -18.162  0.00  0.00    +0.000 C 
ATOM     10  C   UNL     1      32.810 -20.684 -20.578  0.00  0.00    +0.004 C 
ATOM     11  C   UNL     1      32.394 -22.130 -17.841  0.00  0.00    +0.004 C 
ATOM     12  C   UNL     1      33.454 -19.691 -21.566  0.00  0.00    +0.047 C 
ATOM     13  C   UNL     1      32.302 -23.345 -16.908  0.00  0.00    +0.018 C 
ATOM     14  C   UNL     1      33.437 -23.327 -15.880  0.00  0.00    -0.042 C 
ATOM     15  C   UNL     1      35.480 -21.991 -21.122  0.00  0.00    +0.004 C 
ATOM     16  C   UNL     1      35.884 -22.869 -15.330  0.00  0.00    +0.012 C 
ATOM     17  C   UNL     1      35.252 -24.529 -17.119  0.00  0.00    +0.004 C 
ATOM     18  C   UNL     1      35.706 -23.727 -14.090  0.00  0.00    +0.069 C 
ATOM     19  C   UNL     1      33.204 -23.461 -14.560  0.00  0.00    +0.029 C 
ATOM     20  C   UNL     1      30.874 -23.429 -16.346  0.00  0.00    +0.004 C 
ATOM     21  C   UNL     1      34.302 -23.589 -13.573  0.00  0.00    +0.173 C 
ENDROOT
BRANCH   6  23
ATOM     22  O   UNL     1      37.061 -19.064 -22.049  0.00  0.00    -0.292 OA
ATOM     23  C   UNL     1      35.872 -19.316 -22.241  0.00  0.00    +0.187 C 
ATOM     24  C   UNL     1      35.307 -19.445 -23.629  0.00  0.00    +0.076 C 
ENDBRANCH   6  23
BRANCH   6  25
ATOM     25  O   UNL     1      35.025 -18.310 -20.342  0.00  0.00    -0.449 OA
BRANCH  25  27
ATOM     26  O   UNL     1      35.332 -16.487 -21.727  0.00  0.00    -0.250 OA
ATOM     27  C   UNL     1      34.639 -17.165 -20.981  0.00  0.00    +0.318 C 
ATOM     28  C   UNL     1      33.215 -16.847 -20.636  0.00  0.00    +0.121 C 
ENDBRANCH  25  27
ENDBRANCH   6  25
TORSDOF 3
ENDMDL
MODEL 4
REMARK VINA RESULT:      -4.9     16.259     21.430
REMARK  Name = 6279
REMARK  3 active torsions:
REMARK  status: ('A' for Active; 'I' for Inactive)
REMARK    1  A    between atoms: C_6  and  C_23
REMARK    2  A    between atoms: C_6  and  O_25
REMARK    3  A    between atoms: O_25  and  C_27
REMARK                            x       y       z     vdW  Elec       q    Type
REMARK                         _______ _______ _______ _____ _____    ______ ____
ROOT
ATOM      1  O   UNL     1      32.671  -8.116 -19.643  0.00  0.00    -0.291 OA
ATOM      2  C   UNL     1      33.684  -4.270 -27.097  0.00  0.00    +0.040 C 
ATOM      3  C   UNL     1      33.028  -3.661 -25.835  0.00  0.00    +0.004 C 
ATOM      4  C   UNL     1      32.244  -4.689 -25.008  0.00  0.00    +0.001 C 
ATOM      5  C   UNL     1      33.212  -5.821 -24.556  0.00  0.00    +0.003 C 
ATOM      6  C   UNL     1      34.286  -2.984 -27.719  0.00  0.00    +0.186 C 
ATOM      7  C   UNL     1      32.505  -6.909 -23.658  0.00  0.00    +0.016 C 
ATOM      8  C   UNL     1      34.684  -5.338 -26.626  0.00  0.00    +0.004 C 
ATOM      9  C   UNL     1      34.006  -6.410 -25.755  0.00  0.00    +0.000 C 
ATOM     10  C   UNL     1      32.291  -2.438 -26.372  0.00  0.00    +0.004 C 
ATOM     11  C   UNL     1      31.589  -4.038 -23.784  0.00  0.00    +0.004 C 
ATOM     12  C   UNL     1      33.196  -1.912 -27.504  0.00  0.00    +0.047 C 
ATOM     13  C   UNL     1      30.812  -5.066 -22.950  0.00  0.00    +0.018 C 
ATOM     14  C   UNL     1      31.724  -6.218 -22.520  0.00  0.00    -0.042 C 
ATOM     15  C   UNL     1      32.658  -4.908 -28.074  0.00  0.00    +0.004 C 
ATOM     16  C   UNL     1      33.615  -7.837 -23.076  0.00  0.00    +0.012 C 
ATOM     17  C   UNL     1      31.516  -7.776 -24.470  0.00  0.00    +0.004 C 
ATOM     18  C   UNL     1      33.144  -8.695 -21.915  0.00  0.00    +0.069 C 
ATOM     19  C   UNL     1      31.809  -6.619 -21.237  0.00  0.00    +0.029 C 
ATOM     20  C   UNL     1      30.068  -4.330 -21.826  0.00  0.00    +0.004 C 
ATOM     21  C   UNL     1      32.577  -7.820 -20.833  0.00  0.00    +0.173 C 
ENDROOT
BRANCH   6  23
ATOM     22  O   UNL     1      35.107  -4.186 -29.610  0.00  0.00    -0.292 OA
ATOM     23  C   UNL     1      34.706  -3.116 -29.152  0.00  0.00    +0.187 C 
ATOM     24  C   UNL     1      34.613  -1.878 -30.000  0.00  0.00    +0.076 C 
ENDBRANCH   6  23
BRANCH   6  25
ATOM     25  O   UNL     1      35.474  -2.594 -27.036  0.00  0.00    -0.449 OA
BRANCH  25  27
ATOM     26  O   UNL     1      37.105  -1.786 -28.459  0.00  0.00    -0.250 OA
ATOM     27  C   UNL     1      36.629  -2.672 -27.764  0.00  0.00    +0.318 C 
ATOM     28  C   UNL     1      37.249  -4.026 -27.588  0.00  0.00    +0.121 C 
ENDBRANCH  25  27
ENDBRANCH   6  25
TORSDOF 3
ENDMDL
MODEL 5
REMARK VINA RESULT:      -4.8      2.853      9.038
REMARK  Name = 6279
REMARK  3 active torsions:
REMARK  status: ('A' for Active; 'I' for Inactive)
REMARK    1  A    between atoms: C_6  and  C_23
REMARK    2  A    between atoms: C_6  and  O_25
REMARK    3  A    between atoms: O_25  and  C_27
REMARK                            x       y       z     vdW  Elec       q    Type
REMARK                         _______ _______ _______ _____ _____    ______ ____
ROOT
ATOM      1  O   UNL     1      36.379 -22.994 -14.839  0.00  0.00    -0.291 OA
ATOM      2  C   UNL     1      35.045 -18.589 -21.923  0.00  0.00    +0.040 C 
ATOM      3  C   UNL     1      33.961 -19.094 -20.942  0.00  0.00    +0.004 C 
ATOM      4  C   UNL     1      34.305 -20.448 -20.309  0.00  0.00    +0.001 C 
ATOM      5  C   UNL     1      35.645 -20.318 -19.529  0.00  0.00    +0.003 C 
ATOM      6  C   UNL     1      34.353 -17.297 -22.428  0.00  0.00    +0.186 C 
ATOM      7  C   UNL     1      36.064 -21.655 -18.803  0.00  0.00    +0.016 C 
ATOM      8  C   UNL     1      36.342 -18.403 -21.120  0.00  0.00    +0.004 C 
ATOM      9  C   UNL     1      36.766 -19.702 -20.412  0.00  0.00    +0.000 C 
ATOM     10  C   UNL     1      32.669 -18.967 -21.744  0.00  0.00    +0.004 C 
ATOM     11  C   UNL     1      33.192 -20.923 -19.366  0.00  0.00    +0.004 C 
ATOM     12  C   UNL     1      32.873 -17.702 -22.602  0.00  0.00    +0.047 C 
ATOM     13  C   UNL     1      33.538 -22.274 -18.725  0.00  0.00    +0.018 C 
ATOM     14  C   UNL     1      34.874 -22.196 -17.980  0.00  0.00    -0.042 C 
ATOM     15  C   UNL     1      35.299 -19.560 -23.110  0.00  0.00    +0.004 C 
ATOM     16  C   UNL     1      37.271 -21.331 -17.870  0.00  0.00    +0.012 C 
ATOM     17  C   UNL     1      36.498 -22.748 -19.806  0.00  0.00    +0.004 C 
ATOM     18  C   UNL     1      37.551 -22.410 -16.840  0.00  0.00    +0.069 C 
ATOM     19  C   UNL     1      35.003 -22.604 -16.704  0.00  0.00    +0.029 C 
ATOM     20  C   UNL     1      32.330 -22.757 -17.909  0.00  0.00    +0.004 C 
ATOM     21  C   UNL     1      36.317 -22.666 -16.022  0.00  0.00    +0.173 C 
ENDROOT
BRANCH   6  23
ATOM     22  O   UNL     1      36.006 -16.076 -23.641  0.00  0.00    -0.292 OA
ATOM     23  C   UNL     1      34.951 -16.709 -23.671  0.00  0.00    +0.187 C 
ATOM     24  C   UNL     1      34.197 -16.929 -24.954  0.00  0.00    +0.076 C 
ENDBRANCH   6  23
BRANCH   6  25
ATOM     25  O   UNL     1      34.448 -16.254 -21.462  0.00  0.00    -0.449 OA
BRANCH  25  27
ATOM     26  O   UNL     1      33.221 -14.573 -22.464  0.00  0.00    -0.250 OA
ATOM     27  C   UNL     1      33.465 -15.306 -21.516  0.00  0.00    +0.318 C 
ATOM     28  C   UNL     1      32.706 -15.287 -20.223  0.00  0.00    +0.121 C 
ENDBRANCH  25  27
ENDBRANCH   6  25
TORSDOF 3
ENDMDL
