MODEL 1
REMARK VINA RESULT:      -7.0      0.000      0.000
REMARK  Name = 60203
REMARK  3 active torsions:
REMARK  status: ('A' for Active; 'I' for Inactive)
REMARK    1  A    between atoms: C_4  and  C_12
REMARK    2  A    between atoms: C_5  and  O_13
REMARK    3  A    between atoms: C_8  and  O_15
REMARK                            x       y       z     vdW  Elec       q    Type
REMARK                         _______ _______ _______ _____ _____    ______ ____
ROOT
ATOM      1 CL   UNL     1      34.777 -16.587 -20.613  0.00  0.00    -0.077 Cl
ATOM      2 CL   UNL     1      33.455 -13.100 -24.550  0.00  0.00    -0.095 Cl
ATOM      3  N   UNL     1      34.449 -16.967 -24.578  0.00  0.00    -0.370 NA
ATOM      4  C   UNL     1      34.649 -17.191 -23.260  0.00  0.00    +0.167 C 
ATOM      5  C   UNL     1      34.133 -14.944 -22.675  0.00  0.00    +0.154 C 
ATOM      6  C   UNL     1      34.506 -16.224 -22.278  0.00  0.00    +0.118 C 
ATOM      7  C   UNL     1      33.918 -14.675 -24.022  0.00  0.00    +0.225 C 
ATOM      8  C   UNL     1      34.088 -15.712 -24.925  0.00  0.00    +0.275 C 
ENDROOT
BRANCH   4  12
ATOM      9 CL   UNL     1      36.726 -18.627 -22.235  0.00  0.00    -0.076 Cl
ATOM     10 CL   UNL     1      34.008 -19.416 -21.687  0.00  0.00    -0.076 Cl
ATOM     11 CL   UNL     1      35.014 -19.642 -24.382  0.00  0.00    -0.076 Cl
ATOM     12  C   UNL     1      35.047 -18.590 -22.912  0.00  0.00    +0.245 C 
ENDBRANCH   4  12
BRANCH   5  13
ATOM     13  O   UNL     1      33.978 -13.957 -21.745  0.00  0.00    -0.473 OA
ATOM     14  C   UNL     1      32.680 -13.805 -21.176  0.00  0.00    +0.252 C 
ENDBRANCH   5  13
BRANCH   8  15
ATOM     15  O   UNL     1      33.889 -15.499 -26.264  0.00  0.00    -0.450 OA
ATOM     16  C   UNL     1      32.545 -15.322 -26.692  0.00  0.00    +0.255 C 
ENDBRANCH   8  15
TORSDOF 3
ENDMDL
MODEL 2
REMARK VINA RESULT:      -6.9      7.814      9.644
REMARK  Name = 60203
REMARK  3 active torsions:
REMARK  status: ('A' for Active; 'I' for Inactive)
REMARK    1  A    between atoms: C_4  and  C_12
REMARK    2  A    between atoms: C_5  and  O_13
REMARK    3  A    between atoms: C_8  and  O_15
REMARK                            x       y       z     vdW  Elec       q    Type
REMARK                         _______ _______ _______ _____ _____    ______ ____
ROOT
ATOM      1 CL   UNL     1      33.943 -23.885 -14.636  0.00  0.00    -0.077 Cl
ATOM      2 CL   UNL     1      35.757 -22.065 -19.411  0.00  0.00    -0.095 Cl
ATOM      3  N   UNL     1      32.088 -22.523 -17.903  0.00  0.00    -0.370 NA
ATOM      4  C   UNL     1      32.373 -23.019 -16.678  0.00  0.00    +0.167 C 
ATOM      5  C   UNL     1      34.719 -22.955 -17.064  0.00  0.00    +0.154 C 
ATOM      6  C   UNL     1      33.658 -23.251 -16.215  0.00  0.00    +0.118 C 
ATOM      7  C   UNL     1      34.466 -22.443 -18.332  0.00  0.00    +0.225 C 
ATOM      8  C   UNL     1      33.145 -22.248 -18.699  0.00  0.00    +0.275 C 
ENDROOT
BRANCH   4  12
ATOM      9 CL   UNL     1      29.659 -22.777 -16.644  0.00  0.00    -0.076 Cl
ATOM     10 CL   UNL     1      30.927 -25.051 -15.406  0.00  0.00    -0.076 Cl
ATOM     11 CL   UNL     1      31.302 -22.435 -14.246  0.00  0.00    -0.076 Cl
ATOM     12  C   UNL     1      31.181 -23.311 -15.824  0.00  0.00    +0.245 C 
ENDBRANCH   4  12
BRANCH   5  13
ATOM     13  O   UNL     1      36.004 -23.166 -16.654  0.00  0.00    -0.473 OA
ATOM     14  C   UNL     1      36.690 -22.053 -16.086  0.00  0.00    +0.252 C 
ENDBRANCH   5  13
BRANCH   8  15
ATOM     15  O   UNL     1      32.840 -21.746 -19.939  0.00  0.00    -0.450 OA
ATOM     16  C   UNL     1      32.891 -20.334 -20.088  0.00  0.00    +0.255 C 
ENDBRANCH   8  15
TORSDOF 3
ENDMDL
MODEL 3
REMARK VINA RESULT:      -6.7      4.447      7.185
REMARK  Name = 60203
REMARK  3 active torsions:
REMARK  status: ('A' for Active; 'I' for Inactive)
REMARK    1  A    between atoms: C_4  and  C_12
REMARK    2  A    between atoms: C_5  and  O_13
REMARK    3  A    between atoms: C_8  and  O_15
REMARK                            x       y       z     vdW  Elec       q    Type
REMARK                         _______ _______ _______ _____ _____    ______ ____
ROOT
ATOM      1 CL   UNL     1      31.223 -10.641 -20.865  0.00  0.00    -0.077 Cl
ATOM      2 CL   UNL     1      33.592 -13.949 -24.449  0.00  0.00    -0.095 Cl
ATOM      3  N   UNL     1      33.643  -9.984 -23.976  0.00  0.00    -0.370 NA
ATOM      4  C   UNL     1      32.841  -9.844 -22.897  0.00  0.00    +0.167 C 
ATOM      5  C   UNL     1      32.464 -12.185 -22.719  0.00  0.00    +0.154 C 
ATOM      6  C   UNL     1      32.233 -10.900 -22.238  0.00  0.00    +0.118 C 
ATOM      7  C   UNL     1      33.284 -12.370 -23.826  0.00  0.00    +0.225 C 
ATOM      8  C   UNL     1      33.844 -11.248 -24.413  0.00  0.00    +0.275 C 
ENDROOT
BRANCH   4  12
ATOM      9 CL   UNL     1      31.038  -7.802 -22.995  0.00  0.00    -0.076 Cl
ATOM     10 CL   UNL     1      32.673  -8.180 -20.651  0.00  0.00    -0.076 Cl
ATOM     11 CL   UNL     1      33.929  -7.360 -23.116  0.00  0.00    -0.076 Cl
ATOM     12  C   UNL     1      32.641  -8.434 -22.440  0.00  0.00    +0.245 C 
ENDBRANCH   4  12
BRANCH   5  13
ATOM     13  O   UNL     1      31.889 -13.260 -22.104  0.00  0.00    -0.473 OA
ATOM     14  C   UNL     1      32.644 -13.895 -21.076  0.00  0.00    +0.252 C 
ENDBRANCH   5  13
BRANCH   8  15
ATOM     15  O   UNL     1      34.658 -11.375 -25.508  0.00  0.00    -0.450 OA
ATOM     16  C   UNL     1      35.516 -10.279 -25.800  0.00  0.00    +0.255 C 
ENDBRANCH   8  15
TORSDOF 3
ENDMDL
MODEL 4
REMARK VINA RESULT:      -6.7      9.404     11.037
REMARK  Name = 60203
REMARK  3 active torsions:
REMARK  status: ('A' for Active; 'I' for Inactive)
REMARK    1  A    between atoms: C_4  and  C_12
REMARK    2  A    between atoms: C_5  and  O_13
REMARK    3  A    between atoms: C_8  and  O_15
REMARK                            x       y       z     vdW  Elec       q    Type
REMARK                         _______ _______ _______ _____ _____    ______ ____
ROOT
ATOM      1 CL   UNL     1      34.677 -24.255 -12.767  0.00  0.00    -0.077 Cl
ATOM      2 CL   UNL     1      31.122 -22.958 -16.651  0.00  0.00    -0.095 Cl
ATOM      3  N   UNL     1      35.103 -23.258 -16.613  0.00  0.00    -0.370 NA
ATOM      4  C   UNL     1      35.322 -23.617 -15.328  0.00  0.00    +0.167 C 
ATOM      5  C   UNL     1      33.004 -23.589 -14.797  0.00  0.00    +0.154 C 
ATOM      6  C   UNL     1      34.318 -23.794 -14.390  0.00  0.00    +0.118 C 
ATOM      7  C   UNL     1      32.739 -23.220 -16.111  0.00  0.00    +0.225 C 
ATOM      8  C   UNL     1      33.814 -23.068 -16.971  0.00  0.00    +0.275 C 
ENDROOT
BRANCH   4  12
ATOM      9 CL   UNL     1      37.840 -22.956 -16.135  0.00  0.00    -0.076 Cl
ATOM     10 CL   UNL     1      37.242 -23.230 -13.328  0.00  0.00    -0.076 Cl
ATOM     11 CL   UNL     1      37.182 -25.576 -15.007  0.00  0.00    -0.076 Cl
ATOM     12  C   UNL     1      36.759 -23.818 -14.966  0.00  0.00    +0.245 C 
ENDBRANCH   4  12
BRANCH   5  13
ATOM     13  O   UNL     1      31.979 -23.752 -13.911  0.00  0.00    -0.473 OA
ATOM     14  C   UNL     1      31.394 -25.049 -13.833  0.00  0.00    +0.252 C 
ENDBRANCH   5  13
BRANCH   8  15
ATOM     15  O   UNL     1      33.607 -22.704 -18.277  0.00  0.00    -0.450 OA
ATOM     16  C   UNL     1      34.717 -22.150 -18.970  0.00  0.00    +0.255 C 
ENDBRANCH   8  15
TORSDOF 3
ENDMDL
MODEL 5
REMARK VINA RESULT:      -6.4      4.837      8.003
REMARK  Name = 60203
REMARK  3 active torsions:
REMARK  status: ('A' for Active; 'I' for Inactive)
REMARK    1  A    between atoms: C_4  and  C_12
REMARK    2  A    between atoms: C_5  and  O_13
REMARK    3  A    between atoms: C_8  and  O_15
REMARK                            x       y       z     vdW  Elec       q    Type
REMARK                         _______ _______ _______ _____ _____    ______ ____
ROOT
ATOM      1 CL   UNL     1      34.858  -9.604 -24.975  0.00  0.00    -0.077 Cl
ATOM      2 CL   UNL     1      32.192 -13.762 -22.738  0.00  0.00    -0.095 Cl
ATOM      3  N   UNL     1      32.125  -9.826 -22.069  0.00  0.00    -0.370 NA
ATOM      4  C   UNL     1      33.030  -9.395 -22.976  0.00  0.00    +0.167 C 
ATOM      5  C   UNL     1      33.460 -11.594 -23.772  0.00  0.00    +0.154 C 
ATOM      6  C   UNL     1      33.718 -10.229 -23.842  0.00  0.00    +0.118 C 
ATOM      7  C   UNL     1      32.536 -12.076 -22.852  0.00  0.00    +0.225 C 
ATOM      8  C   UNL     1      31.901 -11.158 -22.031  0.00  0.00    +0.275 C 
ENDROOT
BRANCH   4  12
ATOM      9 CL   UNL     1      32.727  -7.175 -21.425  0.00  0.00    -0.076 Cl
ATOM     10 CL   UNL     1      34.962  -7.386 -23.233  0.00  0.00    -0.076 Cl
ATOM     11 CL   UNL     1      32.300  -7.146 -24.321  0.00  0.00    -0.076 Cl
ATOM     12  C   UNL     1      33.252  -7.917 -22.991  0.00  0.00    +0.245 C 
ENDBRANCH   4  12
BRANCH   5  13
ATOM     13  O   UNL     1      34.112 -12.458 -24.605  0.00  0.00    -0.473 OA
ATOM     14  C   UNL     1      33.519 -12.697 -25.878  0.00  0.00    +0.252 C 
ENDBRANCH   5  13
BRANCH   8  15
ATOM     15  O   UNL     1      30.982 -11.581 -21.106  0.00  0.00    -0.450 OA
ATOM     16  C   UNL     1      31.070 -11.007 -19.808  0.00  0.00    +0.255 C 
ENDBRANCH   8  15
TORSDOF 3
ENDMDL
MODEL 6
REMARK VINA RESULT:      -6.4      2.103      3.042
REMARK  Name = 60203
REMARK  3 active torsions:
REMARK  status: ('A' for Active; 'I' for Inactive)
REMARK    1  A    between atoms: C_4  and  C_12
REMARK    2  A    between atoms: C_5  and  O_13
REMARK    3  A    between atoms: C_8  and  O_15
REMARK                            x       y       z     vdW  Elec       q    Type
REMARK                         _______ _______ _______ _____ _____    ______ ____
ROOT
ATOM      1 CL   UNL     1      32.655 -13.082 -21.462  0.00  0.00    -0.077 Cl
ATOM      2 CL   UNL     1      33.476 -13.796 -26.774  0.00  0.00    -0.095 Cl
ATOM      3  N   UNL     1      33.883 -16.213 -23.621  0.00  0.00    -0.370 NA
ATOM      4  C   UNL     1      33.511 -15.389 -22.616  0.00  0.00    +0.167 C 
ATOM      5  C   UNL     1      33.105 -13.569 -24.093  0.00  0.00    +0.154 C 
ATOM      6  C   UNL     1      33.118 -14.072 -22.796  0.00  0.00    +0.118 C 
ATOM      7  C   UNL     1      33.480 -14.386 -25.154  0.00  0.00    +0.225 C 
ATOM      8  C   UNL     1      33.857 -15.688 -24.867  0.00  0.00    +0.275 C 
ENDROOT
BRANCH   4  12
ATOM      9 CL   UNL     1      34.730 -15.127 -20.193  0.00  0.00    -0.076 Cl
ATOM     10 CL   UNL     1      31.986 -15.998 -20.349  0.00  0.00    -0.076 Cl
ATOM     11 CL   UNL     1      34.065 -17.732 -21.350  0.00  0.00    -0.076 Cl
ATOM     12  C   UNL     1      33.551 -16.001 -21.253  0.00  0.00    +0.245 C 
ENDBRANCH   4  12
BRANCH   5  13
ATOM     13  O   UNL     1      32.725 -12.279 -24.324  0.00  0.00    -0.473 OA
ATOM     14  C   UNL     1      33.751 -11.290 -24.301  0.00  0.00    +0.252 C 
ENDBRANCH   5  13
BRANCH   8  15
ATOM     15  O   UNL     1      34.237 -16.534 -25.876  0.00  0.00    -0.450 OA
ATOM     16  C   UNL     1      34.553 -17.870 -25.507  0.00  0.00    +0.255 C 
ENDBRANCH   8  15
TORSDOF 3
ENDMDL
MODEL 7
REMARK VINA RESULT:      -6.4     10.616     12.808
REMARK  Name = 60203
REMARK  3 active torsions:
REMARK  status: ('A' for Active; 'I' for Inactive)
REMARK    1  A    between atoms: C_4  and  C_12
REMARK    2  A    between atoms: C_5  and  O_13
REMARK    3  A    between atoms: C_8  and  O_15
REMARK                            x       y       z     vdW  Elec       q    Type
REMARK                         _______ _______ _______ _____ _____    ______ ____
ROOT
ATOM      1 CL   UNL     1      32.727 -23.283 -16.899  0.00  0.00    -0.077 Cl
ATOM      2 CL   UNL     1      37.116 -24.427 -13.927  0.00  0.00    -0.095 Cl
ATOM      3  N   UNL     1      33.210 -24.415 -13.097  0.00  0.00    -0.370 NA
ATOM      4  C   UNL     1      32.695 -24.036 -14.288  0.00  0.00    +0.167 C 
ATOM      5  C   UNL     1      34.840 -23.880 -15.304  0.00  0.00    +0.154 C 
ATOM      6  C   UNL     1      33.458 -23.760 -15.411  0.00  0.00    +0.118 C 
ATOM      7  C   UNL     1      35.407 -24.268 -14.096  0.00  0.00    +0.225 C 
ATOM      8  C   UNL     1      34.556 -24.521 -13.032  0.00  0.00    +0.275 C 
ENDROOT
BRANCH   4  12
ATOM      9 CL   UNL     1      30.506 -24.152 -12.669  0.00  0.00    -0.076 Cl
ATOM     10 CL   UNL     1      30.548 -22.356 -14.924  0.00  0.00    -0.076 Cl
ATOM     11 CL   UNL     1      30.503 -25.202 -15.401  0.00  0.00    -0.076 Cl
ATOM     12  C   UNL     1      31.204 -23.929 -14.324  0.00  0.00    +0.245 C 
ENDBRANCH   4  12
BRANCH   5  13
ATOM     13  O   UNL     1      35.635 -23.620 -16.383  0.00  0.00    -0.473 OA
ATOM     14  C   UNL     1      36.236 -22.330 -16.444  0.00  0.00    +0.252 C 
ENDBRANCH   5  13
BRANCH   8  15
ATOM     15  O   UNL     1      35.065 -24.905 -11.818  0.00  0.00    -0.450 OA
ATOM     16  C   UNL     1      35.701 -23.897 -11.043  0.00  0.00    +0.255 C 
ENDBRANCH   8  15
TORSDOF 3
ENDMDL
MODEL 8
REMARK VINA RESULT:      -6.2      1.227      3.458
REMARK  Name = 60203
REMARK  3 active torsions:
REMARK  status: ('A' for Active; 'I' for Inactive)
REMARK    1  A    between atoms: C_4  and  C_12
REMARK    2  A    between atoms: C_5  and  O_13
REMARK    3  A    between atoms: C_8  and  O_15
REMARK                            x       y       z     vdW  Elec       q    Type
REMARK                         _______ _______ _______ _____ _____    ______ ____
ROOT
ATOM      1 CL   UNL     1      34.727 -17.863 -25.340  0.00  0.00    -0.077 Cl
ATOM      2 CL   UNL     1      33.594 -12.841 -23.636  0.00  0.00    -0.095 Cl
ATOM      3  N   UNL     1      34.398 -16.242 -21.703  0.00  0.00    -0.370 NA
ATOM      4  C   UNL     1      34.580 -17.090 -22.739  0.00  0.00    +0.167 C 
ATOM      5  C   UNL     1      34.171 -15.396 -24.357  0.00  0.00    +0.154 C 
ATOM      6  C   UNL     1      34.479 -16.722 -24.071  0.00  0.00    +0.118 C 
ATOM      7  C   UNL     1      33.977 -14.493 -23.318  0.00  0.00    +0.225 C 
ATOM      8  C   UNL     1      34.100 -14.962 -22.020  0.00  0.00    +0.275 C 
ENDROOT
BRANCH   4  12
ATOM      9 CL   UNL     1      33.729 -19.113 -21.123  0.00  0.00    -0.076 Cl
ATOM     10 CL   UNL     1      34.886 -19.703 -23.697  0.00  0.00    -0.076 Cl
ATOM     11 CL   UNL     1      36.563 -18.586 -21.631  0.00  0.00    -0.076 Cl
ATOM     12  C   UNL     1      34.907 -18.497 -22.352  0.00  0.00    +0.245 C 
ENDBRANCH   4  12
BRANCH   5  13
ATOM     13  O   UNL     1      34.061 -14.982 -25.654  0.00  0.00    -0.473 OA
ATOM     14  C   UNL     1      32.764 -15.038 -26.241  0.00  0.00    +0.252 C 
ENDBRANCH   5  13
BRANCH   8  15
ATOM     15  O   UNL     1      33.918 -14.113 -20.960  0.00  0.00    -0.450 OA
ATOM     16  C   UNL     1      32.605 -14.039 -20.417  0.00  0.00    +0.255 C 
ENDBRANCH   8  15
TORSDOF 3
ENDMDL
MODEL 9
REMARK VINA RESULT:      -6.2      8.931     10.740
REMARK  Name = 60203
REMARK  3 active torsions:
REMARK  status: ('A' for Active; 'I' for Inactive)
REMARK    1  A    between atoms: C_4  and  C_12
REMARK    2  A    between atoms: C_5  and  O_13
REMARK    3  A    between atoms: C_8  and  O_15
REMARK                            x       y       z     vdW  Elec       q    Type
REMARK                         _______ _______ _______ _____ _____    ______ ____
ROOT
ATOM      1 CL   UNL     1      31.588 -23.603 -13.496  0.00  0.00    -0.077 Cl
ATOM      2 CL   UNL     1      35.463 -22.759 -17.194  0.00  0.00    -0.095 Cl
ATOM      3  N   UNL     1      31.484 -22.985 -17.443  0.00  0.00    -0.370 NA
ATOM      4  C   UNL     1      31.158 -23.212 -16.151  0.00  0.00    +0.167 C 
ATOM      5  C   UNL     1      33.428 -23.173 -15.443  0.00  0.00    +0.154 C 
ATOM      6  C   UNL     1      32.082 -23.314 -15.123  0.00  0.00    +0.118 C 
ATOM      7  C   UNL     1      33.803 -22.938 -16.761  0.00  0.00    +0.225 C 
ATOM      8  C   UNL     1      32.802 -22.853 -17.714  0.00  0.00    +0.275 C 
ENDROOT
BRANCH   4  12
ATOM      9 CL   UNL     1      29.114 -22.038 -14.782  0.00  0.00    -0.076 Cl
ATOM     10 CL   UNL     1      28.625 -23.273 -17.341  0.00  0.00    -0.076 Cl
ATOM     11 CL   UNL     1      29.340 -24.939 -15.096  0.00  0.00    -0.076 Cl
ATOM     12  C   UNL     1      29.693 -23.351 -15.886  0.00  0.00    +0.245 C 
ENDBRANCH   4  12
BRANCH   5  13
ATOM     13  O   UNL     1      34.378 -23.264 -14.466  0.00  0.00    -0.473 OA
ATOM     14  C   UNL     1      34.940 -24.553 -14.231  0.00  0.00    +0.252 C 
ENDBRANCH   5  13
BRANCH   8  15
ATOM     15  O   UNL     1      33.118 -22.625 -19.029  0.00  0.00    -0.450 OA
ATOM     16  C   UNL     1      33.155 -21.268 -19.451  0.00  0.00    +0.255 C 
ENDBRANCH   8  15
TORSDOF 3
ENDMDL
