MODEL 1
REMARK VINA RESULT:     -13.6      0.000      0.000
REMARK  Name = 24821094
REMARK  5 active torsions:
REMARK  status: ('A' for Active; 'I' for Inactive)
REMARK    1  A    between atoms: N_1  and  C_12
REMARK    2  A    between atoms: C_7  and  C_20
REMARK    3  A    between atoms: C_17  and  C_18
REMARK    4  A    between atoms: C_25  and  O_26
REMARK    5  A    between atoms: O_26  and  C_27
REMARK                            x       y       z     vdW  Elec       q    Type
REMARK                         _______ _______ _______ _____ _____    ______ ____
ROOT
ATOM      1  N   UNL     1      33.835 -15.865 -22.093  0.00  0.00    -0.198 N 
ATOM      2  N   UNL     1      33.916 -16.791 -21.120  0.00  0.00    -0.181 NA
ATOM      3  N   UNL     1      34.105 -15.668 -24.490  0.00  0.00    -0.231 NA
ATOM      4  N   UNL     1      34.716 -17.799 -25.507  0.00  0.00    -0.234 NA
ATOM      5  C   UNL     1      34.107 -16.352 -23.336  0.00  0.00    +0.137 C 
ATOM      6  C   UNL     1      34.387 -17.697 -23.165  0.00  0.00    +0.150 C 
ATOM      7  C   UNL     1      34.252 -17.905 -21.780  0.00  0.00    +0.090 C 
ATOM      8  C   UNL     1      34.700 -18.427 -24.307  0.00  0.00    +0.112 C 
ATOM      9  C   UNL     1      34.422 -16.477 -25.524  0.00  0.00    +0.252 C 
ATOM     10  N   UNL     1      34.997 -19.800 -24.236  0.00  0.00    -0.346 N 
ATOM     11  H   UNL     1      35.215 -20.299 -25.057  0.00  0.00    +0.143 HD
ATOM     12  H   UNL     1      34.985 -20.263 -23.368  0.00  0.00    +0.143 HD
ENDROOT
BRANCH   1  15
ATOM     13  O   UNL     1      32.606 -10.017 -22.783  0.00  0.00    -0.270 OA
ATOM     14  N   UNL     1      32.465 -12.323 -22.513  0.00  0.00    -0.274 N 
ATOM     15  C   UNL     1      33.469 -14.437 -21.735  0.00  0.00    +0.117 C 
ATOM     16  C   UNL     1      32.584 -14.370 -20.474  0.00  0.00    +0.025 C 
ATOM     17  C   UNL     1      32.789 -13.703 -22.904  0.00  0.00    +0.115 C 
ATOM     18  C   UNL     1      32.200 -12.925 -20.146  0.00  0.00    +0.023 C 
ATOM     19  C   UNL     1      31.577 -12.226 -21.353  0.00  0.00    +0.094 C 
ATOM     20  C   UNL     1      32.907 -11.159 -23.135  0.00  0.00    +0.249 C 
BRANCH  20  21
ATOM     21  C   UNL     1      33.807 -11.299 -24.298  0.00  0.00    +0.058 C 
ATOM     22  C   UNL     1      34.612 -10.284 -24.616  0.00  0.00    +0.005 C 
ENDBRANCH  20  21
ENDBRANCH   1  15
BRANCH   7  23
ATOM     23  C   UNL     1      34.434 -19.139 -21.057  0.00  0.00    +0.016 C 
ATOM     24  C   UNL     1      35.720 -19.590 -20.761  0.00  0.00    +0.004 C 
ATOM     25  C   UNL     1      33.325 -19.881 -20.653  0.00  0.00    +0.004 C 
ATOM     26  C   UNL     1      35.896 -20.784 -20.061  0.00  0.00    +0.038 C 
ATOM     27  C   UNL     1      33.501 -21.075 -19.952  0.00  0.00    +0.038 C 
ATOM     28  C   UNL     1      34.787 -21.525 -19.657  0.00  0.00    +0.145 C 
BRANCH  28  29
ATOM     29  O   UNL     1      34.959 -22.692 -18.976  0.00  0.00    -0.453 OA
BRANCH  29  30
ATOM     30  C   UNL     1      34.312 -22.829 -17.760  0.00  0.00    +0.145 C 
ATOM     31  C   UNL     1      35.044 -22.792 -16.573  0.00  0.00    +0.037 C 
ATOM     32  C   UNL     1      32.929 -23.007 -17.720  0.00  0.00    +0.037 C 
ATOM     33  C   UNL     1      34.393 -22.931 -15.347  0.00  0.00    +0.003 C 
ATOM     34  C   UNL     1      32.278 -23.145 -16.495  0.00  0.00    +0.003 C 
ATOM     35  C   UNL     1      33.010 -23.108 -15.308  0.00  0.00    +0.000 C 
ENDBRANCH  29  30
ENDBRANCH  28  29
ENDBRANCH   7  23
TORSDOF 5
ENDMDL
MODEL 2
REMARK VINA RESULT:     -13.4      0.626      1.358
REMARK  Name = 24821094
REMARK  5 active torsions:
REMARK  status: ('A' for Active; 'I' for Inactive)
REMARK    1  A    between atoms: N_1  and  C_12
REMARK    2  A    between atoms: C_7  and  C_20
REMARK    3  A    between atoms: C_17  and  C_18
REMARK    4  A    between atoms: C_25  and  O_26
REMARK    5  A    between atoms: O_26  and  C_27
REMARK                            x       y       z     vdW  Elec       q    Type
REMARK                         _______ _______ _______ _____ _____    ______ ____
ROOT
ATOM      1  N   UNL     1      33.837 -15.414 -22.223  0.00  0.00    -0.198 N 
ATOM      2  N   UNL     1      34.118 -16.311 -21.259  0.00  0.00    -0.181 NA
ATOM      3  N   UNL     1      33.751 -15.253 -24.636  0.00  0.00    -0.231 NA
ATOM      4  N   UNL     1      34.356 -17.362 -25.703  0.00  0.00    -0.234 NA
ATOM      5  C   UNL     1      33.964 -15.910 -23.485  0.00  0.00    +0.137 C 
ATOM      6  C   UNL     1      34.355 -17.230 -23.339  0.00  0.00    +0.150 C 
ATOM      7  C   UNL     1      34.432 -17.415 -21.946  0.00  0.00    +0.090 C 
ATOM      8  C   UNL     1      34.552 -17.963 -24.505  0.00  0.00    +0.112 C 
ATOM      9  C   UNL     1      33.973 -16.063 -25.695  0.00  0.00    +0.252 C 
ATOM     10  N   UNL     1      34.949 -19.312 -24.460  0.00  0.00    -0.346 N 
ATOM     11  H   UNL     1      35.082 -19.813 -25.297  0.00  0.00    +0.143 HD
ATOM     12  H   UNL     1      35.092 -19.755 -23.593  0.00  0.00    +0.143 HD
ENDROOT
BRANCH   1  15
ATOM     13  O   UNL     1      32.497  -9.576 -22.779  0.00  0.00    -0.270 OA
ATOM     14  N   UNL     1      32.401 -11.891 -22.580  0.00  0.00    -0.274 N 
ATOM     15  C   UNL     1      33.429 -14.005 -21.835  0.00  0.00    +0.117 C 
ATOM     16  C   UNL     1      32.508 -13.995 -20.598  0.00  0.00    +0.025 C 
ATOM     17  C   UNL     1      32.767 -13.252 -23.001  0.00  0.00    +0.115 C 
ATOM     18  C   UNL     1      32.083 -12.569 -20.240  0.00  0.00    +0.023 C 
ATOM     19  C   UNL     1      31.478 -11.848 -21.443  0.00  0.00    +0.094 C 
ATOM     20  C   UNL     1      32.834 -10.700 -23.155  0.00  0.00    +0.249 C 
BRANCH  20  21
ATOM     21  C   UNL     1      33.769 -10.787 -24.295  0.00  0.00    +0.058 C 
ATOM     22  C   UNL     1      34.748  -9.886 -24.395  0.00  0.00    +0.005 C 
ENDBRANCH  20  21
ENDBRANCH   1  15
BRANCH   7  23
ATOM     23  C   UNL     1      34.798 -18.618 -21.241  0.00  0.00    +0.016 C 
ATOM     24  C   UNL     1      33.811 -19.516 -20.838  0.00  0.00    +0.004 C 
ATOM     25  C   UNL     1      36.139 -18.884 -20.965  0.00  0.00    +0.004 C 
ATOM     26  C   UNL     1      34.165 -20.681 -20.156  0.00  0.00    +0.038 C 
ATOM     27  C   UNL     1      36.493 -20.050 -20.283  0.00  0.00    +0.038 C 
ATOM     28  C   UNL     1      35.505 -20.947 -19.879  0.00  0.00    +0.145 C 
BRANCH  28  29
ATOM     29  O   UNL     1      35.850 -22.082 -19.211  0.00  0.00    -0.453 OA
BRANCH  29  30
ATOM     30  C   UNL     1      35.090 -22.438 -18.110  0.00  0.00    +0.145 C 
ATOM     31  C   UNL     1      33.747 -22.780 -18.272  0.00  0.00    +0.037 C 
ATOM     32  C   UNL     1      35.665 -22.453 -16.839  0.00  0.00    +0.037 C 
ATOM     33  C   UNL     1      32.980 -23.138 -17.162  0.00  0.00    +0.003 C 
ATOM     34  C   UNL     1      34.899 -22.811 -15.731  0.00  0.00    +0.003 C 
ATOM     35  C   UNL     1      33.556 -23.153 -15.892  0.00  0.00    +0.000 C 
ENDBRANCH  29  30
ENDBRANCH  28  29
ENDBRANCH   7  23
TORSDOF 5
ENDMDL
MODEL 3
REMARK VINA RESULT:     -11.5      1.904      9.643
REMARK  Name = 24821094
REMARK  5 active torsions:
REMARK  status: ('A' for Active; 'I' for Inactive)
REMARK    1  A    between atoms: N_1  and  C_12
REMARK    2  A    between atoms: C_7  and  C_20
REMARK    3  A    between atoms: C_17  and  C_18
REMARK    4  A    between atoms: C_25  and  O_26
REMARK    5  A    between atoms: O_26  and  C_27
REMARK                            x       y       z     vdW  Elec       q    Type
REMARK                         _______ _______ _______ _____ _____    ______ ____
ROOT
ATOM      1  N   UNL     1      34.618 -17.365 -21.805  0.00  0.00    -0.198 N 
ATOM      2  N   UNL     1      34.039 -16.322 -21.183  0.00  0.00    -0.181 NA
ATOM      3  N   UNL     1      35.080 -18.162 -24.043  0.00  0.00    -0.231 NA
ATOM      4  N   UNL     1      34.251 -16.619 -25.740  0.00  0.00    -0.234 NA
ATOM      5  C   UNL     1      34.585 -17.277 -23.165  0.00  0.00    +0.137 C 
ATOM      6  C   UNL     1      33.936 -16.089 -23.454  0.00  0.00    +0.150 C 
ATOM      7  C   UNL     1      33.625 -15.548 -22.193  0.00  0.00    +0.090 C 
ATOM      8  C   UNL     1      33.775 -15.770 -24.798  0.00  0.00    +0.112 C 
ATOM      9  C   UNL     1      34.865 -17.747 -25.310  0.00  0.00    +0.252 C 
ATOM     10  N   UNL     1      33.130 -14.583 -25.194  0.00  0.00    -0.346 N 
ATOM     11  H   UNL     1      33.027 -14.376 -26.151  0.00  0.00    +0.143 HD
ATOM     12  H   UNL     1      32.783 -13.961 -24.515  0.00  0.00    +0.143 HD
ENDROOT
BRANCH   1  15
ATOM     13  O   UNL     1      35.030 -22.532 -18.754  0.00  0.00    -0.270 OA
ATOM     14  N   UNL     1      35.123 -20.875 -20.383  0.00  0.00    -0.274 N 
ATOM     15  C   UNL     1      35.223 -18.484 -20.979  0.00  0.00    +0.117 C 
ATOM     16  C   UNL     1      36.737 -18.631 -21.233  0.00  0.00    +0.025 C 
ATOM     17  C   UNL     1      34.509 -19.827 -21.212  0.00  0.00    +0.115 C 
ATOM     18  C   UNL     1      37.323 -19.784 -20.415  0.00  0.00    +0.023 C 
ATOM     19  C   UNL     1      36.549 -21.080 -20.643  0.00  0.00    +0.094 C 
ATOM     20  C   UNL     1      34.482 -21.655 -19.425  0.00  0.00    +0.249 C 
BRANCH  20  21
ATOM     21  C   UNL     1      33.045 -21.412 -19.188  0.00  0.00    +0.058 C 
ATOM     22  C   UNL     1      32.419 -22.116 -18.243  0.00  0.00    +0.005 C 
ENDBRANCH  20  21
ENDBRANCH   1  15
BRANCH   7  23
ATOM     23  C   UNL     1      32.943 -14.309 -21.915  0.00  0.00    +0.016 C 
ATOM     24  C   UNL     1      32.628 -13.968 -20.600  0.00  0.00    +0.004 C 
ATOM     25  C   UNL     1      32.599 -13.452 -22.960  0.00  0.00    +0.004 C 
ATOM     26  C   UNL     1      31.968 -12.769 -20.331  0.00  0.00    +0.038 C 
ATOM     27  C   UNL     1      31.939 -12.252 -22.690  0.00  0.00    +0.038 C 
ATOM     28  C   UNL     1      31.624 -11.912 -21.375  0.00  0.00    +0.145 C 
BRANCH  28  29
ATOM     29  O   UNL     1      30.977 -10.743 -21.112  0.00  0.00    -0.453 OA
BRANCH  29  30
ATOM     30  C   UNL     1      31.630  -9.562 -21.423  0.00  0.00    +0.145 C 
ATOM     31  C   UNL     1      32.319  -8.865 -20.430  0.00  0.00    +0.037 C 
ATOM     32  C   UNL     1      31.597  -9.068 -22.727  0.00  0.00    +0.037 C 
ATOM     33  C   UNL     1      32.976  -7.674 -20.742  0.00  0.00    +0.003 C 
ATOM     34  C   UNL     1      32.254  -7.878 -23.040  0.00  0.00    +0.003 C 
ATOM     35  C   UNL     1      32.943  -7.181 -22.047  0.00  0.00    +0.000 C 
ENDBRANCH  29  30
ENDBRANCH  28  29
ENDBRANCH   7  23
TORSDOF 5
ENDMDL
MODEL 4
REMARK VINA RESULT:     -11.2      5.655     12.974
REMARK  Name = 24821094
REMARK  5 active torsions:
REMARK  status: ('A' for Active; 'I' for Inactive)
REMARK    1  A    between atoms: N_1  and  C_12
REMARK    2  A    between atoms: C_7  and  C_20
REMARK    3  A    between atoms: C_17  and  C_18
REMARK    4  A    between atoms: C_25  and  O_26
REMARK    5  A    between atoms: O_26  and  C_27
REMARK                            x       y       z     vdW  Elec       q    Type
REMARK                         _______ _______ _______ _____ _____    ______ ____
ROOT
ATOM      1  N   UNL     1      32.344 -11.245 -22.600  0.00  0.00    -0.198 N 
ATOM      2  N   UNL     1      32.512 -10.317 -23.560  0.00  0.00    -0.181 NA
ATOM      3  N   UNL     1      31.908 -11.394 -20.224  0.00  0.00    -0.231 NA
ATOM      4  N   UNL     1      31.699  -9.188 -19.206  0.00  0.00    -0.234 NA
ATOM      5  C   UNL     1      32.112 -10.718 -21.365  0.00  0.00    +0.137 C 
ATOM      6  C   UNL     1      32.128  -9.344 -21.528  0.00  0.00    +0.150 C 
ATOM      7  C   UNL     1      32.379  -9.161 -22.901  0.00  0.00    +0.090 C 
ATOM      8  C   UNL     1      31.911  -8.571 -20.392  0.00  0.00    +0.112 C 
ATOM      9  C   UNL     1      31.711 -10.542 -19.195  0.00  0.00    +0.252 C 
ATOM     10  N   UNL     1      31.907  -7.165 -20.456  0.00  0.00    -0.346 N 
ATOM     11  H   UNL     1      31.751  -6.637 -19.640  0.00  0.00    +0.143 HD
ATOM     12  H   UNL     1      32.059  -6.710 -21.316  0.00  0.00    +0.143 HD
ENDROOT
BRANCH   1  15
ATOM     13  O   UNL     1      33.202 -16.202 -25.898  0.00  0.00    -0.270 OA
ATOM     14  N   UNL     1      33.446 -14.411 -24.435  0.00  0.00    -0.274 N 
ATOM     15  C   UNL     1      32.426 -12.717 -22.962  0.00  0.00    +0.117 C 
ATOM     16  C   UNL     1      32.788 -13.587 -21.742  0.00  0.00    +0.025 C 
ATOM     17  C   UNL     1      33.411 -12.976 -24.116  0.00  0.00    +0.115 C 
ATOM     18  C   UNL     1      32.896 -15.064 -22.132  0.00  0.00    +0.023 C 
ATOM     19  C   UNL     1      33.845 -15.261 -23.312  0.00  0.00    +0.094 C 
ATOM     20  C   UNL     1      33.153 -14.994 -25.665  0.00  0.00    +0.249 C 
BRANCH  20  21
ATOM     21  C   UNL     1      32.748 -14.102 -26.770  0.00  0.00    +0.058 C 
ATOM     22  C   UNL     1      33.691 -13.436 -27.440  0.00  0.00    +0.005 C 
ENDBRANCH  20  21
ENDBRANCH   1  15
BRANCH   7  23
ATOM     23  C   UNL     1      32.497  -7.912 -23.611  0.00  0.00    +0.016 C 
ATOM     24  C   UNL     1      33.751  -7.461 -24.022  0.00  0.00    +0.004 C 
ATOM     25  C   UNL     1      31.358  -7.157 -23.890  0.00  0.00    +0.004 C 
ATOM     26  C   UNL     1      33.865  -6.253 -24.710  0.00  0.00    +0.038 C 
ATOM     27  C   UNL     1      31.472  -5.950 -24.579  0.00  0.00    +0.038 C 
ATOM     28  C   UNL     1      32.726  -5.498 -24.989  0.00  0.00    +0.145 C 
BRANCH  28  29
ATOM     29  O   UNL     1      32.838  -4.318 -25.658  0.00  0.00    -0.453 OA
BRANCH  29  30
ATOM     30  C   UNL     1      33.350  -4.352 -26.944  0.00  0.00    +0.145 C 
ATOM     31  C   UNL     1      32.485  -4.414 -28.037  0.00  0.00    +0.037 C 
ATOM     32  C   UNL     1      34.730  -4.326 -27.148  0.00  0.00    +0.037 C 
ATOM     33  C   UNL     1      33.000  -4.450 -29.333  0.00  0.00    +0.003 C 
ATOM     34  C   UNL     1      35.245  -4.362 -28.443  0.00  0.00    +0.003 C 
ATOM     35  C   UNL     1      34.380  -4.424 -29.535  0.00  0.00    +0.000 C 
ENDBRANCH  29  30
ENDBRANCH  28  29
ENDBRANCH   7  23
TORSDOF 5
ENDMDL
MODEL 5
REMARK VINA RESULT:     -11.0      5.271     12.746
REMARK  Name = 24821094
REMARK  5 active torsions:
REMARK  status: ('A' for Active; 'I' for Inactive)
REMARK    1  A    between atoms: N_1  and  C_12
REMARK    2  A    between atoms: C_7  and  C_20
REMARK    3  A    between atoms: C_17  and  C_18
REMARK    4  A    between atoms: C_25  and  O_26
REMARK    5  A    between atoms: O_26  and  C_27
REMARK                            x       y       z     vdW  Elec       q    Type
REMARK                         _______ _______ _______ _____ _____    ______ ____
ROOT
ATOM      1  N   UNL     1      32.523 -11.784 -22.425  0.00  0.00    -0.198 N 
ATOM      2  N   UNL     1      32.724 -10.843 -23.366  0.00  0.00    -0.181 NA
ATOM      3  N   UNL     1      31.893 -11.970 -20.096  0.00  0.00    -0.231 NA
ATOM      4  N   UNL     1      31.483  -9.784 -19.095  0.00  0.00    -0.234 NA
ATOM      5  C   UNL     1      32.158 -11.278 -21.214  0.00  0.00    +0.137 C 
ATOM      6  C   UNL     1      32.117  -9.903 -21.372  0.00  0.00    +0.150 C 
ATOM      7  C   UNL     1      32.475  -9.699 -22.718  0.00  0.00    +0.090 C 
ATOM      8  C   UNL     1      31.764  -9.149 -20.258  0.00  0.00    +0.112 C 
ATOM      9  C   UNL     1      31.564 -11.136 -19.085  0.00  0.00    +0.252 C 
ATOM     10  N   UNL     1      31.693  -7.745 -20.319  0.00  0.00    -0.346 N 
ATOM     11  H   UNL     1      31.440  -7.231 -19.518  0.00  0.00    +0.143 HD
ATOM     12  H   UNL     1      31.894  -7.278 -21.162  0.00  0.00    +0.143 HD
ENDROOT
BRANCH   1  15
ATOM     13  O   UNL     1      33.515 -16.696 -25.753  0.00  0.00    -0.270 OA
ATOM     14  N   UNL     1      33.732 -14.861 -24.340  0.00  0.00    -0.274 N 
ATOM     15  C   UNL     1      32.711 -13.247 -22.781  0.00  0.00    +0.117 C 
ATOM     16  C   UNL     1      33.284 -14.055 -21.599  0.00  0.00    +0.025 C 
ATOM     17  C   UNL     1      33.589 -13.431 -24.031  0.00  0.00    +0.115 C 
ATOM     18  C   UNL     1      33.495 -15.521 -21.986  0.00  0.00    +0.023 C 
ATOM     19  C   UNL     1      34.329 -15.648 -23.259  0.00  0.00    +0.094 C 
ATOM     20  C   UNL     1      33.371 -15.493 -25.527  0.00  0.00    +0.249 C 
BRANCH  20  21
ATOM     21  C   UNL     1      32.765 -14.666 -26.589  0.00  0.00    +0.058 C 
ATOM     22  C   UNL     1      33.514 -13.739 -27.190  0.00  0.00    +0.005 C 
ENDBRANCH  20  21
ENDBRANCH   1  15
BRANCH   7  23
ATOM     23  C   UNL     1      32.589  -8.442 -23.413  0.00  0.00    +0.016 C 
ATOM     24  C   UNL     1      31.439  -7.758 -23.808  0.00  0.00    +0.004 C 
ATOM     25  C   UNL     1      33.847  -7.909 -23.690  0.00  0.00    +0.004 C 
ATOM     26  C   UNL     1      31.549  -6.541 -24.481  0.00  0.00    +0.038 C 
ATOM     27  C   UNL     1      33.957  -6.691 -24.363  0.00  0.00    +0.038 C 
ATOM     28  C   UNL     1      32.808  -6.008 -24.758  0.00  0.00    +0.145 C 
BRANCH  28  29
ATOM     29  O   UNL     1      32.915  -4.822 -25.417  0.00  0.00    -0.453 OA
BRANCH  29  30
ATOM     30  C   UNL     1      32.027  -3.814 -25.079  0.00  0.00    +0.145 C 
ATOM     31  C   UNL     1      31.742  -3.558 -23.738  0.00  0.00    +0.037 C 
ATOM     32  C   UNL     1      31.418  -3.056 -26.079  0.00  0.00    +0.037 C 
ATOM     33  C   UNL     1      30.846  -2.543 -23.397  0.00  0.00    +0.003 C 
ATOM     34  C   UNL     1      30.524  -2.042 -25.739  0.00  0.00    +0.003 C 
ATOM     35  C   UNL     1      30.238  -1.786 -24.398  0.00  0.00    +0.000 C 
ENDBRANCH  29  30
ENDBRANCH  28  29
ENDBRANCH   7  23
TORSDOF 5
ENDMDL
MODEL 6
REMARK VINA RESULT:     -10.9      4.860     11.314
REMARK  Name = 24821094
REMARK  5 active torsions:
REMARK  status: ('A' for Active; 'I' for Inactive)
REMARK    1  A    between atoms: N_1  and  C_12
REMARK    2  A    between atoms: C_7  and  C_20
REMARK    3  A    between atoms: C_17  and  C_18
REMARK    4  A    between atoms: C_25  and  O_26
REMARK    5  A    between atoms: O_26  and  C_27
REMARK                            x       y       z     vdW  Elec       q    Type
REMARK                         _______ _______ _______ _____ _____    ______ ____
ROOT
ATOM      1  N   UNL     1      34.800 -23.744 -15.393  0.00  0.00    -0.198 N 
ATOM      2  N   UNL     1      35.454 -23.148 -16.407  0.00  0.00    -0.181 NA
ATOM      3  N   UNL     1      32.538 -24.175 -14.648  0.00  0.00    -0.231 NA
ATOM      4  N   UNL     1      30.888 -23.259 -16.194  0.00  0.00    -0.234 NA
ATOM      5  C   UNL     1      33.443 -23.675 -15.502  0.00  0.00    +0.137 C 
ATOM      6  C   UNL     1      33.190 -22.984 -16.674  0.00  0.00    +0.150 C 
ATOM      7  C   UNL     1      34.467 -22.687 -17.184  0.00  0.00    +0.090 C 
ATOM      8  C   UNL     1      31.856 -22.781 -17.012  0.00  0.00    +0.112 C 
ATOM      9  C   UNL     1      31.283 -23.918 -15.078  0.00  0.00    +0.252 C 
ATOM     10  N   UNL     1      31.497 -22.091 -18.185  0.00  0.00    -0.346 N 
ATOM     11  H   UNL     1      30.546 -21.959 -18.406  0.00  0.00    +0.143 HD
ATOM     12  H   UNL     1      32.195 -21.742 -18.784  0.00  0.00    +0.143 HD
ENDROOT
BRANCH   1  15
ATOM     13  O   UNL     1      39.452 -26.177 -12.457  0.00  0.00    -0.270 OA
ATOM     14  N   UNL     1      37.814 -24.737 -13.265  0.00  0.00    -0.274 N 
ATOM     15  C   UNL     1      35.591 -24.402 -14.278  0.00  0.00    +0.117 C 
ATOM     16  C   UNL     1      35.033 -24.038 -12.888  0.00  0.00    +0.025 C 
ATOM     17  C   UNL     1      37.091 -24.068 -14.357  0.00  0.00    +0.115 C 
ATOM     18  C   UNL     1      35.862 -24.687 -11.775  0.00  0.00    +0.023 C 
ATOM     19  C   UNL     1      37.347 -24.367 -11.927  0.00  0.00    +0.094 C 
ATOM     20  C   UNL     1      38.863 -25.643 -13.398  0.00  0.00    +0.249 C 
BRANCH  20  21
ATOM     21  C   UNL     1      39.299 -25.994 -14.764  0.00  0.00    +0.058 C 
ATOM     22  C   UNL     1      40.422 -25.455 -15.241  0.00  0.00    +0.005 C 
ENDBRANCH  20  21
ENDBRANCH   1  15
BRANCH   7  23
ATOM     23  C   UNL     1      34.784 -21.974 -18.397  0.00  0.00    +0.016 C 
ATOM     24  C   UNL     1      33.762 -21.581 -19.260  0.00  0.00    +0.004 C 
ATOM     25  C   UNL     1      36.111 -21.677 -18.705  0.00  0.00    +0.004 C 
ATOM     26  C   UNL     1      34.067 -20.891 -20.433  0.00  0.00    +0.038 C 
ATOM     27  C   UNL     1      36.417 -20.986 -19.878  0.00  0.00    +0.038 C 
ATOM     28  C   UNL     1      35.395 -20.593 -20.742  0.00  0.00    +0.145 C 
BRANCH  28  29
ATOM     29  O   UNL     1      35.693 -19.922 -21.888  0.00  0.00    -0.453 OA
BRANCH  29  30
ATOM     30  C   UNL     1      35.303 -18.597 -21.979  0.00  0.00    +0.145 C 
ATOM     31  C   UNL     1      34.960 -18.054 -23.217  0.00  0.00    +0.037 C 
ATOM     32  C   UNL     1      35.254 -17.803 -20.832  0.00  0.00    +0.037 C 
ATOM     33  C   UNL     1      34.568 -16.718 -23.309  0.00  0.00    +0.003 C 
ATOM     34  C   UNL     1      34.862 -16.469 -20.923  0.00  0.00    +0.003 C 
ATOM     35  C   UNL     1      34.519 -15.926 -22.162  0.00  0.00    +0.000 C 
ENDBRANCH  29  30
ENDBRANCH  28  29
ENDBRANCH   7  23
TORSDOF 5
ENDMDL
MODEL 7
REMARK VINA RESULT:     -10.8      4.686     12.664
REMARK  Name = 24821094
REMARK  5 active torsions:
REMARK  status: ('A' for Active; 'I' for Inactive)
REMARK    1  A    between atoms: N_1  and  C_12
REMARK    2  A    between atoms: C_7  and  C_20
REMARK    3  A    between atoms: C_17  and  C_18
REMARK    4  A    between atoms: C_25  and  O_26
REMARK    5  A    between atoms: O_26  and  C_27
REMARK                            x       y       z     vdW  Elec       q    Type
REMARK                         _______ _______ _______ _____ _____    ______ ____
ROOT
ATOM      1  N   UNL     1      32.997 -11.996 -23.740  0.00  0.00    -0.198 N 
ATOM      2  N   UNL     1      32.919 -10.714 -24.141  0.00  0.00    -0.181 NA
ATOM      3  N   UNL     1      32.567 -13.354 -21.782  0.00  0.00    -0.231 NA
ATOM      4  N   UNL     1      31.723 -12.017 -19.925  0.00  0.00    -0.234 NA
ATOM      5  C   UNL     1      32.598 -12.191 -22.451  0.00  0.00    +0.137 C 
ATOM      6  C   UNL     1      32.231 -10.945 -21.973  0.00  0.00    +0.150 C 
ATOM      7  C   UNL     1      32.451 -10.079 -23.060  0.00  0.00    +0.090 C 
ATOM      8  C   UNL     1      31.780 -10.880 -20.659  0.00  0.00    +0.112 C 
ATOM      9  C   UNL     1      32.115 -13.167 -20.523  0.00  0.00    +0.252 C 
ATOM     10  N   UNL     1      31.382  -9.660 -20.083  0.00  0.00    -0.346 N 
ATOM     11  H   UNL     1      31.065  -9.637 -19.151  0.00  0.00    +0.143 HD
ATOM     12  H   UNL     1      31.419  -8.830 -20.611  0.00  0.00    +0.143 HD
ENDROOT
BRANCH   1  15
ATOM     13  O   UNL     1      34.859 -17.335 -25.791  0.00  0.00    -0.270 OA
ATOM     14  N   UNL     1      33.603 -15.457 -25.240  0.00  0.00    -0.274 N 
ATOM     15  C   UNL     1      33.498 -13.052 -24.707  0.00  0.00    +0.117 C 
ATOM     16  C   UNL     1      33.036 -12.772 -26.151  0.00  0.00    +0.025 C 
ATOM     17  C   UNL     1      33.086 -14.471 -24.279  0.00  0.00    +0.115 C 
ATOM     18  C   UNL     1      33.525 -13.862 -27.107  0.00  0.00    +0.023 C 
ATOM     19  C   UNL     1      33.134 -15.254 -26.613  0.00  0.00    +0.094 C 
ATOM     20  C   UNL     1      34.454 -16.523 -24.959  0.00  0.00    +0.249 C 
BRANCH  20  21
ATOM     21  C   UNL     1      34.908 -16.689 -23.564  0.00  0.00    +0.058 C 
ATOM     22  C   UNL     1      35.217 -17.912 -23.128  0.00  0.00    +0.005 C 
ENDBRANCH  20  21
ENDBRANCH   1  15
BRANCH   7  23
ATOM     23  C   UNL     1      32.229  -8.655 -23.106  0.00  0.00    +0.016 C 
ATOM     24  C   UNL     1      31.048  -8.151 -23.650  0.00  0.00    +0.004 C 
ATOM     25  C   UNL     1      33.193  -7.782 -22.603  0.00  0.00    +0.004 C 
ATOM     26  C   UNL     1      30.833  -6.774 -23.694  0.00  0.00    +0.038 C 
ATOM     27  C   UNL     1      32.978  -6.404 -22.646  0.00  0.00    +0.038 C 
ATOM     28  C   UNL     1      31.797  -5.901 -23.192  0.00  0.00    +0.145 C 
BRANCH  28  29
ATOM     29  O   UNL     1      31.588  -4.556 -23.237  0.00  0.00    -0.453 OA
BRANCH  29  30
ATOM     30  C   UNL     1      31.604  -3.944 -24.479  0.00  0.00    +0.145 C 
ATOM     31  C   UNL     1      30.859  -2.784 -24.693  0.00  0.00    +0.037 C 
ATOM     32  C   UNL     1      32.364  -4.486 -25.515  0.00  0.00    +0.037 C 
ATOM     33  C   UNL     1      30.874  -2.166 -25.944  0.00  0.00    +0.003 C 
ATOM     34  C   UNL     1      32.379  -3.869 -26.766  0.00  0.00    +0.003 C 
ATOM     35  C   UNL     1      31.634  -2.710 -26.980  0.00  0.00    +0.000 C 
ENDBRANCH  29  30
ENDBRANCH  28  29
ENDBRANCH   7  23
TORSDOF 5
ENDMDL
MODEL 8
REMARK VINA RESULT:     -10.6      4.466     11.076
REMARK  Name = 24821094
REMARK  5 active torsions:
REMARK  status: ('A' for Active; 'I' for Inactive)
REMARK    1  A    between atoms: N_1  and  C_12
REMARK    2  A    between atoms: C_7  and  C_20
REMARK    3  A    between atoms: C_17  and  C_18
REMARK    4  A    between atoms: C_25  and  O_26
REMARK    5  A    between atoms: O_26  and  C_27
REMARK                            x       y       z     vdW  Elec       q    Type
REMARK                         _______ _______ _______ _____ _____    ______ ____
ROOT
ATOM      1  N   UNL     1      36.127 -22.756 -16.665  0.00  0.00    -0.198 N 
ATOM      2  N   UNL     1      36.636 -21.960 -17.624  0.00  0.00    -0.181 NA
ATOM      3  N   UNL     1      34.013 -23.722 -15.989  0.00  0.00    -0.231 NA
ATOM      4  N   UNL     1      32.204 -23.076 -17.492  0.00  0.00    -0.234 NA
ATOM      5  C   UNL     1      34.788 -22.976 -16.791  0.00  0.00    +0.137 C 
ATOM      6  C   UNL     1      34.390 -22.272 -17.915  0.00  0.00    +0.150 C 
ATOM      7  C   UNL     1      35.572 -21.669 -18.382  0.00  0.00    +0.090 C 
ATOM      8  C   UNL     1      33.044 -22.340 -18.259  0.00  0.00    +0.112 C 
ATOM      9  C   UNL     1      32.732 -23.712 -16.420  0.00  0.00    +0.252 C 
ATOM     10  N   UNL     1      32.543 -21.661 -19.385  0.00  0.00    -0.346 N 
ATOM     11  H   UNL     1      31.586 -21.722 -19.611  0.00  0.00    +0.143 HD
ATOM     12  H   UNL     1      33.148 -21.125 -19.947  0.00  0.00    +0.143 HD
ENDROOT
BRANCH   1  15
ATOM     13  O   UNL     1      37.874 -25.622 -11.673  0.00  0.00    -0.270 OA
ATOM     14  N   UNL     1      37.370 -25.044 -13.869  0.00  0.00    -0.274 N 
ATOM     15  C   UNL     1      37.042 -23.307 -15.588  0.00  0.00    +0.117 C 
ATOM     16  C   UNL     1      38.453 -23.606 -16.132  0.00  0.00    +0.025 C 
ATOM     17  C   UNL     1      36.454 -24.557 -14.911  0.00  0.00    +0.115 C 
ATOM     18  C   UNL     1      39.353 -24.188 -15.039  0.00  0.00    +0.023 C 
ATOM     19  C   UNL     1      38.703 -25.394 -14.365  0.00  0.00    +0.094 C 
ATOM     20  C   UNL     1      37.080 -25.201 -12.517  0.00  0.00    +0.249 C 
BRANCH  20  21
ATOM     21  C   UNL     1      35.727 -24.830 -12.056  0.00  0.00    +0.058 C 
ATOM     22  C   UNL     1      35.569 -24.391 -10.806  0.00  0.00    +0.005 C 
ENDBRANCH  20  21
ENDBRANCH   1  15
BRANCH   7  23
ATOM     23  C   UNL     1      35.726 -20.818 -19.535  0.00  0.00    +0.016 C 
ATOM     24  C   UNL     1      34.624 -20.529 -20.339  0.00  0.00    +0.004 C 
ATOM     25  C   UNL     1      36.975 -20.282 -19.846  0.00  0.00    +0.004 C 
ATOM     26  C   UNL     1      34.772 -19.705 -21.455  0.00  0.00    +0.038 C 
ATOM     27  C   UNL     1      37.124 -19.458 -20.961  0.00  0.00    +0.038 C 
ATOM     28  C   UNL     1      36.021 -19.170 -21.766  0.00  0.00    +0.145 C 
BRANCH  28  29
ATOM     29  O   UNL     1      36.167 -18.368 -22.856  0.00  0.00    -0.453 OA
BRANCH  29  30
ATOM     30  C   UNL     1      35.345 -17.258 -22.954  0.00  0.00    +0.145 C 
ATOM     31  C   UNL     1      35.058 -16.501 -21.818  0.00  0.00    +0.037 C 
ATOM     32  C   UNL     1      34.802 -16.897 -24.188  0.00  0.00    +0.037 C 
ATOM     33  C   UNL     1      34.229 -15.383 -21.916  0.00  0.00    +0.003 C 
ATOM     34  C   UNL     1      33.974 -15.780 -24.286  0.00  0.00    +0.003 C 
ATOM     35  C   UNL     1      33.687 -15.024 -23.150  0.00  0.00    +0.000 C 
ENDBRANCH  29  30
ENDBRANCH  28  29
ENDBRANCH   7  23
TORSDOF 5
ENDMDL
