MODEL 1
REMARK VINA RESULT:      -9.0      0.000      0.000
REMARK  Name = 447099
REMARK  5 active torsions:
REMARK  status: ('A' for Active; 'I' for Inactive)
REMARK    1  A    between atoms: N_1  and  C_20
REMARK    2  A    between atoms: C_20  and  C_21
REMARK    3  A    between atoms: C_20  and  C_24
REMARK    4  A    between atoms: C_21  and  O_22
REMARK    5  A    between atoms: C_24  and  O_25
REMARK                            x       y       z     vdW  Elec       q    Type
REMARK                         _______ _______ _______ _____ _____    ______ ____
ROOT
ATOM      1  N   UNL     1      34.995 -17.953 -22.259  0.00  0.00    -0.283 N 
ATOM      2  N   UNL     1      32.870 -21.844 -18.997  0.00  0.00    -0.332 NA
ATOM      3  N   UNL     1      35.123 -22.532 -18.472  0.00  0.00    -0.317 NA
ATOM      4  N   UNL     1      36.969 -21.457 -19.398  0.00  0.00    -0.335 N 
ATOM      5  N   UNL     1      33.280 -23.627 -17.529  0.00  0.00    -0.283 N 
ATOM      6  C   UNL     1      34.289 -18.857 -21.498  0.00  0.00    +0.049 C 
ATOM      7  C   UNL     1      35.218 -19.668 -20.845  0.00  0.00    +0.007 C 
ATOM      8  C   UNL     1      36.339 -18.164 -22.112  0.00  0.00    +0.065 C 
ATOM      9  C   UNL     1      34.723 -20.692 -19.987  0.00  0.00    +0.144 C 
ATOM     10  C   UNL     1      36.510 -19.217 -21.244  0.00  0.00    +0.014 C 
ATOM     11  C   UNL     1      32.911 -19.017 -21.338  0.00  0.00    +0.017 C 
ATOM     12  C   UNL     1      33.340 -20.878 -19.806  0.00  0.00    +0.134 C 
ATOM     13  C   UNL     1      32.468 -20.037 -20.486  0.00  0.00    +0.031 C 
ATOM     14  C   UNL     1      35.567 -21.558 -19.288  0.00  0.00    +0.178 C 
ATOM     15  C   UNL     1      33.785 -22.617 -18.376  0.00  0.00    +0.197 C 
ATOM     16  H   UNL     1      37.548 -22.077 -18.896  0.00  0.00    +0.144 HD
ATOM     17  H   UNL     1      37.370 -20.768 -19.976  0.00  0.00    +0.144 HD
ATOM     18  H   UNL     1      32.307 -23.737 -17.419  0.00  0.00    +0.156 HD
ATOM     19  H   UNL     1      33.899 -24.222 -17.048  0.00  0.00    +0.156 HD
ENDROOT
BRANCH   1  20
ATOM     20  C   UNL     1      34.418 -16.926 -23.097  0.00  0.00    +0.136 C 
BRANCH  20  21
ATOM     21  C   UNL     1      35.013 -16.936 -24.513  0.00  0.00    +0.165 C 
BRANCH  21  22
ATOM     22  O   UNL     1      33.978 -16.982 -25.490  0.00  0.00    -0.349 OA
ATOM     23  C   UNL     1      33.552 -15.678 -25.858  0.00  0.00    +0.174 C 
ENDBRANCH  21  22
ENDBRANCH  20  21
BRANCH  20  24
ATOM     24  C   UNL     1      34.536 -15.538 -22.454  0.00  0.00    +0.165 C 
BRANCH  24  25
ATOM     25  O   UNL     1      33.246 -14.946 -22.358  0.00  0.00    -0.349 OA
ATOM     26  C   UNL     1      32.585 -15.329 -21.160  0.00  0.00    +0.174 C 
ENDBRANCH  24  25
ENDBRANCH  20  24
ENDBRANCH   1  20
TORSDOF 5
ENDMDL
MODEL 2
REMARK VINA RESULT:      -8.9      0.880      1.942
REMARK  Name = 447099
REMARK  5 active torsions:
REMARK  status: ('A' for Active; 'I' for Inactive)
REMARK    1  A    between atoms: N_1  and  C_20
REMARK    2  A    between atoms: C_20  and  C_21
REMARK    3  A    between atoms: C_20  and  C_24
REMARK    4  A    between atoms: C_21  and  O_22
REMARK    5  A    between atoms: C_24  and  O_25
REMARK                            x       y       z     vdW  Elec       q    Type
REMARK                         _______ _______ _______ _____ _____    ______ ____
ROOT
ATOM      1  N   UNL     1      35.678 -18.298 -22.068  0.00  0.00    -0.283 N 
ATOM      2  N   UNL     1      32.738 -21.851 -19.064  0.00  0.00    -0.332 NA
ATOM      3  N   UNL     1      34.811 -22.673 -18.140  0.00  0.00    -0.317 NA
ATOM      4  N   UNL     1      36.865 -21.784 -18.782  0.00  0.00    -0.335 N 
ATOM      5  N   UNL     1      32.755 -23.581 -17.480  0.00  0.00    -0.283 N 
ATOM      6  C   UNL     1      34.785 -19.108 -21.403  0.00  0.00    +0.049 C 
ATOM      7  C   UNL     1      35.525 -19.950 -20.572  0.00  0.00    +0.007 C 
ATOM      8  C   UNL     1      36.958 -18.598 -21.688  0.00  0.00    +0.065 C 
ATOM      9  C   UNL     1      34.815 -20.890 -19.770  0.00  0.00    +0.144 C 
ATOM     10  C   UNL     1      36.898 -19.614 -20.764  0.00  0.00    +0.014 C 
ATOM     11  C   UNL     1      33.391 -19.159 -21.472  0.00  0.00    +0.017 C 
ATOM     12  C   UNL     1      33.411 -20.965 -19.818  0.00  0.00    +0.134 C 
ATOM     13  C   UNL     1      32.733 -20.099 -20.668  0.00  0.00    +0.031 C 
ATOM     14  C   UNL     1      35.460 -21.777 -18.906  0.00  0.00    +0.178 C 
ATOM     15  C   UNL     1      33.473 -22.655 -18.268  0.00  0.00    +0.197 C 
ATOM     16  H   UNL     1      37.301 -22.417 -18.167  0.00  0.00    +0.144 HD
ATOM     17  H   UNL     1      37.409 -21.157 -19.310  0.00  0.00    +0.144 HD
ATOM     18  H   UNL     1      31.772 -23.614 -17.531  0.00  0.00    +0.156 HD
ATOM     19  H   UNL     1      33.238 -24.194 -16.879  0.00  0.00    +0.156 HD
ENDROOT
BRANCH   1  20
ATOM     20  C   UNL     1      35.331 -17.276 -23.030  0.00  0.00    +0.136 C 
BRANCH  20  21
ATOM     21  C   UNL     1      34.480 -16.160 -22.403  0.00  0.00    +0.165 C 
BRANCH  21  22
ATOM     22  O   UNL     1      34.994 -14.880 -22.757  0.00  0.00    -0.349 OA
ATOM     23  C   UNL     1      33.949 -13.952 -23.010  0.00  0.00    +0.174 C 
ENDBRANCH  21  22
ENDBRANCH  20  21
BRANCH  20  24
ATOM     24  C   UNL     1      34.644 -17.871 -24.266  0.00  0.00    +0.165 C 
BRANCH  24  25
ATOM     25  O   UNL     1      34.859 -17.021 -25.386  0.00  0.00    -0.349 OA
ATOM     26  C   UNL     1      33.668 -16.342 -25.761  0.00  0.00    +0.174 C 
ENDBRANCH  24  25
ENDBRANCH  20  24
ENDBRANCH   1  20
TORSDOF 5
ENDMDL
MODEL 3
REMARK VINA RESULT:      -8.7      6.060      9.609
REMARK  Name = 447099
REMARK  5 active torsions:
REMARK  status: ('A' for Active; 'I' for Inactive)
REMARK    1  A    between atoms: N_1  and  C_20
REMARK    2  A    between atoms: C_20  and  C_21
REMARK    3  A    between atoms: C_20  and  C_24
REMARK    4  A    between atoms: C_21  and  O_22
REMARK    5  A    between atoms: C_24  and  O_25
REMARK                            x       y       z     vdW  Elec       q    Type
REMARK                         _______ _______ _______ _____ _____    ______ ____
ROOT
ATOM      1  N   UNL     1      35.634 -24.142 -14.416  0.00  0.00    -0.283 N 
ATOM      2  N   UNL     1      36.430 -21.132 -18.955  0.00  0.00    -0.332 NA
ATOM      3  N   UNL     1      34.111 -21.494 -19.514  0.00  0.00    -0.317 NA
ATOM      4  N   UNL     1      32.712 -22.754 -18.143  0.00  0.00    -0.335 N 
ATOM      5  N   UNL     1      35.500 -20.223 -20.907  0.00  0.00    -0.283 N 
ATOM      6  C   UNL     1      36.018 -23.371 -15.490  0.00  0.00    +0.049 C 
ATOM      7  C   UNL     1      34.900 -23.210 -16.309  0.00  0.00    +0.007 C 
ATOM      8  C   UNL     1      34.311 -24.476 -14.527  0.00  0.00    +0.065 C 
ATOM      9  C   UNL     1      35.049 -22.439 -17.498  0.00  0.00    +0.144 C 
ATOM     10  C   UNL     1      33.829 -23.915 -15.686  0.00  0.00    +0.014 C 
ATOM     11  C   UNL     1      37.259 -22.809 -15.796  0.00  0.00    +0.017 C 
ATOM     12  C   UNL     1      36.286 -21.860 -17.834  0.00  0.00    +0.134 C 
ATOM     13  C   UNL     1      37.361 -22.059 -16.975  0.00  0.00    +0.031 C 
ATOM     14  C   UNL     1      33.994 -22.218 -18.386  0.00  0.00    +0.178 C 
ATOM     15  C   UNL     1      35.337 -20.990 -19.732  0.00  0.00    +0.197 C 
ATOM     16  H   UNL     1      31.980 -22.586 -18.782  0.00  0.00    +0.144 HD
ATOM     17  H   UNL     1      32.548 -23.295 -17.338  0.00  0.00    +0.144 HD
ATOM     18  H   UNL     1      36.377 -19.828 -21.119  0.00  0.00    +0.156 HD
ATOM     19  H   UNL     1      34.737 -20.083 -21.514  0.00  0.00    +0.156 HD
ENDROOT
BRANCH   1  20
ATOM     20  C   UNL     1      36.489 -24.548 -13.323  0.00  0.00    +0.136 C 
BRANCH  20  21
ATOM     21  C   UNL     1      37.003 -25.986 -13.498  0.00  0.00    +0.165 C 
BRANCH  21  22
ATOM     22  O   UNL     1      38.333 -26.105 -13.004  0.00  0.00    -0.349 OA
ATOM     23  C   UNL     1      39.258 -25.411 -13.829  0.00  0.00    +0.174 C 
ENDBRANCH  21  22
ENDBRANCH  20  21
BRANCH  20  24
ATOM     24  C   UNL     1      35.798 -24.366 -11.966  0.00  0.00    +0.165 C 
BRANCH  24  25
ATOM     25  O   UNL     1      36.712 -23.790 -11.039  0.00  0.00    -0.349 OA
ATOM     26  C   UNL     1      37.509 -22.786 -11.651  0.00  0.00    +0.174 C 
ENDBRANCH  24  25
ENDBRANCH  20  24
ENDBRANCH   1  20
TORSDOF 5
ENDMDL
MODEL 4
REMARK VINA RESULT:      -8.7      2.999      5.348
REMARK  Name = 447099
REMARK  5 active torsions:
REMARK  status: ('A' for Active; 'I' for Inactive)
REMARK    1  A    between atoms: N_1  and  C_20
REMARK    2  A    between atoms: C_20  and  C_21
REMARK    3  A    between atoms: C_20  and  C_24
REMARK    4  A    between atoms: C_21  and  O_22
REMARK    5  A    between atoms: C_24  and  O_25
REMARK                            x       y       z     vdW  Elec       q    Type
REMARK                         _______ _______ _______ _____ _____    ______ ____
ROOT
ATOM      1  N   UNL     1      33.642 -13.760 -23.547  0.00  0.00    -0.283 N 
ATOM      2  N   UNL     1      35.276 -18.173 -20.691  0.00  0.00    -0.332 NA
ATOM      3  N   UNL     1      35.127 -19.456 -22.730  0.00  0.00    -0.317 NA
ATOM      4  N   UNL     1      34.466 -18.479 -24.737  0.00  0.00    -0.335 N 
ATOM      5  N   UNL     1      35.795 -20.460 -20.721  0.00  0.00    -0.283 N 
ATOM      6  C   UNL     1      34.056 -14.744 -22.678  0.00  0.00    +0.049 C 
ATOM      7  C   UNL     1      34.168 -15.927 -23.410  0.00  0.00    +0.007 C 
ATOM      8  C   UNL     1      33.487 -14.278 -24.804  0.00  0.00    +0.065 C 
ATOM      9  C   UNL     1      34.589 -17.101 -22.720  0.00  0.00    +0.144 C 
ATOM     10  C   UNL     1      33.805 -15.616 -24.753  0.00  0.00    +0.014 C 
ATOM     11  C   UNL     1      34.339 -14.678 -21.312  0.00  0.00    +0.017 C 
ATOM     12  C   UNL     1      34.880 -17.066 -21.345  0.00  0.00    +0.134 C 
ATOM     13  C   UNL     1      34.747 -15.856 -20.673  0.00  0.00    +0.031 C 
ATOM     14  C   UNL     1      34.732 -18.334 -23.359  0.00  0.00    +0.178 C 
ATOM     15  C   UNL     1      35.378 -19.305 -21.418  0.00  0.00    +0.197 C 
ATOM     16  H   UNL     1      34.574 -19.357 -25.169  0.00  0.00    +0.144 HD
ATOM     17  H   UNL     1      34.173 -17.703 -25.266  0.00  0.00    +0.144 HD
ATOM     18  H   UNL     1      35.994 -20.409 -19.758  0.00  0.00    +0.156 HD
ATOM     19  H   UNL     1      35.888 -21.316 -21.199  0.00  0.00    +0.156 HD
ENDROOT
BRANCH   1  20
ATOM     20  C   UNL     1      33.401 -12.377 -23.200  0.00  0.00    +0.136 C 
BRANCH  20  21
ATOM     21  C   UNL     1      31.952 -12.141 -22.746  0.00  0.00    +0.165 C 
BRANCH  21  22
ATOM     22  O   UNL     1      31.851 -12.228 -21.329  0.00  0.00    -0.349 OA
ATOM     23  C   UNL     1      30.956 -11.254 -20.812  0.00  0.00    +0.174 C 
ENDBRANCH  21  22
ENDBRANCH  20  21
BRANCH  20  24
ATOM     24  C   UNL     1      33.787 -11.431 -24.343  0.00  0.00    +0.165 C 
BRANCH  24  25
ATOM     25  O   UNL     1      33.770 -10.087 -23.876  0.00  0.00    -0.349 OA
ATOM     26  C   UNL     1      34.915  -9.369 -24.314  0.00  0.00    +0.174 C 
ENDBRANCH  24  25
ENDBRANCH  20  24
ENDBRANCH   1  20
TORSDOF 5
ENDMDL
MODEL 5
REMARK VINA RESULT:      -8.6      3.319      7.400
REMARK  Name = 447099
REMARK  5 active torsions:
REMARK  status: ('A' for Active; 'I' for Inactive)
REMARK    1  A    between atoms: N_1  and  C_20
REMARK    2  A    between atoms: C_20  and  C_21
REMARK    3  A    between atoms: C_20  and  C_24
REMARK    4  A    between atoms: C_21  and  O_22
REMARK    5  A    between atoms: C_24  and  O_25
REMARK                            x       y       z     vdW  Elec       q    Type
REMARK                         _______ _______ _______ _____ _____    ______ ____
ROOT
ATOM      1  N   UNL     1      35.048 -17.971 -21.904  0.00  0.00    -0.283 N 
ATOM      2  N   UNL     1      33.528 -15.297 -26.468  0.00  0.00    -0.332 NA
ATOM      3  N   UNL     1      33.321 -13.294 -25.137  0.00  0.00    -0.317 NA
ATOM      4  N   UNL     1      33.771 -13.300 -22.853  0.00  0.00    -0.335 N 
ATOM      5  N   UNL     1      32.864 -13.266 -27.434  0.00  0.00    -0.283 N 
ATOM      6  C   UNL     1      34.690 -17.475 -23.137  0.00  0.00    +0.049 C 
ATOM      7  C   UNL     1      34.405 -16.118 -22.973  0.00  0.00    +0.007 C 
ATOM      8  C   UNL     1      35.000 -16.978 -20.964  0.00  0.00    +0.065 C 
ATOM      9  C   UNL     1      34.007 -15.377 -24.122  0.00  0.00    +0.144 C 
ATOM     10  C   UNL     1      34.606 -15.820 -21.593  0.00  0.00    +0.014 C 
ATOM     11  C   UNL     1      34.596 -18.116 -24.373  0.00  0.00    +0.017 C 
ATOM     12  C   UNL     1      33.904 -15.994 -25.381  0.00  0.00    +0.134 C 
ATOM     13  C   UNL     1      34.200 -17.349 -25.477  0.00  0.00    +0.031 C 
ATOM     14  C   UNL     1      33.699 -14.015 -24.066  0.00  0.00    +0.178 C 
ATOM     15  C   UNL     1      33.257 -13.988 -26.286  0.00  0.00    +0.197 C 
ATOM     16  H   UNL     1      33.550 -12.340 -22.834  0.00  0.00    +0.144 HD
ATOM     17  H   UNL     1      34.040 -13.759 -22.025  0.00  0.00    +0.144 HD
ATOM     18  H   UNL     1      32.800 -13.722 -28.305  0.00  0.00    +0.156 HD
ATOM     19  H   UNL     1      32.654 -12.306 -27.365  0.00  0.00    +0.156 HD
ENDROOT
BRANCH   1  20
ATOM     20  C   UNL     1      35.424 -19.340 -21.625  0.00  0.00    +0.136 C 
BRANCH  20  21
ATOM     21  C   UNL     1      34.198 -20.244 -21.425  0.00  0.00    +0.165 C 
BRANCH  21  22
ATOM     22  O   UNL     1      33.530 -19.922 -20.210  0.00  0.00    -0.349 OA
ATOM     23  C   UNL     1      33.075 -21.089 -19.542  0.00  0.00    +0.174 C 
ENDBRANCH  21  22
ENDBRANCH  20  21
BRANCH  20  24
ATOM     24  C   UNL     1      36.383 -19.432 -20.432  0.00  0.00    +0.165 C 
BRANCH  24  25
ATOM     25  O   UNL     1      36.813 -20.779 -20.269  0.00  0.00    -0.349 OA
ATOM     26  C   UNL     1      36.621 -21.229 -18.935  0.00  0.00    +0.174 C 
ENDBRANCH  24  25
ENDBRANCH  20  24
ENDBRANCH   1  20
TORSDOF 5
ENDMDL
MODEL 6
REMARK VINA RESULT:      -8.5      6.790      9.267
REMARK  Name = 447099
REMARK  5 active torsions:
REMARK  status: ('A' for Active; 'I' for Inactive)
REMARK    1  A    between atoms: N_1  and  C_20
REMARK    2  A    between atoms: C_20  and  C_21
REMARK    3  A    between atoms: C_20  and  C_24
REMARK    4  A    between atoms: C_21  and  O_22
REMARK    5  A    between atoms: C_24  and  O_25
REMARK                            x       y       z     vdW  Elec       q    Type
REMARK                         _______ _______ _______ _____ _____    ______ ____
ROOT
ATOM      1  N   UNL     1      35.061 -24.052 -14.866  0.00  0.00    -0.283 N 
ATOM      2  N   UNL     1      30.242 -22.593 -17.089  0.00  0.00    -0.332 NA
ATOM      3  N   UNL     1      29.196 -23.100 -14.974  0.00  0.00    -0.317 NA
ATOM      4  N   UNL     1      30.434 -23.869 -13.159  0.00  0.00    -0.335 N 
ATOM      5  N   UNL     1      27.932 -22.326 -16.788  0.00  0.00    -0.283 N 
ATOM      6  C   UNL     1      33.958 -23.652 -15.586  0.00  0.00    +0.049 C 
ATOM      7  C   UNL     1      32.852 -23.747 -14.740  0.00  0.00    +0.007 C 
ATOM      8  C   UNL     1      34.693 -24.398 -13.594  0.00  0.00    +0.065 C 
ATOM      9  C   UNL     1      31.578 -23.381 -15.264  0.00  0.00    +0.144 C 
ATOM     10  C   UNL     1      33.333 -24.220 -13.484  0.00  0.00    +0.014 C 
ATOM     11  C   UNL     1      33.855 -23.216 -16.908  0.00  0.00    +0.017 C 
ATOM     12  C   UNL     1      31.443 -22.938 -16.592  0.00  0.00    +0.134 C 
ATOM     13  C   UNL     1      32.584 -22.867 -17.383  0.00  0.00    +0.031 C 
ATOM     14  C   UNL     1      30.409 -23.440 -14.502  0.00  0.00    +0.178 C 
ATOM     15  C   UNL     1      29.187 -22.692 -16.255  0.00  0.00    +0.197 C 
ATOM     16  H   UNL     1      29.599 -23.903 -12.638  0.00  0.00    +0.144 HD
ATOM     17  H   UNL     1      31.285 -24.134 -12.742  0.00  0.00    +0.144 HD
ATOM     18  H   UNL     1      27.863 -22.020 -17.721  0.00  0.00    +0.156 HD
ATOM     19  H   UNL     1      27.124 -22.378 -16.226  0.00  0.00    +0.156 HD
ENDROOT
BRANCH   1  20
ATOM     20  C   UNL     1      36.417 -24.105 -15.365  0.00  0.00    +0.136 C 
BRANCH  20  21
ATOM     21  C   UNL     1      37.144 -25.385 -14.925  0.00  0.00    +0.165 C 
BRANCH  21  22
ATOM     22  O   UNL     1      38.245 -25.071 -14.080  0.00  0.00    -0.349 OA
ATOM     23  C   UNL     1      38.164 -25.762 -12.842  0.00  0.00    +0.174 C 
ENDBRANCH  21  22
ENDBRANCH  20  21
BRANCH  20  24
ATOM     24  C   UNL     1      37.213 -22.852 -14.976  0.00  0.00    +0.165 C 
BRANCH  24  25
ATOM     25  O   UNL     1      37.952 -22.389 -16.101  0.00  0.00    -0.349 OA
ATOM     26  C   UNL     1      37.113 -21.728 -17.038  0.00  0.00    +0.174 C 
ENDBRANCH  24  25
ENDBRANCH  20  24
ENDBRANCH   1  20
TORSDOF 5
ENDMDL
MODEL 7
REMARK VINA RESULT:      -8.4      3.655      7.390
REMARK  Name = 447099
REMARK  5 active torsions:
REMARK  status: ('A' for Active; 'I' for Inactive)
REMARK    1  A    between atoms: N_1  and  C_20
REMARK    2  A    between atoms: C_20  and  C_21
REMARK    3  A    between atoms: C_20  and  C_24
REMARK    4  A    between atoms: C_21  and  O_22
REMARK    5  A    between atoms: C_24  and  O_25
REMARK                            x       y       z     vdW  Elec       q    Type
REMARK                         _______ _______ _______ _____ _____    ______ ____
ROOT
ATOM      1  N   UNL     1      34.641 -17.153 -21.944  0.00  0.00    -0.283 N 
ATOM      2  N   UNL     1      31.844 -12.477 -21.168  0.00  0.00    -0.332 NA
ATOM      3  N   UNL     1      32.694 -11.702 -23.290  0.00  0.00    -0.317 NA
ATOM      4  N   UNL     1      34.111 -13.019 -24.586  0.00  0.00    -0.335 N 
ATOM      5  N   UNL     1      31.269 -10.361 -22.002  0.00  0.00    -0.283 N 
ATOM      6  C   UNL     1      33.883 -16.063 -21.580  0.00  0.00    +0.049 C 
ATOM      7  C   UNL     1      34.002 -15.115 -22.597  0.00  0.00    +0.007 C 
ATOM      8  C   UNL     1      35.237 -16.929 -23.155  0.00  0.00    +0.065 C 
ATOM      9  C   UNL     1      33.298 -13.885 -22.449  0.00  0.00    +0.144 C 
ATOM     10  C   UNL     1      34.861 -15.678 -23.586  0.00  0.00    +0.014 C 
ATOM     11  C   UNL     1      33.108 -15.845 -20.440  0.00  0.00    +0.017 C 
ATOM     12  C   UNL     1      32.509 -13.636 -21.312  0.00  0.00    +0.134 C 
ATOM     13  C   UNL     1      32.433 -14.622 -20.334  0.00  0.00    +0.031 C 
ATOM     14  C   UNL     1      33.350 -12.871 -23.408  0.00  0.00    +0.178 C 
ATOM     15  C   UNL     1      31.973 -11.575 -22.163  0.00  0.00    +0.197 C 
ATOM     16  H   UNL     1      34.134 -12.292 -25.251  0.00  0.00    +0.144 HD
ATOM     17  H   UNL     1      34.618 -13.846 -24.744  0.00  0.00    +0.144 HD
ATOM     18  H   UNL     1      30.723 -10.211 -21.196  0.00  0.00    +0.156 HD
ATOM     19  H   UNL     1      31.324  -9.664 -22.696  0.00  0.00    +0.156 HD
ENDROOT
BRANCH   1  20
ATOM     20  C   UNL     1      34.796 -18.365 -21.171  0.00  0.00    +0.136 C 
BRANCH  20  21
ATOM     21  C   UNL     1      36.244 -18.881 -21.192  0.00  0.00    +0.165 C 
BRANCH  21  22
ATOM     22  O   UNL     1      36.585 -19.466 -19.940  0.00  0.00    -0.349 OA
ATOM     23  C   UNL     1      36.640 -20.882 -20.026  0.00  0.00    +0.174 C 
ENDBRANCH  21  22
ENDBRANCH  20  21
BRANCH  20  24
ATOM     24  C   UNL     1      33.812 -19.453 -21.620  0.00  0.00    +0.165 C 
BRANCH  24  25
ATOM     25  O   UNL     1      32.795 -19.610 -20.636  0.00  0.00    -0.349 OA
ATOM     26  C   UNL     1      33.028 -20.753 -19.826  0.00  0.00    +0.174 C 
ENDBRANCH  24  25
ENDBRANCH  20  24
ENDBRANCH   1  20
TORSDOF 5
ENDMDL
MODEL 8
REMARK VINA RESULT:      -8.4      7.556      9.906
REMARK  Name = 447099
REMARK  5 active torsions:
REMARK  status: ('A' for Active; 'I' for Inactive)
REMARK    1  A    between atoms: N_1  and  C_20
REMARK    2  A    between atoms: C_20  and  C_21
REMARK    3  A    between atoms: C_20  and  C_24
REMARK    4  A    between atoms: C_21  and  O_22
REMARK    5  A    between atoms: C_24  and  O_25
REMARK                            x       y       z     vdW  Elec       q    Type
REMARK                         _______ _______ _______ _____ _____    ______ ____
ROOT
ATOM      1  N   UNL     1      35.478 -23.912 -14.526  0.00  0.00    -0.283 N 
ATOM      2  N   UNL     1      29.984 -23.766 -14.829  0.00  0.00    -0.332 NA
ATOM      3  N   UNL     1      30.204 -22.769 -17.015  0.00  0.00    -0.317 NA
ATOM      4  N   UNL     1      32.292 -22.344 -17.954  0.00  0.00    -0.335 N 
ATOM      5  N   UNL     1      28.093 -23.189 -16.091  0.00  0.00    -0.283 N 
ATOM      6  C   UNL     1      34.106 -23.957 -14.423  0.00  0.00    +0.049 C 
ATOM      7  C   UNL     1      33.582 -23.419 -15.600  0.00  0.00    +0.007 C 
ATOM      8  C   UNL     1      35.842 -23.365 -15.726  0.00  0.00    +0.065 C 
ATOM      9  C   UNL     1      32.165 -23.357 -15.732  0.00  0.00    +0.144 C 
ATOM     10  C   UNL     1      34.693 -23.050 -16.413  0.00  0.00    +0.014 C 
ATOM     11  C   UNL     1      33.295 -24.427 -13.389  0.00  0.00    +0.017 C 
ATOM     12  C   UNL     1      31.322 -23.824 -14.707  0.00  0.00    +0.134 C 
ATOM     13  C   UNL     1      31.907 -24.347 -13.560  0.00  0.00    +0.031 C 
ATOM     14  C   UNL     1      31.540 -22.838 -16.868  0.00  0.00    +0.178 C 
ATOM     15  C   UNL     1      29.499 -23.243 -15.974  0.00  0.00    +0.197 C 
ATOM     16  H   UNL     1      31.832 -21.982 -18.746  0.00  0.00    +0.144 HD
ATOM     17  H   UNL     1      33.275 -22.361 -17.920  0.00  0.00    +0.144 HD
ATOM     18  H   UNL     1      27.525 -23.522 -15.358  0.00  0.00    +0.156 HD
ATOM     19  H   UNL     1      27.681 -22.818 -16.904  0.00  0.00    +0.156 HD
ENDROOT
BRANCH   1  20
ATOM     20  C   UNL     1      36.412 -24.373 -13.523  0.00  0.00    +0.136 C 
BRANCH  20  21
ATOM     21  C   UNL     1      37.010 -23.209 -12.716  0.00  0.00    +0.165 C 
BRANCH  21  22
ATOM     22  O   UNL     1      37.108 -23.554 -11.338  0.00  0.00    -0.349 OA
ATOM     23  C   UNL     1      35.920 -24.178 -10.873  0.00  0.00    +0.174 C 
ENDBRANCH  21  22
ENDBRANCH  20  21
BRANCH  20  24
ATOM     24  C   UNL     1      37.513 -25.249 -14.134  0.00  0.00    +0.165 C 
BRANCH  24  25
ATOM     25  O   UNL     1      38.748 -24.544 -14.115  0.00  0.00    -0.349 OA
ATOM     26  C   UNL     1      39.797 -25.317 -14.682  0.00  0.00    +0.174 C 
ENDBRANCH  24  25
ENDBRANCH  20  24
ENDBRANCH   1  20
TORSDOF 5
ENDMDL
MODEL 9
REMARK VINA RESULT:      -8.3      3.032      5.093
REMARK  Name = 447099
REMARK  5 active torsions:
REMARK  status: ('A' for Active; 'I' for Inactive)
REMARK    1  A    between atoms: N_1  and  C_20
REMARK    2  A    between atoms: C_20  and  C_21
REMARK    3  A    between atoms: C_20  and  C_24
REMARK    4  A    between atoms: C_21  and  O_22
REMARK    5  A    between atoms: C_24  and  O_25
REMARK                            x       y       z     vdW  Elec       q    Type
REMARK                         _______ _______ _______ _____ _____    ______ ____
ROOT
ATOM      1  N   UNL     1      33.389 -13.933 -24.112  0.00  0.00    -0.283 N 
ATOM      2  N   UNL     1      35.431 -17.668 -20.624  0.00  0.00    -0.332 NA
ATOM      3  N   UNL     1      35.473 -19.244 -22.451  0.00  0.00    -0.317 NA
ATOM      4  N   UNL     1      34.755 -18.651 -24.586  0.00  0.00    -0.335 N 
ATOM      5  N   UNL     1      36.200 -19.862 -20.312  0.00  0.00    -0.283 N 
ATOM      6  C   UNL     1      33.888 -14.726 -23.104  0.00  0.00    +0.049 C 
ATOM      7  C   UNL     1      34.147 -15.983 -23.652  0.00  0.00    +0.007 C 
ATOM      8  C   UNL     1      33.321 -14.643 -25.280  0.00  0.00    +0.065 C 
ATOM      9  C   UNL     1      34.678 -16.989 -22.794  0.00  0.00    +0.144 C 
ATOM     10  C   UNL     1      33.783 -15.914 -25.029  0.00  0.00    +0.014 C 
ATOM     11  C   UNL     1      34.129 -14.430 -21.761  0.00  0.00    +0.017 C 
ATOM     12  C   UNL     1      34.931 -16.721 -21.437  0.00  0.00    +0.134 C 
ATOM     13  C   UNL     1      34.650 -15.448 -20.953  0.00  0.00    +0.031 C 
ATOM     14  C   UNL     1      34.971 -18.278 -23.243  0.00  0.00    +0.178 C 
ATOM     15  C   UNL     1      35.674 -18.876 -21.175  0.00  0.00    +0.197 C 
ATOM     16  H   UNL     1      34.969 -19.566 -24.882  0.00  0.00    +0.144 HD
ATOM     17  H   UNL     1      34.391 -17.999 -25.225  0.00  0.00    +0.144 HD
ATOM     18  H   UNL     1      36.369 -19.649 -19.365  0.00  0.00    +0.156 HD
ATOM     19  H   UNL     1      36.398 -20.763 -20.657  0.00  0.00    +0.156 HD
ENDROOT
BRANCH   1  20
ATOM     20  C   UNL     1      32.989 -12.550 -23.974  0.00  0.00    +0.136 C 
BRANCH  20  21
ATOM     21  C   UNL     1      34.175 -11.587 -24.144  0.00  0.00    +0.165 C 
BRANCH  21  22
ATOM     22  O   UNL     1      34.351 -11.246 -25.515  0.00  0.00    -0.349 OA
ATOM     23  C   UNL     1      35.421 -10.330 -25.689  0.00  0.00    +0.174 C 
ENDBRANCH  21  22
ENDBRANCH  20  21
BRANCH  20  24
ATOM     24  C   UNL     1      32.257 -12.301 -22.650  0.00  0.00    +0.165 C 
BRANCH  24  25
ATOM     25  O   UNL     1      32.185 -10.902 -22.400  0.00  0.00    -0.349 OA
ATOM     26  C   UNL     1      31.385 -10.616 -21.262  0.00  0.00    +0.174 C 
ENDBRANCH  24  25
ENDBRANCH  20  24
ENDBRANCH   1  20
TORSDOF 5
ENDMDL
