MODEL 1
REMARK VINA RESULT:      -7.6      0.000      0.000
REMARK  Name = 4604
REMARK  2 active torsions:
REMARK  status: ('A' for Active; 'I' for Inactive)
REMARK    1  A    between atoms: C_6  and  C_12
REMARK    2  A    between atoms: C_12  and  O_13
REMARK                            x       y       z     vdW  Elec       q    Type
REMARK                         _______ _______ _______ _____ _____    ______ ____
ROOT
ATOM      1  O   UNL     1      35.565 -25.088 -15.764  0.00  0.00    -0.251 OA
ATOM      2  O   UNL     1      37.027 -26.570 -11.671  0.00  0.00    -0.193 OA
ATOM      3  N   UNL     1      37.824 -25.224 -15.321  0.00  0.00    -0.237 N 
ATOM      4  N   UNL     1      36.281 -25.836 -13.700  0.00  0.00    -0.185 N 
ATOM      5  N   UNL     1      38.606 -25.984 -13.221  0.00  0.00    -0.299 NA
ATOM      6  C   UNL     1      38.805 -25.543 -14.417  0.00  0.00    +0.277 C 
ATOM      7  C   UNL     1      36.484 -25.360 -14.993  0.00  0.00    +0.320 C 
ATOM      8  C   UNL     1      37.301 -26.154 -12.797  0.00  0.00    +0.274 C 
ATOM      9  H   UNL     1      38.074 -24.893 -16.215  0.00  0.00    +0.159 HD
ATOM     10  H   UNL     1      35.352 -25.958 -13.398  0.00  0.00    +0.171 HD
ENDROOT
BRANCH   6  12
ATOM     11  O   UNL     1      41.053 -24.781 -14.265  0.00  0.00    -0.241 OA
ATOM     12  C   UNL     1      40.193 -25.352 -14.897  0.00  0.00    +0.384 C 
BRANCH  12  13
ATOM     13  O   UNL     1      40.315 -25.905 -16.116  0.00  0.00    -0.474 OA
ATOM     14  H   UNL     1      40.756 -25.440 -16.799  0.00  0.00    +0.296 HD
ENDBRANCH  12  13
ENDBRANCH   6  12
TORSDOF 2
ENDMDL
MODEL 2
REMARK VINA RESULT:      -7.5      1.238      2.509
REMARK  Name = 4604
REMARK  2 active torsions:
REMARK  status: ('A' for Active; 'I' for Inactive)
REMARK    1  A    between atoms: C_6  and  C_12
REMARK    2  A    between atoms: C_12  and  O_13
REMARK                            x       y       z     vdW  Elec       q    Type
REMARK                         _______ _______ _______ _____ _____    ______ ____
ROOT
ATOM      1  O   UNL     1      36.705 -25.897 -11.651  0.00  0.00    -0.251 OA
ATOM      2  O   UNL     1      36.512 -27.176 -16.058  0.00  0.00    -0.193 OA
ATOM      3  N   UNL     1      38.597 -25.811 -12.966  0.00  0.00    -0.237 N 
ATOM      4  N   UNL     1      36.587 -26.544 -13.866  0.00  0.00    -0.185 N 
ATOM      5  N   UNL     1      38.527 -26.464 -15.240  0.00  0.00    -0.299 NA
ATOM      6  C   UNL     1      39.154 -26.023 -14.202  0.00  0.00    +0.277 C 
ATOM      7  C   UNL     1      37.254 -26.069 -12.738  0.00  0.00    +0.320 C 
ATOM      8  C   UNL     1      37.180 -26.752 -15.115  0.00  0.00    +0.274 C 
ATOM      9  H   UNL     1      39.158 -25.471 -12.232  0.00  0.00    +0.159 HD
ATOM     10  H   UNL     1      35.629 -26.749 -13.776  0.00  0.00    +0.171 HD
ENDROOT
BRANCH   6  12
ATOM     11  O   UNL     1      41.030 -24.607 -14.563  0.00  0.00    -0.241 OA
ATOM     12  C   UNL     1      40.597 -25.707 -14.308  0.00  0.00    +0.384 C 
BRANCH  12  13
ATOM     13  O   UNL     1      41.308 -26.825 -14.079  0.00  0.00    -0.474 OA
ATOM     14  H   UNL     1      41.483 -27.420 -14.780  0.00  0.00    +0.296 HD
ENDBRANCH  12  13
ENDBRANCH   6  12
TORSDOF 2
ENDMDL
MODEL 3
REMARK VINA RESULT:      -6.9      2.354      3.248
REMARK  Name = 4604
REMARK  2 active torsions:
REMARK  status: ('A' for Active; 'I' for Inactive)
REMARK    1  A    between atoms: C_6  and  C_12
REMARK    2  A    between atoms: C_12  and  O_13
REMARK                            x       y       z     vdW  Elec       q    Type
REMARK                         _______ _______ _______ _____ _____    ______ ____
ROOT
ATOM      1  O   UNL     1      35.008 -24.991 -10.952  0.00  0.00    -0.251 OA
ATOM      2  O   UNL     1      39.002 -22.818 -11.601  0.00  0.00    -0.193 OA
ATOM      3  N   UNL     1      36.346 -25.538 -12.749  0.00  0.00    -0.237 N 
ATOM      4  N   UNL     1      37.014 -23.887 -11.261  0.00  0.00    -0.185 N 
ATOM      5  N   UNL     1      38.409 -24.434 -13.108  0.00  0.00    -0.299 NA
ATOM      6  C   UNL     1      37.512 -25.303 -13.434  0.00  0.00    +0.277 C 
ATOM      7  C   UNL     1      36.038 -24.821 -11.603  0.00  0.00    +0.320 C 
ATOM      8  C   UNL     1      38.194 -23.667 -11.978  0.00  0.00    +0.274 C 
ATOM      9  H   UNL     1      35.720 -26.224 -13.076  0.00  0.00    +0.159 HD
ATOM     10  H   UNL     1      36.861 -23.341 -10.456  0.00  0.00    +0.171 HD
ENDROOT
BRANCH   6  12
ATOM     11  O   UNL     1      38.392 -27.140 -14.660  0.00  0.00    -0.241 OA
ATOM     12  C   UNL     1      37.716 -26.138 -14.639  0.00  0.00    +0.384 C 
BRANCH  12  13
ATOM     13  O   UNL     1      37.038 -25.596 -15.667  0.00  0.00    -0.474 OA
ATOM     14  H   UNL     1      37.235 -24.725 -15.949  0.00  0.00    +0.296 HD
ENDBRANCH  12  13
ENDBRANCH   6  12
TORSDOF 2
ENDMDL
MODEL 4
REMARK VINA RESULT:      -6.9      1.903      3.486
REMARK  Name = 4604
REMARK  2 active torsions:
REMARK  status: ('A' for Active; 'I' for Inactive)
REMARK    1  A    between atoms: C_6  and  C_12
REMARK    2  A    between atoms: C_12  and  O_13
REMARK                            x       y       z     vdW  Elec       q    Type
REMARK                         _______ _______ _______ _____ _____    ______ ____
ROOT
ATOM      1  O   UNL     1      36.379 -26.178 -15.627  0.00  0.00    -0.251 OA
ATOM      2  O   UNL     1      40.862 -25.486 -14.907  0.00  0.00    -0.193 OA
ATOM      3  N   UNL     1      37.092 -25.082 -13.727  0.00  0.00    -0.237 N 
ATOM      4  N   UNL     1      38.638 -25.839 -15.283  0.00  0.00    -0.185 N 
ATOM      5  N   UNL     1      39.395 -24.712 -13.330  0.00  0.00    -0.299 NA
ATOM      6  C   UNL     1      38.153 -24.610 -12.997  0.00  0.00    +0.277 C 
ATOM      7  C   UNL     1      37.293 -25.735 -14.933  0.00  0.00    +0.320 C 
ATOM      8  C   UNL     1      39.701 -25.348 -14.519  0.00  0.00    +0.274 C 
ATOM      9  H   UNL     1      36.175 -24.957 -13.389  0.00  0.00    +0.159 HD
ATOM     10  H   UNL     1      38.855 -26.291 -16.130  0.00  0.00    +0.171 HD
ENDROOT
BRANCH   6  12
ATOM     11  O   UNL     1      37.028 -24.389 -10.913  0.00  0.00    -0.241 OA
ATOM     12  C   UNL     1      37.796 -23.933 -11.729  0.00  0.00    +0.384 C 
BRANCH  12  13
ATOM     13  O   UNL     1      38.456 -22.765 -11.656  0.00  0.00    -0.474 OA
ATOM     14  H   UNL     1      38.617 -22.269 -12.434  0.00  0.00    +0.296 HD
ENDBRANCH  12  13
ENDBRANCH   6  12
TORSDOF 2
ENDMDL
MODEL 5
REMARK VINA RESULT:      -6.8      1.648      1.648
REMARK  Name = 4604
REMARK  2 active torsions:
REMARK  status: ('A' for Active; 'I' for Inactive)
REMARK    1  A    between atoms: C_6  and  C_12
REMARK    2  A    between atoms: C_12  and  O_13
REMARK                            x       y       z     vdW  Elec       q    Type
REMARK                         _______ _______ _______ _____ _____    ______ ____
ROOT
ATOM      1  O   UNL     1      36.603 -23.624 -15.921  0.00  0.00    -0.251 OA
ATOM      2  O   UNL     1      37.794 -23.886 -11.493  0.00  0.00    -0.193 OA
ATOM      3  N   UNL     1      38.472 -24.820 -15.293  0.00  0.00    -0.237 N 
ATOM      4  N   UNL     1      37.185 -23.745 -13.689  0.00  0.00    -0.185 N 
ATOM      5  N   UNL     1      39.109 -24.972 -13.018  0.00  0.00    -0.299 NA
ATOM      6  C   UNL     1      39.280 -25.244 -14.268  0.00  0.00    +0.277 C 
ATOM      7  C   UNL     1      37.361 -24.031 -15.041  0.00  0.00    +0.320 C 
ATOM      8  C   UNL     1      38.026 -24.190 -12.663  0.00  0.00    +0.274 C 
ATOM      9  H   UNL     1      38.685 -25.079 -16.219  0.00  0.00    +0.159 HD
ATOM     10  H   UNL     1      36.414 -23.188 -13.436  0.00  0.00    +0.171 HD
ENDROOT
BRANCH   6  12
ATOM     11  O   UNL     1      41.147 -26.670 -13.900  0.00  0.00    -0.241 OA
ATOM     12  C   UNL     1      40.433 -26.079 -14.677  0.00  0.00    +0.384 C 
BRANCH  12  13
ATOM     13  O   UNL     1      40.534 -26.059 -16.017  0.00  0.00    -0.474 OA
ATOM     14  H   UNL     1      39.975 -25.502 -16.520  0.00  0.00    +0.296 HD
ENDBRANCH  12  13
ENDBRANCH   6  12
TORSDOF 2
ENDMDL
MODEL 6
REMARK VINA RESULT:      -6.6      2.781      3.510
REMARK  Name = 4604
REMARK  2 active torsions:
REMARK  status: ('A' for Active; 'I' for Inactive)
REMARK    1  A    between atoms: C_6  and  C_12
REMARK    2  A    between atoms: C_12  and  O_13
REMARK                            x       y       z     vdW  Elec       q    Type
REMARK                         _______ _______ _______ _____ _____    ______ ____
ROOT
ATOM      1  O   UNL     1      38.198 -22.001 -12.003  0.00  0.00    -0.251 OA
ATOM      2  O   UNL     1      35.251 -24.847  -9.928  0.00  0.00    -0.193 OA
ATOM      3  N   UNL     1      37.864 -24.127 -12.830  0.00  0.00    -0.237 N 
ATOM      4  N   UNL     1      36.711 -23.418 -10.946  0.00  0.00    -0.185 N 
ATOM      5  N   UNL     1      36.351 -25.615 -11.781  0.00  0.00    -0.299 NA
ATOM      6  C   UNL     1      37.208 -25.325 -12.702  0.00  0.00    +0.277 C 
ATOM      7  C   UNL     1      37.638 -23.094 -11.934  0.00  0.00    +0.320 C 
ATOM      8  C   UNL     1      36.057 -24.649 -10.837  0.00  0.00    +0.274 C 
ATOM      9  H   UNL     1      38.503 -23.999 -13.568  0.00  0.00    +0.159 HD
ATOM     10  H   UNL     1      36.501 -22.729 -10.274  0.00  0.00    +0.171 HD
ENDROOT
BRANCH   6  12
ATOM     11  O   UNL     1      38.670 -26.594 -14.083  0.00  0.00    -0.241 OA
ATOM     12  C   UNL     1      37.543 -26.342 -13.726  0.00  0.00    +0.384 C 
BRANCH  12  13
ATOM     13  O   UNL     1      36.406 -26.907 -14.168  0.00  0.00    -0.474 OA
ATOM     14  H   UNL     1      36.385 -27.319 -15.009  0.00  0.00    +0.296 HD
ENDBRANCH  12  13
ENDBRANCH   6  12
TORSDOF 2
ENDMDL
MODEL 7
REMARK VINA RESULT:      -6.6      1.727      2.972
REMARK  Name = 4604
REMARK  2 active torsions:
REMARK  status: ('A' for Active; 'I' for Inactive)
REMARK    1  A    between atoms: C_6  and  C_12
REMARK    2  A    between atoms: C_12  and  O_13
REMARK                            x       y       z     vdW  Elec       q    Type
REMARK                         _______ _______ _______ _____ _____    ______ ____
ROOT
ATOM      1  O   UNL     1      37.566 -24.476 -11.171  0.00  0.00    -0.251 OA
ATOM      2  O   UNL     1      36.936 -22.777 -15.391  0.00  0.00    -0.193 OA
ATOM      3  N   UNL     1      38.904 -25.175 -12.912  0.00  0.00    -0.237 N 
ATOM      4  N   UNL     1      37.234 -23.609 -13.286  0.00  0.00    -0.185 N 
ATOM      5  N   UNL     1      38.603 -24.317 -15.098  0.00  0.00    -0.299 NA
ATOM      6  C   UNL     1      39.206 -25.078 -14.247  0.00  0.00    +0.277 C 
ATOM      7  C   UNL     1      37.878 -24.426 -12.360  0.00  0.00    +0.320 C 
ATOM      8  C   UNL     1      37.562 -23.529 -14.643  0.00  0.00    +0.274 C 
ATOM      9  H   UNL     1      39.423 -25.787 -12.340  0.00  0.00    +0.159 HD
ATOM     10  H   UNL     1      36.493 -23.047 -12.962  0.00  0.00    +0.171 HD
ENDROOT
BRANCH   6  12
ATOM     11  O   UNL     1      41.054 -26.548 -13.963  0.00  0.00    -0.241 OA
ATOM     12  C   UNL     1      40.324 -25.933 -14.707  0.00  0.00    +0.384 C 
BRANCH  12  13
ATOM     13  O   UNL     1      40.378 -25.899 -16.050  0.00  0.00    -0.474 OA
ATOM     14  H   UNL     1      39.982 -26.584 -16.551  0.00  0.00    +0.296 HD
ENDBRANCH  12  13
ENDBRANCH   6  12
TORSDOF 2
ENDMDL
MODEL 8
REMARK VINA RESULT:      -6.6      2.502      3.733
REMARK  Name = 4604
REMARK  2 active torsions:
REMARK  status: ('A' for Active; 'I' for Inactive)
REMARK    1  A    between atoms: C_6  and  C_12
REMARK    2  A    between atoms: C_12  and  O_13
REMARK                            x       y       z     vdW  Elec       q    Type
REMARK                         _______ _______ _______ _____ _____    ______ ____
ROOT
ATOM      1  O   UNL     1      35.012 -25.131 -10.644  0.00  0.00    -0.251 OA
ATOM      2  O   UNL     1      38.642 -22.502 -11.643  0.00  0.00    -0.193 OA
ATOM      3  N   UNL     1      35.832 -25.060 -12.798  0.00  0.00    -0.237 N 
ATOM      4  N   UNL     1      36.839 -23.803 -11.127  0.00  0.00    -0.185 N 
ATOM      5  N   UNL     1      37.702 -23.714 -13.342  0.00  0.00    -0.299 NA
ATOM      6  C   UNL     1      36.768 -24.546 -13.660  0.00  0.00    +0.277 C 
ATOM      7  C   UNL     1      35.827 -24.701 -11.459  0.00  0.00    +0.320 C 
ATOM      8  C   UNL     1      37.781 -23.294 -12.027  0.00  0.00    +0.274 C 
ATOM      9  H   UNL     1      35.155 -25.691 -13.135  0.00  0.00    +0.159 HD
ATOM     10  H   UNL     1      36.895 -23.504 -10.191  0.00  0.00    +0.171 HD
ENDROOT
BRANCH   6  12
ATOM     11  O   UNL     1      35.896 -25.875 -15.428  0.00  0.00    -0.241 OA
ATOM     12  C   UNL     1      36.660 -25.012 -15.061  0.00  0.00    +0.384 C 
BRANCH  12  13
ATOM     13  O   UNL     1      37.534 -24.327 -15.818  0.00  0.00    -0.474 OA
ATOM     14  H   UNL     1      38.400 -24.162 -15.501  0.00  0.00    +0.296 HD
ENDBRANCH  12  13
ENDBRANCH   6  12
TORSDOF 2
ENDMDL
MODEL 9
REMARK VINA RESULT:      -6.5      1.445      3.476
REMARK  Name = 4604
REMARK  2 active torsions:
REMARK  status: ('A' for Active; 'I' for Inactive)
REMARK    1  A    between atoms: C_6  and  C_12
REMARK    2  A    between atoms: C_12  and  O_13
REMARK                            x       y       z     vdW  Elec       q    Type
REMARK                         _______ _______ _______ _____ _____    ______ ____
ROOT
ATOM      1  O   UNL     1      40.809 -24.989 -14.588  0.00  0.00    -0.251 OA
ATOM      2  O   UNL     1      37.598 -24.743 -11.315  0.00  0.00    -0.193 OA
ATOM      3  N   UNL     1      38.691 -25.810 -14.980  0.00  0.00    -0.237 N 
ATOM      4  N   UNL     1      39.207 -24.856 -12.929  0.00  0.00    -0.185 N 
ATOM      5  N   UNL     1      37.015 -25.696 -13.312  0.00  0.00    -0.299 NA
ATOM      6  C   UNL     1      37.426 -26.021 -14.492  0.00  0.00    +0.277 C 
ATOM      7  C   UNL     1      39.662 -25.202 -14.200  0.00  0.00    +0.320 C 
ATOM      8  C   UNL     1      37.911 -25.083 -12.456  0.00  0.00    +0.274 C 
ATOM      9  H   UNL     1      38.911 -26.094 -15.897  0.00  0.00    +0.159 HD
ATOM     10  H   UNL     1      39.845 -24.419 -12.320  0.00  0.00    +0.171 HD
ENDROOT
BRANCH   6  12
ATOM     11  O   UNL     1      36.834 -27.409 -16.329  0.00  0.00    -0.241 OA
ATOM     12  C   UNL     1      36.488 -26.679 -15.429  0.00  0.00    +0.384 C 
BRANCH  12  13
ATOM     13  O   UNL     1      35.230 -26.327 -15.109  0.00  0.00    -0.474 OA
ATOM     14  H   UNL     1      35.079 -25.599 -14.540  0.00  0.00    +0.296 HD
ENDBRANCH  12  13
ENDBRANCH   6  12
TORSDOF 2
ENDMDL
