MODEL 1
REMARK VINA RESULT:      -8.1      0.000      0.000
REMARK  Name = 11508377
REMARK  3 active torsions:
REMARK  status: ('A' for Active; 'I' for Inactive)
REMARK    1  A    between atoms: C_14  and  O_23
REMARK    2  A    between atoms: C_18  and  O_21
REMARK    3  A    between atoms: O_23  and  C_25
REMARK                            x       y       z     vdW  Elec       q    Type
REMARK                         _______ _______ _______ _____ _____    ______ ____
ROOT
ATOM      1  O   UNL     1      31.923 -11.332 -23.532  0.00  0.00    -0.469 OA
ATOM      2  N   UNL     1      31.198  -6.257 -22.463  0.00  0.00    +0.387 N 
ATOM      3  C   UNL     1      31.499  -9.140 -22.578  0.00  0.00    +0.062 C 
ATOM      4  C   UNL     1      31.661  -8.344 -21.279  0.00  0.00    -0.007 C 
ATOM      5  C   UNL     1      32.244  -6.949 -21.674  0.00  0.00    -0.053 C 
ATOM      6  C   UNL     1      31.199 -10.648 -22.448  0.00  0.00    +0.225 C 
ATOM      7  C   UNL     1      30.497  -8.415 -23.500  0.00  0.00    -0.015 C 
ATOM      8  C   UNL     1      32.822  -9.249 -23.248  0.00  0.00    +0.014 C 
ATOM      9  C   UNL     1      33.638  -7.059 -22.392  0.00  0.00    +0.005 C 
ATOM     10  C   UNL     1      32.490  -9.082 -20.212  0.00  0.00    +0.027 C 
ATOM     11  C   UNL     1      30.852  -6.934 -23.716  0.00  0.00    -0.077 C 
ATOM     12  C   UNL     1      33.818  -8.291 -23.243  0.00  0.00    -0.025 C 
ATOM     13  C   UNL     1      32.973 -10.493 -23.820  0.00  0.00    +0.168 C 
ATOM     14  C   UNL     1      31.608 -11.250 -21.123  0.00  0.00    +0.162 C 
ATOM     15  C   UNL     1      32.181 -10.549 -20.133  0.00  0.00    +0.011 C 
ATOM     16  C   UNL     1      31.475  -4.841 -22.681  0.00  0.00    -0.101 C 
ATOM     17  C   UNL     1      34.981  -8.588 -23.954  0.00  0.00    -0.001 C 
ATOM     18  C   UNL     1      34.106 -10.806 -24.536  0.00  0.00    +0.172 C 
ATOM     19  C   UNL     1      35.113  -9.831 -24.610  0.00  0.00    +0.040 C 
ATOM     20  H   UNL     1      30.368  -6.308 -21.872  0.00  0.00    -0.080 HD
ENDROOT
BRANCH  18  21
ATOM     21  O   UNL     1      34.268 -12.017 -25.121  0.00  0.00    -0.468 OA
ATOM     22  C   UNL     1      33.698 -12.199 -26.419  0.00  0.00    +0.253 C 
ENDBRANCH  18  21
BRANCH  14  23
ATOM     23  O   UNL     1      31.365 -12.601 -20.967  0.00  0.00    -0.425 OA
BRANCH  23  25
ATOM     24  O   UNL     1      33.300 -13.293 -22.061  0.00  0.00    -0.250 OA
ATOM     25  C   UNL     1      32.464 -13.394 -21.172  0.00  0.00    +0.322 C 
ATOM     26  C   UNL     1      32.514 -14.444 -20.102  0.00  0.00    +0.122 C 
ENDBRANCH  23  25
ENDBRANCH  14  23
TORSDOF 3
ENDMDL
MODEL 2
REMARK VINA RESULT:      -7.8      1.348      1.722
REMARK  Name = 11508377
REMARK  3 active torsions:
REMARK  status: ('A' for Active; 'I' for Inactive)
REMARK    1  A    between atoms: C_14  and  O_23
REMARK    2  A    between atoms: C_18  and  O_21
REMARK    3  A    between atoms: O_23  and  C_25
REMARK                            x       y       z     vdW  Elec       q    Type
REMARK                         _______ _______ _______ _____ _____    ______ ____
ROOT
ATOM      1  O   UNL     1      31.456 -10.845 -23.180  0.00  0.00    -0.469 OA
ATOM      2  N   UNL     1      31.817  -5.670 -23.898  0.00  0.00    +0.387 N 
ATOM      3  C   UNL     1      31.523  -8.423 -23.031  0.00  0.00    +0.062 C 
ATOM      4  C   UNL     1      31.893  -7.289 -22.069  0.00  0.00    -0.007 C 
ATOM      5  C   UNL     1      32.731  -6.257 -22.889  0.00  0.00    -0.053 C 
ATOM      6  C   UNL     1      30.928  -9.706 -22.412  0.00  0.00    +0.225 C 
ATOM      7  C   UNL     1      30.653  -7.860 -24.174  0.00  0.00    -0.015 C 
ATOM      8  C   UNL     1      32.769  -9.017 -23.582  0.00  0.00    +0.014 C 
ATOM      9  C   UNL     1      34.045  -6.883 -23.484  0.00  0.00    +0.005 C 
ATOM     10  C   UNL     1      32.596  -7.781 -20.790  0.00  0.00    +0.027 C 
ATOM     11  C   UNL     1      31.293  -6.642 -24.863  0.00  0.00    -0.077 C 
ATOM     12  C   UNL     1      33.938  -8.337 -23.866  0.00  0.00    -0.025 C 
ATOM     13  C   UNL     1      32.642 -10.384 -23.699  0.00  0.00    +0.168 C 
ATOM     14  C   UNL     1      31.258  -9.900 -20.949  0.00  0.00    +0.162 C 
ATOM     15  C   UNL     1      31.999  -9.041 -20.234  0.00  0.00    +0.011 C 
ATOM     16  C   UNL     1      32.367  -4.497 -24.569  0.00  0.00    -0.101 C 
ATOM     17  C   UNL     1      34.988  -9.086 -24.399  0.00  0.00    -0.001 C 
ATOM     18  C   UNL     1      33.660 -11.142 -24.231  0.00  0.00    +0.172 C 
ATOM     19  C   UNL     1      34.839 -10.476 -24.596  0.00  0.00    +0.040 C 
ATOM     20  H   UNL     1      31.018  -5.351 -23.351  0.00  0.00    -0.080 HD
ENDROOT
BRANCH  18  21
ATOM     21  O   UNL     1      33.550 -12.485 -24.371  0.00  0.00    -0.468 OA
ATOM     22  C   UNL     1      33.912 -13.293 -23.248  0.00  0.00    +0.253 C 
ENDBRANCH  18  21
BRANCH  14  23
ATOM     23  O   UNL     1      30.752 -11.041 -20.357  0.00  0.00    -0.425 OA
BRANCH  23  25
ATOM     24  O   UNL     1      31.634 -11.177 -18.206  0.00  0.00    -0.250 OA
ATOM     25  C   UNL     1      31.549 -11.556 -19.367  0.00  0.00    +0.322 C 
ATOM     26  C   UNL     1      32.330 -12.710 -19.923  0.00  0.00    +0.122 C 
ENDBRANCH  23  25
ENDBRANCH  14  23
TORSDOF 3
ENDMDL
MODEL 3
REMARK VINA RESULT:      -7.6     13.190     17.288
REMARK  Name = 11508377
REMARK  3 active torsions:
REMARK  status: ('A' for Active; 'I' for Inactive)
REMARK    1  A    between atoms: C_14  and  O_23
REMARK    2  A    between atoms: C_18  and  O_21
REMARK    3  A    between atoms: O_23  and  C_25
REMARK                            x       y       z     vdW  Elec       q    Type
REMARK                         _______ _______ _______ _____ _____    ______ ____
ROOT
ATOM      1  O   UNL     1      33.880 -24.513 -15.366  0.00  0.00    -0.469 OA
ATOM      2  N   UNL     1      38.939 -25.660 -14.645  0.00  0.00    +0.387 N 
ATOM      3  C   UNL     1      36.300 -24.709 -15.385  0.00  0.00    +0.062 C 
ATOM      4  C   UNL     1      37.570 -23.883 -15.614  0.00  0.00    -0.007 C 
ATOM      5  C   UNL     1      38.556 -24.241 -14.456  0.00  0.00    -0.053 C 
ATOM      6  C   UNL     1      35.060 -24.344 -16.229  0.00  0.00    +0.225 C 
ATOM      7  C   UNL     1      36.647 -26.210 -15.463  0.00  0.00    -0.015 C 
ATOM      8  C   UNL     1      35.742 -24.382 -14.047  0.00  0.00    +0.014 C 
ATOM      9  C   UNL     1      37.967 -23.907 -13.036  0.00  0.00    +0.005 C 
ATOM     10  C   UNL     1      37.297 -22.373 -15.750  0.00  0.00    +0.027 C 
ATOM     11  C   UNL     1      37.817 -26.598 -14.542  0.00  0.00    -0.077 C 
ATOM     12  C   UNL     1      36.473 -24.065 -12.917  0.00  0.00    -0.025 C 
ATOM     13  C   UNL     1      34.366 -24.347 -14.092  0.00  0.00    +0.168 C 
ATOM     14  C   UNL     1      35.075 -22.935 -16.777  0.00  0.00    +0.162 C 
ATOM     15  C   UNL     1      36.072 -22.064 -16.561  0.00  0.00    +0.011 C 
ATOM     16  C   UNL     1      40.059 -26.077 -13.809  0.00  0.00    -0.101 C 
ATOM     17  C   UNL     1      35.749 -23.809 -11.752  0.00  0.00    -0.001 C 
ATOM     18  C   UNL     1      33.631 -24.107 -12.953  0.00  0.00    +0.172 C 
ATOM     19  C   UNL     1      34.338 -23.849 -11.769  0.00  0.00    +0.040 C 
ATOM     20  H   UNL     1      39.259 -25.702 -15.612  0.00  0.00    -0.080 HD
ENDROOT
BRANCH  18  21
ATOM     21  O   UNL     1      32.277 -24.085 -12.971  0.00  0.00    -0.468 OA
ATOM     22  C   UNL     1      31.648 -23.041 -13.718  0.00  0.00    +0.253 C 
ENDBRANCH  18  21
BRANCH  14  23
ATOM     23  O   UNL     1      33.980 -22.563 -17.533  0.00  0.00    -0.425 OA
BRANCH  23  25
ATOM     24  O   UNL     1      34.054 -23.831 -19.484  0.00  0.00    -0.250 OA
ATOM     25  C   UNL     1      34.135 -22.769 -18.879  0.00  0.00    +0.322 C 
ATOM     26  C   UNL     1      34.419 -21.455 -19.543  0.00  0.00    +0.122 C 
ENDBRANCH  23  25
ENDBRANCH  14  23
TORSDOF 3
ENDMDL
MODEL 4
REMARK VINA RESULT:      -7.1      5.119      8.825
REMARK  Name = 11508377
REMARK  3 active torsions:
REMARK  status: ('A' for Active; 'I' for Inactive)
REMARK    1  A    between atoms: C_14  and  O_23
REMARK    2  A    between atoms: C_18  and  O_21
REMARK    3  A    between atoms: O_23  and  C_25
REMARK                            x       y       z     vdW  Elec       q    Type
REMARK                         _______ _______ _______ _____ _____    ______ ____
ROOT
ATOM      1  O   UNL     1      35.112 -15.320 -23.295  0.00  0.00    -0.469 OA
ATOM      2  N   UNL     1      35.581 -19.684 -20.439  0.00  0.00    +0.387 N 
ATOM      3  C   UNL     1      35.026 -17.111 -21.659  0.00  0.00    +0.062 C 
ATOM      4  C   UNL     1      34.086 -17.762 -20.639  0.00  0.00    -0.007 C 
ATOM      5  C   UNL     1      34.204 -19.307 -20.838  0.00  0.00    -0.053 C 
ATOM      6  C   UNL     1      34.898 -15.587 -21.864  0.00  0.00    +0.225 C 
ATOM      7  C   UNL     1      36.476 -17.549 -21.368  0.00  0.00    -0.015 C 
ATOM      8  C   UNL     1      34.628 -17.538 -23.026  0.00  0.00    +0.014 C 
ATOM      9  C   UNL     1      33.795 -19.763 -22.286  0.00  0.00    +0.005 C 
ATOM     10  C   UNL     1      32.641 -17.236 -20.721  0.00  0.00    +0.027 C 
ATOM     11  C   UNL     1      36.627 -19.077 -21.267  0.00  0.00    -0.077 C 
ATOM     12  C   UNL     1      34.113 -18.772 -23.376  0.00  0.00    -0.025 C 
ATOM     13  C   UNL     1      34.759 -16.494 -23.916  0.00  0.00    +0.168 C 
ATOM     14  C   UNL     1      33.562 -15.015 -21.449  0.00  0.00    +0.162 C 
ATOM     15  C   UNL     1      32.562 -15.753 -20.941  0.00  0.00    +0.011 C 
ATOM     16  C   UNL     1      35.775 -21.125 -20.308  0.00  0.00    -0.101 C 
ATOM     17  C   UNL     1      33.823 -18.973 -24.726  0.00  0.00    -0.001 C 
ATOM     18  C   UNL     1      34.489 -16.671 -25.254  0.00  0.00    +0.172 C 
ATOM     19  C   UNL     1      34.028 -17.933 -25.658  0.00  0.00    +0.040 C 
ATOM     20  H   UNL     1      35.686 -19.285 -19.506  0.00  0.00    -0.080 HD
ENDROOT
BRANCH  18  21
ATOM     21  O   UNL     1      34.627 -15.663 -26.148  0.00  0.00    -0.468 OA
ATOM     22  C   UNL     1      33.464 -14.886 -26.444  0.00  0.00    +0.253 C 
ENDBRANCH  18  21
BRANCH  14  23
ATOM     23  O   UNL     1      33.400 -13.654 -21.622  0.00  0.00    -0.425 OA
BRANCH  23  25
ATOM     24  O   UNL     1      32.130 -13.793 -23.568  0.00  0.00    -0.250 OA
ATOM     25  C   UNL     1      32.375 -13.317 -22.467  0.00  0.00    +0.322 C 
ATOM     26  C   UNL     1      31.549 -12.242 -21.825  0.00  0.00    +0.122 C 
ENDBRANCH  23  25
ENDBRANCH  14  23
TORSDOF 3
ENDMDL
MODEL 5
REMARK VINA RESULT:      -6.4     12.278     16.605
REMARK  Name = 11508377
REMARK  3 active torsions:
REMARK  status: ('A' for Active; 'I' for Inactive)
REMARK    1  A    between atoms: C_14  and  O_23
REMARK    2  A    between atoms: C_18  and  O_21
REMARK    3  A    between atoms: O_23  and  C_25
REMARK                            x       y       z     vdW  Elec       q    Type
REMARK                         _______ _______ _______ _____ _____    ______ ____
ROOT
ATOM      1  O   UNL     1      33.706 -24.009 -16.847  0.00  0.00    -0.469 OA
ATOM      2  N   UNL     1      37.677 -25.336 -13.702  0.00  0.00    +0.387 N 
ATOM      3  C   UNL     1      35.797 -24.283 -15.643  0.00  0.00    +0.062 C 
ATOM      4  C   UNL     1      37.021 -23.495 -15.167  0.00  0.00    -0.007 C 
ATOM      5  C   UNL     1      37.275 -23.910 -13.682  0.00  0.00    -0.053 C 
ATOM      6  C   UNL     1      35.164 -23.860 -16.986  0.00  0.00    +0.225 C 
ATOM      7  C   UNL     1      36.109 -25.793 -15.587  0.00  0.00    -0.015 C 
ATOM      8  C   UNL     1      34.642 -23.967 -14.762  0.00  0.00    +0.014 C 
ATOM      9  C   UNL     1      36.054 -23.588 -12.747  0.00  0.00    +0.005 C 
ATOM     10  C   UNL     1      36.881 -21.974 -15.369  0.00  0.00    +0.027 C 
ATOM     11  C   UNL     1      36.642 -26.239 -14.215  0.00  0.00    -0.077 C 
ATOM     12  C   UNL     1      34.703 -23.700 -13.407  0.00  0.00    -0.025 C 
ATOM     13  C   UNL     1      33.480 -23.887 -15.497  0.00  0.00    +0.168 C 
ATOM     14  C   UNL     1      35.478 -22.441 -17.400  0.00  0.00    +0.162 C 
ATOM     15  C   UNL     1      36.243 -21.607 -16.678  0.00  0.00    +0.011 C 
ATOM     16  C   UNL     1      38.211 -25.807 -12.428  0.00  0.00    -0.101 C 
ATOM     17  C   UNL     1      33.493 -23.445 -12.761  0.00  0.00    -0.001 C 
ATOM     18  C   UNL     1      32.273 -23.648 -14.880  0.00  0.00    +0.172 C 
ATOM     19  C   UNL     1      32.285 -23.438 -13.493  0.00  0.00    +0.040 C 
ATOM     20  H   UNL     1      38.444 -25.368 -14.374  0.00  0.00    -0.080 HD
ENDROOT
BRANCH  18  21
ATOM     21  O   UNL     1      31.116 -23.581 -15.582  0.00  0.00    -0.468 OA
ATOM     22  C   UNL     1      30.211 -24.681 -15.459  0.00  0.00    +0.253 C 
ENDBRANCH  18  21
BRANCH  14  23
ATOM     23  O   UNL     1      34.926 -22.017 -18.593  0.00  0.00    -0.425 OA
BRANCH  23  25
ATOM     24  O   UNL     1      37.022 -21.703 -19.555  0.00  0.00    -0.250 OA
ATOM     25  C   UNL     1      35.828 -21.452 -19.457  0.00  0.00    +0.322 C 
ATOM     26  C   UNL     1      35.118 -20.446 -20.314  0.00  0.00    +0.122 C 
ENDBRANCH  23  25
ENDBRANCH  14  23
TORSDOF 3
ENDMDL
MODEL 6
REMARK VINA RESULT:      -6.2      2.706      5.306
REMARK  Name = 11508377
REMARK  3 active torsions:
REMARK  status: ('A' for Active; 'I' for Inactive)
REMARK    1  A    between atoms: C_14  and  O_23
REMARK    2  A    between atoms: C_18  and  O_21
REMARK    3  A    between atoms: O_23  and  C_25
REMARK                            x       y       z     vdW  Elec       q    Type
REMARK                         _______ _______ _______ _____ _____    ______ ____
ROOT
ATOM      1  O   UNL     1      34.544  -7.765 -24.012  0.00  0.00    -0.469 OA
ATOM      2  N   UNL     1      31.413  -9.314 -20.109  0.00  0.00    +0.387 N 
ATOM      3  C   UNL     1      32.776  -8.157 -22.394  0.00  0.00    +0.062 C 
ATOM      4  C   UNL     1      31.250  -8.172 -22.263  0.00  0.00    -0.007 C 
ATOM      5  C   UNL     1      30.876  -9.472 -21.482  0.00  0.00    -0.053 C 
ATOM      6  C   UNL     1      33.391  -7.122 -23.360  0.00  0.00    +0.225 C 
ATOM      7  C   UNL     1      33.408  -8.101 -20.988  0.00  0.00    -0.015 C 
ATOM      8  C   UNL     1      33.215  -9.388 -23.103  0.00  0.00    +0.014 C 
ATOM      9  C   UNL     1      31.347 -10.777 -22.221  0.00  0.00    +0.005 C 
ATOM     10  C   UNL     1      30.522  -8.030 -23.613  0.00  0.00    +0.027 C 
ATOM     11  C   UNL     1      32.874  -9.198 -20.052  0.00  0.00    -0.077 C 
ATOM     12  C   UNL     1      32.625 -10.634 -23.008  0.00  0.00    -0.025 C 
ATOM     13  C   UNL     1      34.259  -9.108 -23.957  0.00  0.00    +0.168 C 
ATOM     14  C   UNL     1      32.439  -6.622 -24.423  0.00  0.00    +0.162 C 
ATOM     15  C   UNL     1      31.164  -7.030 -24.530  0.00  0.00    +0.011 C 
ATOM     16  C   UNL     1      30.921 -10.319 -19.173  0.00  0.00    -0.101 C 
ATOM     17  C   UNL     1      33.210 -11.664 -23.745  0.00  0.00    -0.001 C 
ATOM     18  C   UNL     1      34.858 -10.109 -24.687  0.00  0.00    +0.172 C 
ATOM     19  C   UNL     1      34.330 -11.403 -24.564  0.00  0.00    +0.040 C 
ATOM     20  H   UNL     1      31.042  -8.415 -19.801  0.00  0.00    -0.080 HD
ENDROOT
BRANCH  18  21
ATOM     21  O   UNL     1      35.896  -9.860 -25.520  0.00  0.00    -0.468 OA
ATOM     22  C   UNL     1      35.858 -10.465 -26.815  0.00  0.00    +0.253 C 
ENDBRANCH  18  21
BRANCH  14  23
ATOM     23  O   UNL     1      32.950  -5.700 -25.315  0.00  0.00    -0.425 OA
BRANCH  23  25
ATOM     24  O   UNL     1      31.839  -3.910 -24.323  0.00  0.00    -0.250 OA
ATOM     25  C   UNL     1      32.307  -4.490 -25.296  0.00  0.00    +0.322 C 
ATOM     26  C   UNL     1      32.262  -3.940 -26.690  0.00  0.00    +0.122 C 
ENDBRANCH  23  25
ENDBRANCH  14  23
TORSDOF 3
ENDMDL
MODEL 7
REMARK VINA RESULT:      -5.3      3.775      6.900
REMARK  Name = 11508377
REMARK  3 active torsions:
REMARK  status: ('A' for Active; 'I' for Inactive)
REMARK    1  A    between atoms: C_14  and  O_23
REMARK    2  A    between atoms: C_18  and  O_21
REMARK    3  A    between atoms: O_23  and  C_25
REMARK                            x       y       z     vdW  Elec       q    Type
REMARK                         _______ _______ _______ _____ _____    ______ ____
ROOT
ATOM      1  O   UNL     1      30.923  -5.118 -24.569  0.00  0.00    -0.469 OA
ATOM      2  N   UNL     1      32.183  -9.984 -23.097  0.00  0.00    +0.387 N 
ATOM      3  C   UNL     1      31.896  -7.309 -24.183  0.00  0.00    +0.062 C 
ATOM      4  C   UNL     1      33.248  -8.024 -24.094  0.00  0.00    -0.007 C 
ATOM      5  C   UNL     1      33.195  -8.935 -22.826  0.00  0.00    -0.053 C 
ATOM      6  C   UNL     1      31.780  -6.143 -25.187  0.00  0.00    +0.225 C 
ATOM      7  C   UNL     1      30.776  -8.355 -24.359  0.00  0.00    -0.015 C 
ATOM      8  C   UNL     1      31.676  -6.531 -22.936  0.00  0.00    +0.014 C 
ATOM      9  C   UNL     1      32.951  -8.118 -21.505  0.00  0.00    +0.005 C 
ATOM     10  C   UNL     1      34.449  -7.059 -24.113  0.00  0.00    +0.027 C 
ATOM     11  C   UNL     1      30.826  -9.465 -23.295  0.00  0.00    -0.077 C 
ATOM     12  C   UNL     1      32.090  -6.892 -21.668  0.00  0.00    -0.025 C 
ATOM     13  C   UNL     1      31.066  -5.328 -23.219  0.00  0.00    +0.168 C 
ATOM     14  C   UNL     1      33.102  -5.518 -25.569  0.00  0.00    +0.162 C 
ATOM     15  C   UNL     1      34.285  -5.930 -25.088  0.00  0.00    +0.011 C 
ATOM     16  C   UNL     1      32.201 -11.073 -22.126  0.00  0.00    -0.101 C 
ATOM     17  C   UNL     1      31.762  -6.022 -20.627  0.00  0.00    -0.001 C 
ATOM     18  C   UNL     1      30.723  -4.459 -22.208  0.00  0.00    +0.172 C 
ATOM     19  C   UNL     1      31.066  -4.823 -20.897  0.00  0.00    +0.040 C 
ATOM     20  H   UNL     1      32.471 -10.380 -23.992  0.00  0.00    -0.080 HD
ENDROOT
BRANCH  18  21
ATOM     21  O   UNL     1      30.108  -3.279 -22.461  0.00  0.00    -0.468 OA
ATOM     22  C   UNL     1      30.935  -2.179 -22.849  0.00  0.00    +0.253 C 
ENDBRANCH  18  21
BRANCH  14  23
ATOM     23  O   UNL     1      33.044  -4.465 -26.461  0.00  0.00    -0.425 OA
BRANCH  23  25
ATOM     24  O   UNL     1      35.055  -4.706 -27.610  0.00  0.00    -0.250 OA
ATOM     25  C   UNL     1      33.834  -4.628 -27.570  0.00  0.00    +0.322 C 
ATOM     26  C   UNL     1      32.957  -4.715 -28.784  0.00  0.00    +0.122 C 
ENDBRANCH  23  25
ENDBRANCH  14  23
TORSDOF 3
ENDMDL
