MODEL 1
REMARK VINA RESULT:     -11.2      0.000      0.000
REMARK  Name = 66645351
REMARK  11 active torsions:
REMARK  status: ('A' for Active; 'I' for Inactive)
REMARK    1  A    between atoms: C_2  and  C_4
REMARK    2  A    between atoms: C_2  and  C_18
REMARK    3  A    between atoms: C_3  and  C_5
REMARK    4  A    between atoms: C_6  and  O_11
REMARK    5  A    between atoms: C_8  and  O_13
REMARK    6  A    between atoms: O_13  and  S_14
REMARK    7  A    between atoms: C_18  and  C_20
REMARK    8  A    between atoms: C_20  and  C_22
REMARK    9  A    between atoms: C_21  and  C_23
REMARK   10  A    between atoms: C_25  and  O_29
REMARK   11  A    between atoms: C_27  and  O_31
REMARK                            x       y       z     vdW  Elec       q    Type
REMARK                         _______ _______ _______ _____ _____    ______ ____
ROOT
ATOM      1  O   UNL     1      32.874 -21.285 -19.112  0.00  0.00    -0.291 OA
ATOM      2  C   UNL     1      33.814 -21.010 -19.853  0.00  0.00    +0.181 C 
ENDROOT
BRANCH   2   4
ATOM      3  C   UNL     1      34.701 -19.742 -21.766  0.00  0.00    +0.003 C 
ATOM      4  C   UNL     1      33.710 -19.935 -20.885  0.00  0.00    +0.038 C 
BRANCH   3   5
ATOM      5  C   UNL     1      34.693 -18.717 -22.825  0.00  0.00    +0.003 C 
ATOM      6  C   UNL     1      34.865 -16.403 -23.498  0.00  0.00    +0.175 C 
ATOM      7  C   UNL     1      34.873 -17.374 -22.497  0.00  0.00    +0.040 C 
ATOM      8  C   UNL     1      34.676 -16.776 -24.830  0.00  0.00    +0.209 C 
ATOM      9  C   UNL     1      34.504 -19.091 -24.156  0.00  0.00    +0.003 C 
ATOM     10  C   UNL     1      34.495 -18.120 -25.158  0.00  0.00    +0.043 C 
BRANCH   6  11
ATOM     11  O   UNL     1      35.043 -15.094 -23.165  0.00  0.00    -0.468 OA
ATOM     12  C   UNL     1      34.413 -14.638 -21.970  0.00  0.00    +0.253 C 
ENDBRANCH   6  11
BRANCH   8  13
ATOM     13  O   UNL     1      34.665 -15.838 -25.817  0.00  0.00    -0.319 OA
BRANCH  13  14
ATOM     14  S   UNL     1      33.234 -15.157 -26.250  0.00  0.00    +0.282 S 
ATOM     15  O   UNL     1      33.634 -14.150 -27.472  0.00  0.00    -0.012 OA
ATOM     16  O   UNL     1      32.364 -16.186 -26.789  0.00  0.00    -0.105 OA
ATOM     17  O   UNL     1      32.783 -14.335 -25.142  0.00  0.00    -0.105 OA
ENDBRANCH  13  14
ENDBRANCH   8  13
ENDBRANCH   3   5
ENDBRANCH   2   4
BRANCH   2  18
ATOM     18  C   UNL     1      35.129 -21.761 -19.816  0.00  0.00    +0.138 C 
BRANCH  18  20
ATOM     19  O   UNL     1      36.816 -20.568 -18.574  0.00  0.00    -0.291 OA
ATOM     20  C   UNL     1      36.001 -21.487 -18.606  0.00  0.00    +0.181 C 
BRANCH  20  22
ATOM     21  C   UNL     1      36.677 -22.384 -16.418  0.00  0.00    +0.003 C 
ATOM     22  C   UNL     1      35.840 -22.434 -17.464  0.00  0.00    +0.038 C 
BRANCH  21  23
ATOM     23  C   UNL     1      36.610 -23.276 -15.247  0.00  0.00    +0.003 C 
ATOM     24  C   UNL     1      37.714 -24.053 -14.897  0.00  0.00    +0.040 C 
ATOM     25  C   UNL     1      37.651 -24.898 -13.790  0.00  0.00    +0.172 C 
ATOM     26  C   UNL     1      35.440 -23.346 -14.489  0.00  0.00    +0.003 C 
ATOM     27  C   UNL     1      36.482 -24.967 -13.032  0.00  0.00    +0.168 C 
ATOM     28  C   UNL     1      35.376 -24.192 -13.382  0.00  0.00    +0.040 C 
BRANCH  25  29
ATOM     29  O   UNL     1      38.737 -25.651 -13.457  0.00  0.00    -0.468 OA
ATOM     30  C   UNL     1      39.855 -25.599 -14.341  0.00  0.00    +0.253 C 
ENDBRANCH  25  29
BRANCH  27  31
ATOM     31  O   UNL     1      36.406 -25.790 -11.948  0.00  0.00    -0.503 OA
ATOM     32  H   UNL     1      37.112 -26.376 -11.755  0.00  0.00    +0.292 HD
ENDBRANCH  27  31
ENDBRANCH  21  23
ENDBRANCH  20  22
ENDBRANCH  18  20
ENDBRANCH   2  18
TORSDOF 11
ENDMDL
MODEL 2
REMARK VINA RESULT:     -11.2      1.010      2.013
REMARK  Name = 66645351
REMARK  11 active torsions:
REMARK  status: ('A' for Active; 'I' for Inactive)
REMARK    1  A    between atoms: C_2  and  C_4
REMARK    2  A    between atoms: C_2  and  C_18
REMARK    3  A    between atoms: C_3  and  C_5
REMARK    4  A    between atoms: C_6  and  O_11
REMARK    5  A    between atoms: C_8  and  O_13
REMARK    6  A    between atoms: O_13  and  S_14
REMARK    7  A    between atoms: C_18  and  C_20
REMARK    8  A    between atoms: C_20  and  C_22
REMARK    9  A    between atoms: C_21  and  C_23
REMARK   10  A    between atoms: C_25  and  O_29
REMARK   11  A    between atoms: C_27  and  O_31
REMARK                            x       y       z     vdW  Elec       q    Type
REMARK                         _______ _______ _______ _____ _____    ______ ____
ROOT
ATOM      1  O   UNL     1      32.825 -21.278 -19.153  0.00  0.00    -0.291 OA
ATOM      2  C   UNL     1      33.789 -20.991 -19.858  0.00  0.00    +0.181 C 
ENDROOT
BRANCH   2   4
ATOM      3  C   UNL     1      34.599 -19.818 -21.863  0.00  0.00    +0.003 C 
ATOM      4  C   UNL     1      33.735 -19.868 -20.841  0.00  0.00    +0.038 C 
BRANCH   3   5
ATOM      5  C   UNL     1      34.624 -18.760 -22.889  0.00  0.00    +0.003 C 
ATOM      6  C   UNL     1      34.827 -16.427 -23.484  0.00  0.00    +0.175 C 
ATOM      7  C   UNL     1      34.805 -17.430 -22.514  0.00  0.00    +0.040 C 
ATOM      8  C   UNL     1      34.669 -16.756 -24.830  0.00  0.00    +0.209 C 
ATOM      9  C   UNL     1      34.465 -19.090 -24.235  0.00  0.00    +0.003 C 
ATOM     10  C   UNL     1      34.488 -18.088 -25.206  0.00  0.00    +0.043 C 
BRANCH   6  11
ATOM     11  O   UNL     1      35.006 -15.131 -23.105  0.00  0.00    -0.468 OA
ATOM     12  C   UNL     1      34.411 -14.728 -21.873  0.00  0.00    +0.253 C 
ENDBRANCH   6  11
BRANCH   8  13
ATOM     13  O   UNL     1      34.689 -15.787 -25.787  0.00  0.00    -0.319 OA
BRANCH  13  14
ATOM     14  S   UNL     1      33.270 -15.101 -26.253  0.00  0.00    +0.282 S 
ATOM     15  O   UNL     1      33.697 -14.113 -27.480  0.00  0.00    -0.012 OA
ATOM     16  O   UNL     1      32.401 -16.131 -26.793  0.00  0.00    -0.105 OA
ATOM     17  O   UNL     1      32.807 -14.262 -25.163  0.00  0.00    -0.105 OA
ENDBRANCH  13  14
ENDBRANCH   8  13
ENDBRANCH   3   5
ENDBRANCH   2   4
BRANCH   2  18
ATOM     18  C   UNL     1      35.086 -21.773 -19.824  0.00  0.00    +0.138 C 
BRANCH  18  20
ATOM     19  O   UNL     1      36.845 -20.229 -19.248  0.00  0.00    -0.291 OA
ATOM     20  C   UNL     1      36.167 -21.202 -18.928  0.00  0.00    +0.181 C 
BRANCH  20  22
ATOM     21  C   UNL     1      35.369 -22.525 -17.014  0.00  0.00    +0.003 C 
ATOM     22  C   UNL     1      36.391 -21.926 -17.641  0.00  0.00    +0.038 C 
BRANCH  21  23
ATOM     23  C   UNL     1      35.482 -23.257 -15.740  0.00  0.00    +0.003 C 
ATOM     24  C   UNL     1      34.337 -23.546 -14.998  0.00  0.00    +0.040 C 
ATOM     25  C   UNL     1      34.443 -24.238 -13.792  0.00  0.00    +0.172 C 
ATOM     26  C   UNL     1      36.735 -23.658 -15.274  0.00  0.00    +0.003 C 
ATOM     27  C   UNL     1      35.696 -24.640 -13.327  0.00  0.00    +0.168 C 
ATOM     28  C   UNL     1      36.841 -24.349 -14.067  0.00  0.00    +0.040 C 
BRANCH  25  29
ATOM     29  O   UNL     1      33.318 -24.516 -13.076  0.00  0.00    -0.468 OA
ATOM     30  C   UNL     1      32.119 -24.736 -13.816  0.00  0.00    +0.253 C 
ENDBRANCH  25  29
BRANCH  27  31
ATOM     31  O   UNL     1      35.814 -25.316 -12.149  0.00  0.00    -0.503 OA
ATOM     32  H   UNL     1      35.595 -24.893 -11.342  0.00  0.00    +0.292 HD
ENDBRANCH  27  31
ENDBRANCH  21  23
ENDBRANCH  20  22
ENDBRANCH  18  20
ENDBRANCH   2  18
TORSDOF 11
ENDMDL
MODEL 3
REMARK VINA RESULT:     -11.2      2.512      3.402
REMARK  Name = 66645351
REMARK  11 active torsions:
REMARK  status: ('A' for Active; 'I' for Inactive)
REMARK    1  A    between atoms: C_2  and  C_4
REMARK    2  A    between atoms: C_2  and  C_18
REMARK    3  A    between atoms: C_3  and  C_5
REMARK    4  A    between atoms: C_6  and  O_11
REMARK    5  A    between atoms: C_8  and  O_13
REMARK    6  A    between atoms: O_13  and  S_14
REMARK    7  A    between atoms: C_18  and  C_20
REMARK    8  A    between atoms: C_20  and  C_22
REMARK    9  A    between atoms: C_21  and  C_23
REMARK   10  A    between atoms: C_25  and  O_29
REMARK   11  A    between atoms: C_27  and  O_31
REMARK                            x       y       z     vdW  Elec       q    Type
REMARK                         _______ _______ _______ _____ _____    ______ ____
ROOT
ATOM      1  O   UNL     1      36.459 -20.739 -18.661  0.00  0.00    -0.291 OA
ATOM      2  C   UNL     1      35.861 -21.067 -19.682  0.00  0.00    +0.181 C 
ENDROOT
BRANCH   2   4
ATOM      3  C   UNL     1      34.893 -19.388 -21.198  0.00  0.00    +0.003 C 
ATOM      4  C   UNL     1      35.898 -20.228 -20.917  0.00  0.00    +0.038 C 
BRANCH   3   5
ATOM      5  C   UNL     1      34.838 -18.514 -22.384  0.00  0.00    +0.003 C 
ATOM      6  C   UNL     1      34.917 -16.304 -23.359  0.00  0.00    +0.175 C 
ATOM      7  C   UNL     1      34.970 -17.133 -22.237  0.00  0.00    +0.040 C 
ATOM      8  C   UNL     1      34.733 -16.858 -24.627  0.00  0.00    +0.209 C 
ATOM      9  C   UNL     1      34.654 -19.067 -23.651  0.00  0.00    +0.003 C 
ATOM     10  C   UNL     1      34.601 -18.239 -24.772  0.00  0.00    +0.043 C 
BRANCH   6  11
ATOM     11  O   UNL     1      35.049 -14.957 -23.204  0.00  0.00    -0.468 OA
ATOM     12  C   UNL     1      34.343 -14.358 -22.119  0.00  0.00    +0.253 C 
ENDBRANCH   6  11
BRANCH   8  13
ATOM     13  O   UNL     1      34.680 -16.060 -25.729  0.00  0.00    -0.319 OA
BRANCH  13  14
ATOM     14  S   UNL     1      33.231 -15.435 -26.189  0.00  0.00    +0.282 S 
ATOM     15  O   UNL     1      33.602 -14.484 -27.463  0.00  0.00    -0.012 OA
ATOM     16  O   UNL     1      32.384 -16.511 -26.669  0.00  0.00    -0.105 OA
ATOM     17  O   UNL     1      32.766 -14.568 -25.122  0.00  0.00    -0.105 OA
ENDBRANCH  13  14
ENDBRANCH   8  13
ENDBRANCH   3   5
ENDBRANCH   2   4
BRANCH   2  18
ATOM     18  C   UNL     1      35.005 -22.314 -19.760  0.00  0.00    +0.138 C 
BRANCH  18  20
ATOM     19  O   UNL     1      32.727 -21.541 -19.915  0.00  0.00    -0.291 OA
ATOM     20  C   UNL     1      33.577 -22.156 -19.276  0.00  0.00    +0.181 C 
BRANCH  20  22
ATOM     21  C   UNL     1      32.024 -22.740 -17.460  0.00  0.00    +0.003 C 
ATOM     22  C   UNL     1      33.274 -22.758 -17.944  0.00  0.00    +0.038 C 
BRANCH  21  23
ATOM     23  C   UNL     1      31.622 -23.299 -16.157  0.00  0.00    +0.003 C 
ATOM     24  C   UNL     1      32.569 -23.463 -15.147  0.00  0.00    +0.040 C 
ATOM     25  C   UNL     1      32.190 -23.993 -13.913  0.00  0.00    +0.172 C 
ATOM     26  C   UNL     1      30.295 -23.667 -15.935  0.00  0.00    +0.003 C 
ATOM     27  C   UNL     1      30.863 -24.360 -13.691  0.00  0.00    +0.168 C 
ATOM     28  C   UNL     1      29.915 -24.197 -14.702  0.00  0.00    +0.040 C 
BRANCH  25  29
ATOM     29  O   UNL     1      33.124 -24.147 -12.933  0.00  0.00    -0.468 OA
ATOM     30  C   UNL     1      34.492 -24.154 -13.338  0.00  0.00    +0.253 C 
ENDBRANCH  25  29
BRANCH  27  31
ATOM     31  O   UNL     1      30.479 -24.879 -12.491  0.00  0.00    -0.503 OA
ATOM     32  H   UNL     1      29.949 -24.370 -11.909  0.00  0.00    +0.292 HD
ENDBRANCH  27  31
ENDBRANCH  21  23
ENDBRANCH  20  22
ENDBRANCH  18  20
ENDBRANCH   2  18
TORSDOF 11
ENDMDL
MODEL 4
REMARK VINA RESULT:     -11.1      3.698     12.254
REMARK  Name = 66645351
REMARK  11 active torsions:
REMARK  status: ('A' for Active; 'I' for Inactive)
REMARK    1  A    between atoms: C_2  and  C_4
REMARK    2  A    between atoms: C_2  and  C_18
REMARK    3  A    between atoms: C_3  and  C_5
REMARK    4  A    between atoms: C_6  and  O_11
REMARK    5  A    between atoms: C_8  and  O_13
REMARK    6  A    between atoms: O_13  and  S_14
REMARK    7  A    between atoms: C_18  and  C_20
REMARK    8  A    between atoms: C_20  and  C_22
REMARK    9  A    between atoms: C_21  and  C_23
REMARK   10  A    between atoms: C_25  and  O_29
REMARK   11  A    between atoms: C_27  and  O_31
REMARK                            x       y       z     vdW  Elec       q    Type
REMARK                         _______ _______ _______ _____ _____    ______ ____
ROOT
ATOM      1  O   UNL     1      32.697 -21.659 -20.159  0.00  0.00    -0.291 OA
ATOM      2  C   UNL     1      33.666 -22.021 -19.496  0.00  0.00    +0.181 C 
ENDROOT
BRANCH   2   4
ATOM      3  C   UNL     1      34.602 -22.777 -17.350  0.00  0.00    +0.003 C 
ATOM      4  C   UNL     1      33.519 -22.502 -18.090  0.00  0.00    +0.038 C 
BRANCH   3   5
ATOM      5  C   UNL     1      34.565 -23.248 -15.953  0.00  0.00    +0.003 C 
ATOM      6  C   UNL     1      33.306 -23.827 -13.974  0.00  0.00    +0.175 C 
ATOM      7  C   UNL     1      33.343 -23.382 -15.296  0.00  0.00    +0.040 C 
ATOM      8  C   UNL     1      34.493 -24.138 -13.310  0.00  0.00    +0.209 C 
ATOM      9  C   UNL     1      35.752 -23.560 -15.290  0.00  0.00    +0.003 C 
ATOM     10  C   UNL     1      35.716 -24.005 -13.969  0.00  0.00    +0.043 C 
BRANCH   6  11
ATOM     11  O   UNL     1      32.106 -23.954 -13.342  0.00  0.00    -0.468 OA
ATOM     12  C   UNL     1      31.232 -24.979 -13.811  0.00  0.00    +0.253 C 
ENDBRANCH   6  11
BRANCH   8  13
ATOM     13  O   UNL     1      34.472 -24.574 -12.020  0.00  0.00    -0.319 OA
BRANCH  13  14
ATOM     14  S   UNL     1      35.866 -24.551 -11.150  0.00  0.00    +0.282 S 
ATOM     15  O   UNL     1      35.362 -24.669  -9.601  0.00  0.00    -0.012 OA
ATOM     16  O   UNL     1      36.635 -25.742 -11.459  0.00  0.00    -0.105 OA
ATOM     17  O   UNL     1      36.465 -23.239 -11.312  0.00  0.00    -0.105 OA
ENDBRANCH  13  14
ENDBRANCH   8  13
ENDBRANCH   3   5
ENDBRANCH   2   4
BRANCH   2  18
ATOM     18  C   UNL     1      35.084 -21.966 -20.027  0.00  0.00    +0.138 C 
BRANCH  18  20
ATOM     19  O   UNL     1      36.524 -20.098 -19.531  0.00  0.00    -0.291 OA
ATOM     20  C   UNL     1      35.645 -20.575 -20.244  0.00  0.00    +0.181 C 
BRANCH  20  22
ATOM     21  C   UNL     1      35.716 -18.813 -21.960  0.00  0.00    +0.003 C 
ATOM     22  C   UNL     1      35.029 -19.795 -21.358  0.00  0.00    +0.038 C 
BRANCH  21  23
ATOM     23  C   UNL     1      35.198 -17.981 -23.060  0.00  0.00    +0.003 C 
ATOM     24  C   UNL     1      35.028 -16.609 -22.877  0.00  0.00    +0.040 C 
ATOM     25  C   UNL     1      34.538 -15.820 -23.918  0.00  0.00    +0.172 C 
ATOM     26  C   UNL     1      34.875 -18.566 -24.285  0.00  0.00    +0.003 C 
ATOM     27  C   UNL     1      34.215 -16.406 -25.142  0.00  0.00    +0.168 C 
ATOM     28  C   UNL     1      34.383 -17.778 -25.326  0.00  0.00    +0.040 C 
BRANCH  25  29
ATOM     29  O   UNL     1      34.377 -14.481 -23.728  0.00  0.00    -0.468 OA
ATOM     30  C   UNL     1      33.077 -14.032 -23.350  0.00  0.00    +0.253 C 
ENDBRANCH  25  29
BRANCH  27  31
ATOM     31  O   UNL     1      33.734 -15.648 -26.168  0.00  0.00    -0.503 OA
ATOM     32  H   UNL     1      32.839 -15.371 -26.165  0.00  0.00    +0.292 HD
ENDBRANCH  27  31
ENDBRANCH  21  23
ENDBRANCH  20  22
ENDBRANCH  18  20
ENDBRANCH   2  18
TORSDOF 11
ENDMDL
MODEL 5
REMARK VINA RESULT:     -11.0      3.517     12.099
REMARK  Name = 66645351
REMARK  11 active torsions:
REMARK  status: ('A' for Active; 'I' for Inactive)
REMARK    1  A    between atoms: C_2  and  C_4
REMARK    2  A    between atoms: C_2  and  C_18
REMARK    3  A    between atoms: C_3  and  C_5
REMARK    4  A    between atoms: C_6  and  O_11
REMARK    5  A    between atoms: C_8  and  O_13
REMARK    6  A    between atoms: O_13  and  S_14
REMARK    7  A    between atoms: C_18  and  C_20
REMARK    8  A    between atoms: C_20  and  C_22
REMARK    9  A    between atoms: C_21  and  C_23
REMARK   10  A    between atoms: C_25  and  O_29
REMARK   11  A    between atoms: C_27  and  O_31
REMARK                            x       y       z     vdW  Elec       q    Type
REMARK                         _______ _______ _______ _____ _____    ______ ____
ROOT
ATOM      1  O   UNL     1      36.836 -20.257 -19.552  0.00  0.00    -0.291 OA
ATOM      2  C   UNL     1      36.108 -21.158 -19.142  0.00  0.00    +0.181 C 
ENDROOT
BRANCH   2   4
ATOM      3  C   UNL     1      35.321 -22.468 -17.214  0.00  0.00    +0.003 C 
ATOM      4  C   UNL     1      36.311 -21.781 -17.800  0.00  0.00    +0.038 C 
BRANCH   3   5
ATOM      5  C   UNL     1      35.423 -23.126 -15.898  0.00  0.00    +0.003 C 
ATOM      6  C   UNL     1      34.367 -23.980 -13.900  0.00  0.00    +0.175 C 
ATOM      7  C   UNL     1      34.273 -23.358 -15.145  0.00  0.00    +0.040 C 
ATOM      8  C   UNL     1      35.614 -24.371 -13.409  0.00  0.00    +0.209 C 
ATOM      9  C   UNL     1      36.669 -23.517 -15.408  0.00  0.00    +0.003 C 
ATOM     10  C   UNL     1      36.764 -24.139 -14.163  0.00  0.00    +0.043 C 
BRANCH   6  11
ATOM     11  O   UNL     1      33.237 -24.201 -13.173  0.00  0.00    -0.468 OA
ATOM     12  C   UNL     1      32.132 -24.791 -13.856  0.00  0.00    +0.253 C 
ENDBRANCH   6  11
BRANCH   8  13
ATOM     13  O   UNL     1      35.720 -24.979 -12.195  0.00  0.00    -0.319 OA
BRANCH  13  14
ATOM     14  S   UNL     1      36.629 -24.266 -11.026  0.00  0.00    +0.282 S 
ATOM     15  O   UNL     1      36.679 -22.696 -11.472  0.00  0.00    -0.012 OA
ATOM     16  O   UNL     1      35.921 -24.346  -9.761  0.00  0.00    -0.105 OA
ATOM     17  O   UNL     1      37.978 -24.790 -11.135  0.00  0.00    -0.105 OA
ENDBRANCH  13  14
ENDBRANCH   8  13
ENDBRANCH   3   5
ENDBRANCH   2   4
BRANCH   2  18
ATOM     18  C   UNL     1      34.983 -21.739 -19.973  0.00  0.00    +0.138 C 
BRANCH  18  20
ATOM     19  O   UNL     1      32.780 -21.153 -19.190  0.00  0.00    -0.291 OA
ATOM     20  C   UNL     1      33.697 -20.937 -19.979  0.00  0.00    +0.181 C 
BRANCH  20  22
ATOM     21  C   UNL     1      34.603 -19.687 -21.894  0.00  0.00    +0.003 C 
ATOM     22  C   UNL     1      33.591 -19.890 -21.038  0.00  0.00    +0.038 C 
BRANCH  21  23
ATOM     23  C   UNL     1      34.601 -18.678 -22.967  0.00  0.00    +0.003 C 
ATOM     24  C   UNL     1      34.747 -17.326 -22.654  0.00  0.00    +0.040 C 
ATOM     25  C   UNL     1      34.746 -16.370 -23.669  0.00  0.00    +0.172 C 
ATOM     26  C   UNL     1      34.453 -19.072 -24.297  0.00  0.00    +0.003 C 
ATOM     27  C   UNL     1      34.597 -16.765 -24.998  0.00  0.00    +0.168 C 
ATOM     28  C   UNL     1      34.450 -18.116 -25.313  0.00  0.00    +0.040 C 
BRANCH  25  29
ATOM     29  O   UNL     1      34.890 -15.053 -23.350  0.00  0.00    -0.468 OA
ATOM     30  C   UNL     1      34.479 -14.655 -22.044  0.00  0.00    +0.253 C 
ENDBRANCH  25  29
BRANCH  27  31
ATOM     31  O   UNL     1      34.594 -15.841 -26.000  0.00  0.00    -0.503 OA
ATOM     32  H   UNL     1      35.355 -15.317 -26.156  0.00  0.00    +0.292 HD
ENDBRANCH  27  31
ENDBRANCH  21  23
ENDBRANCH  20  22
ENDBRANCH  18  20
ENDBRANCH   2  18
TORSDOF 11
ENDMDL
MODEL 6
REMARK VINA RESULT:     -10.8      3.455     12.231
REMARK  Name = 66645351
REMARK  11 active torsions:
REMARK  status: ('A' for Active; 'I' for Inactive)
REMARK    1  A    between atoms: C_2  and  C_4
REMARK    2  A    between atoms: C_2  and  C_18
REMARK    3  A    between atoms: C_3  and  C_5
REMARK    4  A    between atoms: C_6  and  O_11
REMARK    5  A    between atoms: C_8  and  O_13
REMARK    6  A    between atoms: O_13  and  S_14
REMARK    7  A    between atoms: C_18  and  C_20
REMARK    8  A    between atoms: C_20  and  C_22
REMARK    9  A    between atoms: C_21  and  C_23
REMARK   10  A    between atoms: C_25  and  O_29
REMARK   11  A    between atoms: C_27  and  O_31
REMARK                            x       y       z     vdW  Elec       q    Type
REMARK                         _______ _______ _______ _____ _____    ______ ____
ROOT
ATOM      1  O   UNL     1      32.886 -21.037 -19.919  0.00  0.00    -0.291 OA
ATOM      2  C   UNL     1      33.951 -21.559 -19.600  0.00  0.00    +0.181 C 
ENDROOT
BRANCH   2   4
ATOM      3  C   UNL     1      35.241 -22.338 -17.655  0.00  0.00    +0.003 C 
ATOM      4  C   UNL     1      34.090 -22.351 -18.341  0.00  0.00    +0.038 C 
BRANCH   3   5
ATOM      5  C   UNL     1      35.477 -23.076 -16.401  0.00  0.00    +0.003 C 
ATOM      6  C   UNL     1      36.996 -23.889 -14.707  0.00  0.00    +0.175 C 
ATOM      7  C   UNL     1      36.771 -23.190 -15.893  0.00  0.00    +0.040 C 
ATOM      8  C   UNL     1      35.925 -24.473 -14.028  0.00  0.00    +0.209 C 
ATOM      9  C   UNL     1      34.407 -23.660 -15.723  0.00  0.00    +0.003 C 
ATOM     10  C   UNL     1      34.631 -24.358 -14.537  0.00  0.00    +0.043 C 
BRANCH   6  11
ATOM     11  O   UNL     1      38.264 -23.993 -14.220  0.00  0.00    -0.468 OA
ATOM     12  C   UNL     1      39.049 -25.088 -14.687  0.00  0.00    +0.253 C 
ENDBRANCH   6  11
BRANCH   8  13
ATOM     13  O   UNL     1      36.131 -25.158 -12.869  0.00  0.00    -0.319 OA
BRANCH  13  14
ATOM     14  S   UNL     1      36.280 -24.317 -11.465  0.00  0.00    +0.282 S 
ATOM     15  O   UNL     1      37.819 -24.602 -10.999  0.00  0.00    -0.012 OA
ATOM     16  O   UNL     1      36.156 -22.899 -11.748  0.00  0.00    -0.105 OA
ATOM     17  O   UNL     1      35.409 -24.938 -10.484  0.00  0.00    -0.105 OA
ENDBRANCH  13  14
ENDBRANCH   8  13
ENDBRANCH   3   5
ENDBRANCH   2   4
BRANCH   2  18
ATOM     18  C   UNL     1      35.213 -21.407 -20.424  0.00  0.00    +0.138 C 
BRANCH  18  20
ATOM     19  O   UNL     1      36.697 -19.586 -19.885  0.00  0.00    -0.291 OA
ATOM     20  C   UNL     1      35.745 -19.992 -20.545  0.00  0.00    +0.181 C 
BRANCH  20  22
ATOM     21  C   UNL     1      35.678 -18.292 -22.322  0.00  0.00    +0.003 C 
ATOM     22  C   UNL     1      35.007 -19.102 -21.490  0.00  0.00    +0.038 C 
BRANCH  21  23
ATOM     23  C   UNL     1      35.047 -17.372 -23.284  0.00  0.00    +0.003 C 
ATOM     24  C   UNL     1      34.742 -16.065 -22.904  0.00  0.00    +0.040 C 
ATOM     25  C   UNL     1      34.145 -15.194 -23.814  0.00  0.00    +0.172 C 
ATOM     26  C   UNL     1      34.752 -17.808 -24.577  0.00  0.00    +0.003 C 
ATOM     27  C   UNL     1      33.851 -15.631 -25.106  0.00  0.00    +0.168 C 
ATOM     28  C   UNL     1      34.153 -16.938 -25.487  0.00  0.00    +0.040 C 
BRANCH  25  29
ATOM     29  O   UNL     1      33.853 -13.920 -23.431  0.00  0.00    -0.468 OA
ATOM     30  C   UNL     1      32.682 -13.735 -22.638  0.00  0.00    +0.253 C 
ENDBRANCH  25  29
BRANCH  27  31
ATOM     31  O   UNL     1      33.266 -14.790 -26.005  0.00  0.00    -0.503 OA
ATOM     32  H   UNL     1      33.795 -14.205 -26.512  0.00  0.00    +0.292 HD
ENDBRANCH  27  31
ENDBRANCH  21  23
ENDBRANCH  20  22
ENDBRANCH  18  20
ENDBRANCH   2  18
TORSDOF 11
ENDMDL
MODEL 7
REMARK VINA RESULT:     -10.7      3.557     11.988
REMARK  Name = 66645351
REMARK  11 active torsions:
REMARK  status: ('A' for Active; 'I' for Inactive)
REMARK    1  A    between atoms: C_2  and  C_4
REMARK    2  A    between atoms: C_2  and  C_18
REMARK    3  A    between atoms: C_3  and  C_5
REMARK    4  A    between atoms: C_6  and  O_11
REMARK    5  A    between atoms: C_8  and  O_13
REMARK    6  A    between atoms: O_13  and  S_14
REMARK    7  A    between atoms: C_18  and  C_20
REMARK    8  A    between atoms: C_20  and  C_22
REMARK    9  A    between atoms: C_21  and  C_23
REMARK   10  A    between atoms: C_25  and  O_29
REMARK   11  A    between atoms: C_27  and  O_31
REMARK                            x       y       z     vdW  Elec       q    Type
REMARK                         _______ _______ _______ _____ _____    ______ ____
ROOT
ATOM      1  O   UNL     1      32.840 -20.811 -19.853  0.00  0.00    -0.291 OA
ATOM      2  C   UNL     1      33.921 -21.361 -19.659  0.00  0.00    +0.181 C 
ENDROOT
BRANCH   2   4
ATOM      3  C   UNL     1      35.227 -22.100 -17.709  0.00  0.00    +0.003 C 
ATOM      4  C   UNL     1      34.147 -22.257 -18.486  0.00  0.00    +0.038 C 
BRANCH   3   5
ATOM      5  C   UNL     1      35.536 -22.924 -16.526  0.00  0.00    +0.003 C 
ATOM      6  C   UNL     1      37.143 -23.801 -14.950  0.00  0.00    +0.175 C 
ATOM      7  C   UNL     1      36.849 -23.021 -16.069  0.00  0.00    +0.040 C 
ATOM      8  C   UNL     1      36.121 -24.484 -14.289  0.00  0.00    +0.209 C 
ATOM      9  C   UNL     1      34.514 -23.607 -15.866  0.00  0.00    +0.003 C 
ATOM     10  C   UNL     1      34.807 -24.387 -14.747  0.00  0.00    +0.043 C 
BRANCH   6  11
ATOM     11  O   UNL     1      38.430 -23.887 -14.511  0.00  0.00    -0.468 OA
ATOM     12  C   UNL     1      39.193 -25.006 -14.959  0.00  0.00    +0.253 C 
ENDBRANCH   6  11
BRANCH   8  13
ATOM     13  O   UNL     1      36.394 -25.249 -13.196  0.00  0.00    -0.319 OA
BRANCH  13  14
ATOM     14  S   UNL     1      36.439 -24.534 -11.717  0.00  0.00    +0.282 S 
ATOM     15  O   UNL     1      36.143 -22.961 -12.034  0.00  0.00    -0.012 OA
ATOM     16  O   UNL     1      35.341 -25.041 -10.914  0.00  0.00    -0.105 OA
ATOM     17  O   UNL     1      37.801 -24.628 -11.223  0.00  0.00    -0.105 OA
ENDBRANCH  13  14
ENDBRANCH   8  13
ENDBRANCH   3   5
ENDBRANCH   2   4
BRANCH   2  18
ATOM     18  C   UNL     1      35.120 -21.143 -20.559  0.00  0.00    +0.138 C 
BRANCH  18  20
ATOM     19  O   UNL     1      36.795 -19.460 -20.146  0.00  0.00    -0.291 OA
ATOM     20  C   UNL     1      35.677 -19.733 -20.572  0.00  0.00    +0.181 C 
BRANCH  20  22
ATOM     21  C   UNL     1      35.106 -17.385 -21.039  0.00  0.00    +0.003 C 
ATOM     22  C   UNL     1      34.758 -18.679 -21.098  0.00  0.00    +0.038 C 
BRANCH  21  23
ATOM     23  C   UNL     1      34.271 -16.271 -21.521  0.00  0.00    +0.003 C 
ATOM     24  C   UNL     1      34.206 -15.988 -22.885  0.00  0.00    +0.040 C 
ATOM     25  C   UNL     1      33.417 -14.933 -23.343  0.00  0.00    +0.172 C 
ATOM     26  C   UNL     1      33.546 -15.498 -20.614  0.00  0.00    +0.003 C 
ATOM     27  C   UNL     1      32.692 -14.161 -22.435  0.00  0.00    +0.168 C 
ATOM     28  C   UNL     1      32.757 -14.442 -21.071  0.00  0.00    +0.040 C 
BRANCH  25  29
ATOM     29  O   UNL     1      33.361 -14.667 -24.678  0.00  0.00    -0.468 OA
ATOM     30  C   UNL     1      33.648 -15.745 -25.566  0.00  0.00    +0.253 C 
ENDBRANCH  25  29
BRANCH  27  31
ATOM     31  O   UNL     1      31.917 -13.127 -22.869  0.00  0.00    -0.503 OA
ATOM     32  H   UNL     1      31.198 -13.291 -23.447  0.00  0.00    +0.292 HD
ENDBRANCH  27  31
ENDBRANCH  21  23
ENDBRANCH  20  22
ENDBRANCH  18  20
ENDBRANCH   2  18
TORSDOF 11
ENDMDL
MODEL 8
REMARK VINA RESULT:     -10.7      1.094      1.738
REMARK  Name = 66645351
REMARK  11 active torsions:
REMARK  status: ('A' for Active; 'I' for Inactive)
REMARK    1  A    between atoms: C_2  and  C_4
REMARK    2  A    between atoms: C_2  and  C_18
REMARK    3  A    between atoms: C_3  and  C_5
REMARK    4  A    between atoms: C_6  and  O_11
REMARK    5  A    between atoms: C_8  and  O_13
REMARK    6  A    between atoms: O_13  and  S_14
REMARK    7  A    between atoms: C_18  and  C_20
REMARK    8  A    between atoms: C_20  and  C_22
REMARK    9  A    between atoms: C_21  and  C_23
REMARK   10  A    between atoms: C_25  and  O_29
REMARK   11  A    between atoms: C_27  and  O_31
REMARK                            x       y       z     vdW  Elec       q    Type
REMARK                         _______ _______ _______ _____ _____    ______ ____
ROOT
ATOM      1  O   UNL     1      36.470 -20.716 -18.794  0.00  0.00    -0.291 OA
ATOM      2  C   UNL     1      35.818 -21.115 -19.755  0.00  0.00    +0.181 C 
ENDROOT
BRANCH   2   4
ATOM      3  C   UNL     1      35.083 -19.203 -21.117  0.00  0.00    +0.003 C 
ATOM      4  C   UNL     1      35.765 -20.353 -21.038  0.00  0.00    +0.038 C 
BRANCH   3   5
ATOM      5  C   UNL     1      34.976 -18.373 -22.331  0.00  0.00    +0.003 C 
ATOM      6  C   UNL     1      34.927 -16.197 -23.379  0.00  0.00    +0.175 C 
ATOM      7  C   UNL     1      35.028 -16.983 -22.231  0.00  0.00    +0.040 C 
ATOM      8  C   UNL     1      34.774 -16.802 -24.628  0.00  0.00    +0.209 C 
ATOM      9  C   UNL     1      34.823 -18.978 -23.578  0.00  0.00    +0.003 C 
ATOM     10  C   UNL     1      34.722 -18.193 -24.726  0.00  0.00    +0.043 C 
BRANCH   6  11
ATOM     11  O   UNL     1      34.981 -14.840 -23.270  0.00  0.00    -0.468 OA
ATOM     12  C   UNL     1      34.307 -14.253 -22.159  0.00  0.00    +0.253 C 
ENDBRANCH   6  11
BRANCH   8  13
ATOM     13  O   UNL     1      34.674 -16.046 -25.756  0.00  0.00    -0.319 OA
BRANCH  13  14
ATOM     14  S   UNL     1      33.202 -15.455 -26.189  0.00  0.00    +0.282 S 
ATOM     15  O   UNL     1      33.530 -14.483 -27.458  0.00  0.00    -0.012 OA
ATOM     16  O   UNL     1      32.376 -16.549 -26.667  0.00  0.00    -0.105 OA
ATOM     17  O   UNL     1      32.731 -14.611 -25.106  0.00  0.00    -0.105 OA
ENDBRANCH  13  14
ENDBRANCH   8  13
ENDBRANCH   3   5
ENDBRANCH   2   4
BRANCH   2  18
ATOM     18  C   UNL     1      34.982 -22.378 -19.706  0.00  0.00    +0.138 C 
BRANCH  18  20
ATOM     19  O   UNL     1      32.677 -21.691 -19.552  0.00  0.00    -0.291 OA
ATOM     20  C   UNL     1      33.637 -22.242 -19.020  0.00  0.00    +0.181 C 
BRANCH  20  22
ATOM     21  C   UNL     1      34.678 -22.980 -16.917  0.00  0.00    +0.003 C 
ATOM     22  C   UNL     1      33.560 -22.783 -17.631  0.00  0.00    +0.038 C 
BRANCH  21  23
ATOM     23  C   UNL     1      34.712 -23.515 -15.545  0.00  0.00    +0.003 C 
ATOM     24  C   UNL     1      35.917 -23.952 -14.995  0.00  0.00    +0.040 C 
ATOM     25  C   UNL     1      35.950 -24.458 -13.696  0.00  0.00    +0.172 C 
ATOM     26  C   UNL     1      33.538 -23.586 -14.794  0.00  0.00    +0.003 C 
ATOM     27  C   UNL     1      34.776 -24.529 -12.946  0.00  0.00    +0.168 C 
ATOM     28  C   UNL     1      33.570 -24.094 -13.495  0.00  0.00    +0.040 C 
BRANCH  25  29
ATOM     29  O   UNL     1      37.134 -24.881 -13.171  0.00  0.00    -0.468 OA
ATOM     30  C   UNL     1      37.612 -26.156 -13.596  0.00  0.00    +0.253 C 
ENDBRANCH  25  29
BRANCH  27  31
ATOM     31  O   UNL     1      34.794 -25.023 -11.676  0.00  0.00    -0.503 OA
ATOM     32  H   UNL     1      34.487 -24.496 -10.965  0.00  0.00    +0.292 HD
ENDBRANCH  27  31
ENDBRANCH  21  23
ENDBRANCH  20  22
ENDBRANCH  18  20
ENDBRANCH   2  18
TORSDOF 11
ENDMDL
MODEL 9
REMARK VINA RESULT:     -10.6      2.961      4.157
REMARK  Name = 66645351
REMARK  11 active torsions:
REMARK  status: ('A' for Active; 'I' for Inactive)
REMARK    1  A    between atoms: C_2  and  C_4
REMARK    2  A    between atoms: C_2  and  C_18
REMARK    3  A    between atoms: C_3  and  C_5
REMARK    4  A    between atoms: C_6  and  O_11
REMARK    5  A    between atoms: C_8  and  O_13
REMARK    6  A    between atoms: O_13  and  S_14
REMARK    7  A    between atoms: C_18  and  C_20
REMARK    8  A    between atoms: C_20  and  C_22
REMARK    9  A    between atoms: C_21  and  C_23
REMARK   10  A    between atoms: C_25  and  O_29
REMARK   11  A    between atoms: C_27  and  O_31
REMARK                            x       y       z     vdW  Elec       q    Type
REMARK                         _______ _______ _______ _____ _____    ______ ____
ROOT
ATOM      1  O   UNL     1      32.732 -21.744 -19.460  0.00  0.00    -0.291 OA
ATOM      2  C   UNL     1      33.747 -21.162 -19.833  0.00  0.00    +0.181 C 
ENDROOT
BRANCH   2   4
ATOM      3  C   UNL     1      34.612 -19.915 -21.770  0.00  0.00    +0.003 C 
ATOM      4  C   UNL     1      33.690 -20.029 -20.804  0.00  0.00    +0.038 C 
BRANCH   3   5
ATOM      5  C   UNL     1      34.639 -18.841 -22.780  0.00  0.00    +0.003 C 
ATOM      6  C   UNL     1      34.869 -16.502 -23.340  0.00  0.00    +0.175 C 
ATOM      7  C   UNL     1      34.843 -17.520 -22.385  0.00  0.00    +0.040 C 
ATOM      8  C   UNL     1      34.690 -16.808 -24.690  0.00  0.00    +0.209 C 
ATOM      9  C   UNL     1      34.460 -19.148 -24.129  0.00  0.00    +0.003 C 
ATOM     10  C   UNL     1      34.486 -18.131 -25.084  0.00  0.00    +0.043 C 
BRANCH   6  11
ATOM     11  O   UNL     1      35.070 -15.215 -22.943  0.00  0.00    -0.468 OA
ATOM     12  C   UNL     1      34.320 -14.758 -21.819  0.00  0.00    +0.253 C 
ENDBRANCH   6  11
BRANCH   8  13
ATOM     13  O   UNL     1      34.712 -15.825 -25.632  0.00  0.00    -0.319 OA
BRANCH  13  14
ATOM     14  S   UNL     1      33.290 -15.169 -26.129  0.00  0.00    +0.282 S 
ATOM     15  O   UNL     1      33.719 -14.201 -27.372  0.00  0.00    -0.012 OA
ATOM     16  O   UNL     1      32.443 -16.223 -26.658  0.00  0.00    -0.105 OA
ATOM     17  O   UNL     1      32.801 -14.314 -25.063  0.00  0.00    -0.105 OA
ENDBRANCH  13  14
ENDBRANCH   8  13
ENDBRANCH   3   5
ENDBRANCH   2   4
BRANCH   2  18
ATOM     18  C   UNL     1      35.134 -21.571 -19.382  0.00  0.00    +0.138 C 
BRANCH  18  20
ATOM     19  O   UNL     1      36.232 -22.320 -17.371  0.00  0.00    -0.291 OA
ATOM     20  C   UNL     1      35.202 -22.269 -18.037  0.00  0.00    +0.181 C 
BRANCH  20  22
ATOM     21  C   UNL     1      33.635 -22.993 -16.284  0.00  0.00    +0.003 C 
ATOM     22  C   UNL     1      33.943 -22.933 -17.588  0.00  0.00    +0.038 C 
BRANCH  21  23
ATOM     23  C   UNL     1      32.424 -23.631 -15.738  0.00  0.00    +0.003 C 
ATOM     24  C   UNL     1      31.192 -23.438 -16.363  0.00  0.00    +0.040 C 
ATOM     25  C   UNL     1      30.045 -24.040 -15.846  0.00  0.00    +0.172 C 
ATOM     26  C   UNL     1      32.509 -24.426 -14.595  0.00  0.00    +0.003 C 
ATOM     27  C   UNL     1      30.131 -24.836 -14.703  0.00  0.00    +0.168 C 
ATOM     28  C   UNL     1      31.362 -25.028 -14.077  0.00  0.00    +0.040 C 
BRANCH  25  29
ATOM     29  O   UNL     1      28.848 -23.845 -16.465  0.00  0.00    -0.468 OA
ATOM     30  C   UNL     1      28.156 -22.633 -16.169  0.00  0.00    +0.253 C 
ENDBRANCH  25  29
BRANCH  27  31
ATOM     31  O   UNL     1      29.018 -25.430 -14.188  0.00  0.00    -0.503 OA
ATOM     32  H   UNL     1      28.271 -25.578 -14.734  0.00  0.00    +0.292 HD
ENDBRANCH  27  31
ENDBRANCH  21  23
ENDBRANCH  20  22
ENDBRANCH  18  20
ENDBRANCH   2  18
TORSDOF 11
ENDMDL
