MODEL 1
REMARK VINA RESULT:      -9.9      0.000      0.000
REMARK  Name = 65130
REMARK  11 active torsions:
REMARK  status: ('A' for Active; 'I' for Inactive)
REMARK    1  A    between atoms: C_1  and  C_2
REMARK    2  A    between atoms: C_1  and  C_18
REMARK    3  A    between atoms: C_2  and  C_3
REMARK    4  A    between atoms: C_3  and  C_4
REMARK    5  A    between atoms: C_4  and  O_5
REMARK    6  A    between atoms: O_5  and  C_6
REMARK    7  A    between atoms: C_9  and  C_14
REMARK    8  A    between atoms: C_18  and  C_19
REMARK    9  A    between atoms: C_19  and  O_20
REMARK   10  A    between atoms: O_20  and  C_21
REMARK   11  A    between atoms: C_24  and  C_29
REMARK                            x       y       z     vdW  Elec       q    Type
REMARK                         _______ _______ _______ _____ _____    ______ ____
ROOT
ATOM      1  C   UNL     1      35.425 -23.456 -15.077  0.00  0.00    +0.004 C 
ENDROOT
BRANCH   1   2
ATOM      2  C   UNL     1      34.955 -22.842 -16.396  0.00  0.00    +0.004 C 
BRANCH   2   3
ATOM      3  C   UNL     1      33.706 -23.547 -16.923  0.00  0.00    +0.047 C 
BRANCH   3   4
ATOM      4  C   UNL     1      32.936 -22.669 -17.900  0.00  0.00    +0.205 C 
BRANCH   4   5
ATOM      5  O   UNL     1      33.526 -22.787 -19.187  0.00  0.00    -0.475 OA
BRANCH   5   6
ATOM      6  C   UNL     1      33.986 -21.632 -19.764  0.00  0.00    +0.139 C 
ATOM      7  C   UNL     1      35.359 -21.406 -19.874  0.00  0.00    +0.037 C 
ATOM      8  C   UNL     1      33.083 -20.683 -20.242  0.00  0.00    +0.037 C 
ATOM      9  C   UNL     1      34.924 -19.283 -20.942  0.00  0.00    +0.031 C 
ATOM     10  C   UNL     1      35.827 -20.232 -20.464  0.00  0.00    +0.006 C 
ATOM     11  C   UNL     1      33.552 -19.509 -20.832  0.00  0.00    +0.006 C 
BRANCH   9  14
ATOM     12  N   UNL     1      36.220 -18.089 -22.691  0.00  0.00    -0.343 N 
ATOM     13  N   UNL     1      35.089 -16.888 -21.036  0.00  0.00    -0.285 NA
ATOM     14  C   UNL     1      35.411 -18.060 -21.557  0.00  0.00    +0.117 C 
ATOM     15  H   UNL     1      36.538 -17.248 -23.091  0.00  0.00    +0.144 HD
ATOM     16  H   UNL     1      36.473 -18.952 -23.093  0.00  0.00    +0.144 HD
ATOM     17  H   UNL     1      35.418 -16.058 -21.451  0.00  0.00    +0.188 HD
ENDBRANCH   9  14
ENDBRANCH   5   6
ENDBRANCH   4   5
ENDBRANCH   3   4
ENDBRANCH   2   3
ENDBRANCH   1   2
BRANCH   1  18
ATOM     18  C   UNL     1      34.454 -24.526 -14.583  0.00  0.00    +0.047 C 
BRANCH  18  19
ATOM     19  C   UNL     1      33.645 -24.042 -13.387  0.00  0.00    +0.205 C 
BRANCH  19  20
ATOM     20  O   UNL     1      32.458 -24.816 -13.293  0.00  0.00    -0.475 OA
BRANCH  20  21
ATOM     21  C   UNL     1      31.388 -24.399 -14.043  0.00  0.00    +0.139 C 
ATOM     22  C   UNL     1      30.457 -25.330 -14.506  0.00  0.00    +0.037 C 
ATOM     23  C   UNL     1      31.229 -23.046 -14.342  0.00  0.00    +0.037 C 
ATOM     24  C   UNL     1      29.209 -23.553 -15.566  0.00  0.00    +0.031 C 
ATOM     25  C   UNL     1      29.367 -24.906 -15.267  0.00  0.00    +0.006 C 
ATOM     26  C   UNL     1      30.140 -22.623 -15.102  0.00  0.00    +0.006 C 
BRANCH  24  29
ATOM     27  N   UNL     1      27.093 -22.280 -15.820  0.00  0.00    -0.343 N 
ATOM     28  N   UNL     1      27.954 -23.503 -17.614  0.00  0.00    -0.285 NA
ATOM     29  C   UNL     1      28.072 -23.111 -16.359  0.00  0.00    +0.117 C 
ATOM     30  H   UNL     1      26.332 -21.992 -16.374  0.00  0.00    +0.144 HD
ATOM     31  H   UNL     1      27.161 -21.979 -14.885  0.00  0.00    +0.144 HD
ATOM     32  H   UNL     1      27.185 -23.206 -18.153  0.00  0.00    +0.188 HD
ENDBRANCH  24  29
ENDBRANCH  20  21
ENDBRANCH  19  20
ENDBRANCH  18  19
ENDBRANCH   1  18
TORSDOF 11
ENDMDL
MODEL 2
REMARK VINA RESULT:      -9.8      0.376      7.989
REMARK  Name = 65130
REMARK  11 active torsions:
REMARK  status: ('A' for Active; 'I' for Inactive)
REMARK    1  A    between atoms: C_1  and  C_2
REMARK    2  A    between atoms: C_1  and  C_18
REMARK    3  A    between atoms: C_2  and  C_3
REMARK    4  A    between atoms: C_3  and  C_4
REMARK    5  A    between atoms: C_4  and  O_5
REMARK    6  A    between atoms: O_5  and  C_6
REMARK    7  A    between atoms: C_9  and  C_14
REMARK    8  A    between atoms: C_18  and  C_19
REMARK    9  A    between atoms: C_19  and  O_20
REMARK   10  A    between atoms: O_20  and  C_21
REMARK   11  A    between atoms: C_24  and  C_29
REMARK                            x       y       z     vdW  Elec       q    Type
REMARK                         _______ _______ _______ _____ _____    ______ ____
ROOT
ATOM      1  C   UNL     1      34.976 -22.850 -16.117  0.00  0.00    +0.004 C 
ENDROOT
BRANCH   1   2
ATOM      2  C   UNL     1      35.351 -23.497 -14.784  0.00  0.00    +0.004 C 
BRANCH   2   3
ATOM      3  C   UNL     1      34.361 -24.597 -14.402  0.00  0.00    +0.047 C 
BRANCH   3   4
ATOM      4  C   UNL     1      33.433 -24.152 -13.280  0.00  0.00    +0.205 C 
BRANCH   4   5
ATOM      5  O   UNL     1      32.260 -24.954 -13.310  0.00  0.00    -0.475 OA
BRANCH   5   6
ATOM      6  C   UNL     1      31.213 -24.489 -14.062  0.00  0.00    +0.139 C 
ATOM      7  C   UNL     1      30.315 -25.389 -14.638  0.00  0.00    +0.037 C 
ATOM      8  C   UNL     1      31.043 -23.118 -14.251  0.00  0.00    +0.037 C 
ATOM      9  C   UNL     1      29.078 -23.545 -15.590  0.00  0.00    +0.031 C 
ATOM     10  C   UNL     1      29.248 -24.916 -15.402  0.00  0.00    +0.006 C 
ATOM     11  C   UNL     1      29.975 -22.646 -15.014  0.00  0.00    +0.006 C 
BRANCH   9  14
ATOM     12  N   UNL     1      26.980 -22.239 -15.830  0.00  0.00    -0.343 N 
ATOM     13  N   UNL     1      27.875 -23.379 -17.664  0.00  0.00    -0.285 NA
ATOM     14  C   UNL     1      27.966 -23.052 -16.385  0.00  0.00    +0.117 C 
ATOM     15  H   UNL     1      26.236 -21.916 -16.387  0.00  0.00    +0.144 HD
ATOM     16  H   UNL     1      27.028 -21.987 -14.879  0.00  0.00    +0.144 HD
ATOM     17  H   UNL     1      27.122 -23.046 -18.204  0.00  0.00    +0.188 HD
ENDBRANCH   9  14
ENDBRANCH   5   6
ENDBRANCH   4   5
ENDBRANCH   3   4
ENDBRANCH   2   3
ENDBRANCH   1   2
BRANCH   1  18
ATOM     18  C   UNL     1      33.741 -23.510 -16.728  0.00  0.00    +0.047 C 
BRANCH  18  19
ATOM     19  C   UNL     1      33.324 -22.830 -18.025  0.00  0.00    +0.205 C 
BRANCH  19  20
ATOM     20  O   UNL     1      34.423 -22.845 -18.925  0.00  0.00    -0.475 OA
BRANCH  20  21
ATOM     21  C   UNL     1      34.693 -21.678 -19.590  0.00  0.00    +0.139 C 
ATOM     22  C   UNL     1      36.015 -21.270 -19.773  0.00  0.00    +0.037 C 
ATOM     23  C   UNL     1      33.648 -20.898 -20.085  0.00  0.00    +0.037 C 
ATOM     24  C   UNL     1      35.245 -19.302 -20.946  0.00  0.00    +0.031 C 
ATOM     25  C   UNL     1      36.290 -20.082 -20.452  0.00  0.00    +0.006 C 
ATOM     26  C   UNL     1      33.923 -19.711 -20.763  0.00  0.00    +0.006 C 
BRANCH  24  29
ATOM     27  N   UNL     1      35.069 -16.838 -21.185  0.00  0.00    -0.343 N 
ATOM     28  N   UNL     1      36.241 -18.094 -22.769  0.00  0.00    -0.285 NA
ATOM     29  C   UNL     1      35.532 -18.065 -21.655  0.00  0.00    +0.117 C 
ATOM     30  H   UNL     1      35.275 -16.012 -21.679  0.00  0.00    +0.144 HD
ATOM     31  H   UNL     1      34.537 -16.795 -20.358  0.00  0.00    +0.144 HD
ATOM     32  H   UNL     1      36.436 -17.257 -23.250  0.00  0.00    +0.188 HD
ENDBRANCH  24  29
ENDBRANCH  20  21
ENDBRANCH  19  20
ENDBRANCH  18  19
ENDBRANCH   1  18
TORSDOF 11
ENDMDL
MODEL 3
REMARK VINA RESULT:      -9.8      0.484      1.414
REMARK  Name = 65130
REMARK  11 active torsions:
REMARK  status: ('A' for Active; 'I' for Inactive)
REMARK    1  A    between atoms: C_1  and  C_2
REMARK    2  A    between atoms: C_1  and  C_18
REMARK    3  A    between atoms: C_2  and  C_3
REMARK    4  A    between atoms: C_3  and  C_4
REMARK    5  A    between atoms: C_4  and  O_5
REMARK    6  A    between atoms: O_5  and  C_6
REMARK    7  A    between atoms: C_9  and  C_14
REMARK    8  A    between atoms: C_18  and  C_19
REMARK    9  A    between atoms: C_19  and  O_20
REMARK   10  A    between atoms: O_20  and  C_21
REMARK   11  A    between atoms: C_24  and  C_29
REMARK                            x       y       z     vdW  Elec       q    Type
REMARK                         _______ _______ _______ _____ _____    ______ ____
ROOT
ATOM      1  C   UNL     1      35.335 -23.348 -14.714  0.00  0.00    +0.004 C 
ENDROOT
BRANCH   1   2
ATOM      2  C   UNL     1      35.134 -22.978 -16.183  0.00  0.00    +0.004 C 
BRANCH   2   3
ATOM      3  C   UNL     1      33.767 -23.434 -16.690  0.00  0.00    +0.047 C 
BRANCH   3   4
ATOM      4  C   UNL     1      33.459 -22.862 -18.067  0.00  0.00    +0.205 C 
BRANCH   4   5
ATOM      5  O   UNL     1      34.680 -22.676 -18.769  0.00  0.00    -0.475 OA
BRANCH   5   6
ATOM      6  C   UNL     1      34.785 -21.545 -19.537  0.00  0.00    +0.139 C 
ATOM      7  C   UNL     1      33.634 -20.901 -19.991  0.00  0.00    +0.037 C 
ATOM      8  C   UNL     1      36.043 -21.038 -19.865  0.00  0.00    +0.037 C 
ATOM      9  C   UNL     1      34.997 -19.242 -21.098  0.00  0.00    +0.031 C 
ATOM     10  C   UNL     1      33.741 -19.749 -20.771  0.00  0.00    +0.006 C 
ATOM     11  C   UNL     1      36.149 -19.886 -20.644  0.00  0.00    +0.006 C 
BRANCH   9  14
ATOM     12  N   UNL     1      36.101 -17.911 -22.879  0.00  0.00    -0.343 N 
ATOM     13  N   UNL     1      34.259 -17.045 -21.731  0.00  0.00    -0.285 NA
ATOM     14  C   UNL     1      35.109 -18.042 -21.910  0.00  0.00    +0.117 C 
ATOM     15  H   UNL     1      36.158 -17.089 -23.418  0.00  0.00    +0.144 HD
ATOM     16  H   UNL     1      36.746 -18.641 -23.026  0.00  0.00    +0.144 HD
ATOM     17  H   UNL     1      34.332 -16.231 -22.280  0.00  0.00    +0.188 HD
ENDBRANCH   9  14
ENDBRANCH   5   6
ENDBRANCH   4   5
ENDBRANCH   3   4
ENDBRANCH   2   3
ENDBRANCH   1   2
BRANCH   1  18
ATOM     18  C   UNL     1      34.433 -24.510 -14.305  0.00  0.00    +0.047 C 
BRANCH  18  19
ATOM     19  C   UNL     1      33.417 -24.090 -13.251  0.00  0.00    +0.205 C 
BRANCH  19  20
ATOM     20  O   UNL     1      32.282 -24.939 -13.344  0.00  0.00    -0.475 OA
BRANCH  20  21
ATOM     21  C   UNL     1      31.226 -24.477 -14.087  0.00  0.00    +0.139 C 
ATOM     22  C   UNL     1      31.051 -23.105 -14.271  0.00  0.00    +0.037 C 
ATOM     23  C   UNL     1      30.328 -25.378 -14.659  0.00  0.00    +0.037 C 
ATOM     24  C   UNL     1      29.080 -23.536 -15.601  0.00  0.00    +0.031 C 
ATOM     25  C   UNL     1      29.978 -22.635 -15.029  0.00  0.00    +0.006 C 
ATOM     26  C   UNL     1      29.256 -24.908 -15.416  0.00  0.00    +0.006 C 
BRANCH  24  29
ATOM     27  N   UNL     1      26.980 -22.233 -15.831  0.00  0.00    -0.343 N 
ATOM     28  N   UNL     1      27.863 -23.376 -17.667  0.00  0.00    -0.285 NA
ATOM     29  C   UNL     1      27.961 -23.046 -16.392  0.00  0.00    +0.117 C 
ATOM     30  H   UNL     1      26.231 -21.911 -16.384  0.00  0.00    +0.144 HD
ATOM     31  H   UNL     1      27.034 -21.978 -14.881  0.00  0.00    +0.144 HD
ATOM     32  H   UNL     1      27.106 -23.046 -18.204  0.00  0.00    +0.188 HD
ENDBRANCH  24  29
ENDBRANCH  20  21
ENDBRANCH  19  20
ENDBRANCH  18  19
ENDBRANCH   1  18
TORSDOF 11
ENDMDL
MODEL 4
REMARK VINA RESULT:      -9.5      3.089      9.759
REMARK  Name = 65130
REMARK  11 active torsions:
REMARK  status: ('A' for Active; 'I' for Inactive)
REMARK    1  A    between atoms: C_1  and  C_2
REMARK    2  A    between atoms: C_1  and  C_18
REMARK    3  A    between atoms: C_2  and  C_3
REMARK    4  A    between atoms: C_3  and  C_4
REMARK    5  A    between atoms: C_4  and  O_5
REMARK    6  A    between atoms: O_5  and  C_6
REMARK    7  A    between atoms: C_9  and  C_14
REMARK    8  A    between atoms: C_18  and  C_19
REMARK    9  A    between atoms: C_19  and  O_20
REMARK   10  A    between atoms: O_20  and  C_21
REMARK   11  A    between atoms: C_24  and  C_29
REMARK                            x       y       z     vdW  Elec       q    Type
REMARK                         _______ _______ _______ _____ _____    ______ ____
ROOT
ATOM      1  C   UNL     1      33.818 -19.661 -20.975  0.00  0.00    +0.004 C 
ENDROOT
BRANCH   1   2
ATOM      2  C   UNL     1      33.396 -20.667 -19.905  0.00  0.00    +0.004 C 
BRANCH   2   3
ATOM      3  C   UNL     1      34.567 -21.553 -19.482  0.00  0.00    +0.047 C 
BRANCH   3   4
ATOM      4  C   UNL     1      34.088 -22.845 -18.833  0.00  0.00    +0.205 C 
BRANCH   4   5
ATOM      5  O   UNL     1      34.394 -22.802 -17.446  0.00  0.00    -0.475 OA
BRANCH   5   6
ATOM      6  C   UNL     1      33.428 -23.257 -16.586  0.00  0.00    +0.139 C 
ATOM      7  C   UNL     1      32.080 -23.138 -16.926  0.00  0.00    +0.037 C 
ATOM      8  C   UNL     1      33.793 -23.841 -15.373  0.00  0.00    +0.037 C 
ATOM      9  C   UNL     1      31.461 -24.186 -14.839  0.00  0.00    +0.031 C 
ATOM     10  C   UNL     1      31.097 -23.603 -16.051  0.00  0.00    +0.006 C 
ATOM     11  C   UNL     1      32.809 -24.306 -14.499  0.00  0.00    +0.006 C 
BRANCH   9  14
ATOM     12  N   UNL     1      29.313 -25.348 -14.395  0.00  0.00    -0.343 N 
ATOM     13  N   UNL     1      30.565 -24.471 -12.627  0.00  0.00    -0.285 NA
ATOM     14  C   UNL     1      30.438 -24.672 -13.928  0.00  0.00    +0.117 C 
ATOM     15  H   UNL     1      28.632 -25.669 -13.760  0.00  0.00    +0.144 HD
ATOM     16  H   UNL     1      29.198 -25.505 -15.360  0.00  0.00    +0.144 HD
ATOM     17  H   UNL     1      29.874 -24.799 -12.009  0.00  0.00    +0.188 HD
ENDBRANCH   9  14
ENDBRANCH   5   6
ENDBRANCH   4   5
ENDBRANCH   3   4
ENDBRANCH   2   3
ENDBRANCH   1   2
BRANCH   1  18
ATOM     18  C   UNL     1      35.264 -19.886 -21.411  0.00  0.00    +0.047 C 
BRANCH  18  19
ATOM     19  C   UNL     1      36.040 -18.578 -21.482  0.00  0.00    +0.205 C 
BRANCH  19  20
ATOM     20  O   UNL     1      35.414 -17.627 -20.631  0.00  0.00    -0.475 OA
BRANCH  20  21
ATOM     21  C   UNL     1      34.890 -16.512 -21.232  0.00  0.00    +0.139 C 
ATOM     22  C   UNL     1      35.012 -16.342 -22.612  0.00  0.00    +0.037 C 
ATOM     23  C   UNL     1      34.236 -15.547 -20.465  0.00  0.00    +0.037 C 
ATOM     24  C   UNL     1      33.823 -14.243 -22.457  0.00  0.00    +0.031 C 
ATOM     25  C   UNL     1      34.477 -15.208 -23.224  0.00  0.00    +0.006 C 
ATOM     26  C   UNL     1      33.702 -14.414 -21.078  0.00  0.00    +0.006 C 
BRANCH  24  29
ATOM     27  N   UNL     1      34.036 -12.262 -23.938  0.00  0.00    -0.343 N 
ATOM     28  N   UNL     1      32.007 -12.728 -22.877  0.00  0.00    -0.285 NA
ATOM     29  C   UNL     1      33.266 -13.062 -23.096  0.00  0.00    +0.117 C 
ATOM     30  H   UNL     1      33.639 -11.466 -24.360  0.00  0.00    +0.144 HD
ATOM     31  H   UNL     1      34.977 -12.492 -24.111  0.00  0.00    +0.144 HD
ATOM     32  H   UNL     1      31.627 -11.928 -23.308  0.00  0.00    +0.188 HD
ENDBRANCH  24  29
ENDBRANCH  20  21
ENDBRANCH  19  20
ENDBRANCH  18  19
ENDBRANCH   1  18
TORSDOF 11
ENDMDL
MODEL 5
REMARK VINA RESULT:      -9.5      6.501     11.428
REMARK  Name = 65130
REMARK  11 active torsions:
REMARK  status: ('A' for Active; 'I' for Inactive)
REMARK    1  A    between atoms: C_1  and  C_2
REMARK    2  A    between atoms: C_1  and  C_18
REMARK    3  A    between atoms: C_2  and  C_3
REMARK    4  A    between atoms: C_3  and  C_4
REMARK    5  A    between atoms: C_4  and  O_5
REMARK    6  A    between atoms: O_5  and  C_6
REMARK    7  A    between atoms: C_9  and  C_14
REMARK    8  A    between atoms: C_18  and  C_19
REMARK    9  A    between atoms: C_19  and  O_20
REMARK   10  A    between atoms: O_20  and  C_21
REMARK   11  A    between atoms: C_24  and  C_29
REMARK                            x       y       z     vdW  Elec       q    Type
REMARK                         _______ _______ _______ _____ _____    ______ ____
ROOT
ATOM      1  C   UNL     1      33.563 -15.684 -21.149  0.00  0.00    +0.004 C 
ENDROOT
BRANCH   1   2
ATOM      2  C   UNL     1      33.941 -15.697 -22.631  0.00  0.00    +0.004 C 
BRANCH   2   3
ATOM      3  C   UNL     1      35.237 -16.470 -22.867  0.00  0.00    +0.047 C 
BRANCH   3   4
ATOM      4  C   UNL     1      35.007 -17.975 -22.837  0.00  0.00    +0.205 C 
BRANCH   4   5
ATOM      5  O   UNL     1      35.780 -18.535 -21.784  0.00  0.00    -0.475 OA
BRANCH   5   6
ATOM      6  C   UNL     1      35.186 -19.520 -21.037  0.00  0.00    +0.139 C 
ATOM      7  C   UNL     1      35.972 -20.414 -20.310  0.00  0.00    +0.037 C 
ATOM      8  C   UNL     1      33.796 -19.626 -21.003  0.00  0.00    +0.037 C 
ATOM      9  C   UNL     1      33.978 -21.520 -19.514  0.00  0.00    +0.031 C 
ATOM     10  C   UNL     1      35.367 -21.414 -19.548  0.00  0.00    +0.006 C 
ATOM     11  C   UNL     1      33.191 -20.626 -20.241  0.00  0.00    +0.006 C 
BRANCH   9  14
ATOM     12  N   UNL     1      32.228 -22.297 -17.933  0.00  0.00    -0.343 N 
ATOM     13  N   UNL     1      33.839 -23.789 -18.733  0.00  0.00    -0.285 NA
ATOM     14  C   UNL     1      33.347 -22.561 -18.720  0.00  0.00    +0.117 C 
ATOM     15  H   UNL     1      31.816 -23.018 -17.404  0.00  0.00    +0.144 HD
ATOM     16  H   UNL     1      31.847 -21.389 -17.907  0.00  0.00    +0.144 HD
ATOM     17  H   UNL     1      33.414 -24.495 -18.196  0.00  0.00    +0.188 HD
ENDBRANCH   9  14
ENDBRANCH   5   6
ENDBRANCH   4   5
ENDBRANCH   3   4
ENDBRANCH   2   3
ENDBRANCH   1   2
BRANCH   1  18
ATOM     18  C   UNL     1      32.838 -14.395 -20.771  0.00  0.00    +0.047 C 
BRANCH  18  19
ATOM     19  C   UNL     1      32.583 -13.516 -21.988  0.00  0.00    +0.205 C 
BRANCH  19  20
ATOM     20  O   UNL     1      31.426 -12.727 -21.749  0.00  0.00    -0.475 OA
BRANCH  20  21
ATOM     21  C   UNL     1      31.632 -11.410 -21.427  0.00  0.00    +0.139 C 
ATOM     22  C   UNL     1      31.548 -10.997 -20.097  0.00  0.00    +0.037 C 
ATOM     23  C   UNL     1      31.926 -10.484 -22.428  0.00  0.00    +0.037 C 
ATOM     24  C   UNL     1      32.055  -8.732 -20.769  0.00  0.00    +0.031 C 
ATOM     25  C   UNL     1      31.761  -9.658 -19.768  0.00  0.00    +0.006 C 
ATOM     26  C   UNL     1      32.138  -9.146 -22.099  0.00  0.00    +0.006 C 
BRANCH  24  29
ATOM     27  N   UNL     1      31.589  -6.313 -21.075  0.00  0.00    -0.343 N 
ATOM     28  N   UNL     1      33.147  -7.020 -19.484  0.00  0.00    -0.285 NA
ATOM     29  C   UNL     1      32.277  -7.336 -20.426  0.00  0.00    +0.117 C 
ATOM     30  H   UNL     1      31.754  -5.374 -20.828  0.00  0.00    +0.144 HD
ATOM     31  H   UNL     1      30.938  -6.528 -21.782  0.00  0.00    +0.144 HD
ATOM     32  H   UNL     1      33.300  -6.076 -19.251  0.00  0.00    +0.188 HD
ENDBRANCH  24  29
ENDBRANCH  20  21
ENDBRANCH  19  20
ENDBRANCH  18  19
ENDBRANCH   1  18
TORSDOF 11
ENDMDL
MODEL 6
REMARK VINA RESULT:      -9.5      6.434      9.772
REMARK  Name = 65130
REMARK  11 active torsions:
REMARK  status: ('A' for Active; 'I' for Inactive)
REMARK    1  A    between atoms: C_1  and  C_2
REMARK    2  A    between atoms: C_1  and  C_18
REMARK    3  A    between atoms: C_2  and  C_3
REMARK    4  A    between atoms: C_3  and  C_4
REMARK    5  A    between atoms: C_4  and  O_5
REMARK    6  A    between atoms: O_5  and  C_6
REMARK    7  A    between atoms: C_9  and  C_14
REMARK    8  A    between atoms: C_18  and  C_19
REMARK    9  A    between atoms: C_19  and  O_20
REMARK   10  A    between atoms: O_20  and  C_21
REMARK   11  A    between atoms: C_24  and  C_29
REMARK                            x       y       z     vdW  Elec       q    Type
REMARK                         _______ _______ _______ _____ _____    ______ ____
ROOT
ATOM      1  C   UNL     1      33.882 -15.900 -22.471  0.00  0.00    +0.004 C 
ENDROOT
BRANCH   1   2
ATOM      2  C   UNL     1      33.898 -15.596 -20.973  0.00  0.00    +0.004 C 
BRANCH   2   3
ATOM      3  C   UNL     1      33.093 -14.339 -20.652  0.00  0.00    +0.047 C 
BRANCH   3   4
ATOM      4  C   UNL     1      32.515 -13.705 -21.910  0.00  0.00    +0.205 C 
BRANCH   4   5
ATOM      5  O   UNL     1      31.390 -12.916 -21.551  0.00  0.00    -0.475 OA
BRANCH   5   6
ATOM      6  C   UNL     1      31.622 -11.589 -21.296  0.00  0.00    +0.139 C 
ATOM      7  C   UNL     1      31.944 -10.723 -22.342  0.00  0.00    +0.037 C 
ATOM      8  C   UNL     1      31.535 -11.104 -19.991  0.00  0.00    +0.037 C 
ATOM      9  C   UNL     1      32.090  -8.888 -20.778  0.00  0.00    +0.031 C 
ATOM     10  C   UNL     1      32.178  -9.373 -22.082  0.00  0.00    +0.006 C 
ATOM     11  C   UNL     1      31.768  -9.753 -19.732  0.00  0.00    +0.006 C 
BRANCH   9  14
ATOM     12  N   UNL     1      31.689  -6.480 -21.232  0.00  0.00    -0.343 N 
ATOM     13  N   UNL     1      33.184  -7.130 -19.557  0.00  0.00    -0.285 NA
ATOM     14  C   UNL     1      32.333  -7.480 -20.507  0.00  0.00    +0.117 C 
ATOM     15  H   UNL     1      31.868  -5.533 -21.031  0.00  0.00    +0.144 HD
ATOM     16  H   UNL     1      31.053  -6.720 -21.945  0.00  0.00    +0.144 HD
ATOM     17  H   UNL     1      33.350  -6.178 -19.372  0.00  0.00    +0.188 HD
ENDBRANCH   9  14
ENDBRANCH   5   6
ENDBRANCH   4   5
ENDBRANCH   3   4
ENDBRANCH   2   3
ENDBRANCH   1   2
BRANCH   1  18
ATOM     18  C   UNL     1      35.267 -16.303 -22.973  0.00  0.00    +0.047 C 
BRANCH  18  19
ATOM     19  C   UNL     1      35.457 -17.814 -22.944  0.00  0.00    +0.205 C 
BRANCH  19  20
ATOM     20  O   UNL     1      36.000 -18.183 -21.684  0.00  0.00    -0.475 OA
BRANCH  20  21
ATOM     21  C   UNL     1      35.406 -19.239 -21.042  0.00  0.00    +0.139 C 
ATOM     22  C   UNL     1      36.188 -20.156 -20.340  0.00  0.00    +0.037 C 
ATOM     23  C   UNL     1      34.020 -19.395 -21.089  0.00  0.00    +0.037 C 
ATOM     24  C   UNL     1      34.198 -21.386 -19.732  0.00  0.00    +0.031 C 
ATOM     25  C   UNL     1      35.584 -21.229 -19.684  0.00  0.00    +0.006 C 
ATOM     26  C   UNL     1      33.417 -20.468 -20.434  0.00  0.00    +0.006 C 
BRANCH  24  29
ATOM     27  N   UNL     1      32.555 -22.304 -18.113  0.00  0.00    -0.343 N 
ATOM     28  N   UNL     1      33.960 -23.739 -19.308  0.00  0.00    -0.285 NA
ATOM     29  C   UNL     1      33.568 -22.505 -19.048  0.00  0.00    +0.117 C 
ATOM     30  H   UNL     1      32.142 -23.076 -17.662  0.00  0.00    +0.144 HD
ATOM     31  H   UNL     1      32.251 -21.392 -17.904  0.00  0.00    +0.144 HD
ATOM     32  H   UNL     1      33.536 -24.498 -18.846  0.00  0.00    +0.188 HD
ENDBRANCH  24  29
ENDBRANCH  20  21
ENDBRANCH  19  20
ENDBRANCH  18  19
ENDBRANCH   1  18
TORSDOF 11
ENDMDL
MODEL 7
REMARK VINA RESULT:      -9.5      3.118      4.937
REMARK  Name = 65130
REMARK  11 active torsions:
REMARK  status: ('A' for Active; 'I' for Inactive)
REMARK    1  A    between atoms: C_1  and  C_2
REMARK    2  A    between atoms: C_1  and  C_18
REMARK    3  A    between atoms: C_2  and  C_3
REMARK    4  A    between atoms: C_3  and  C_4
REMARK    5  A    between atoms: C_4  and  O_5
REMARK    6  A    between atoms: O_5  and  C_6
REMARK    7  A    between atoms: C_9  and  C_14
REMARK    8  A    between atoms: C_18  and  C_19
REMARK    9  A    between atoms: C_19  and  O_20
REMARK   10  A    between atoms: O_20  and  C_21
REMARK   11  A    between atoms: C_24  and  C_29
REMARK                            x       y       z     vdW  Elec       q    Type
REMARK                         _______ _______ _______ _____ _____    ______ ____
ROOT
ATOM      1  C   UNL     1      35.625 -21.030 -19.949  0.00  0.00    +0.004 C 
ENDROOT
BRANCH   1   2
ATOM      2  C   UNL     1      34.151 -20.651 -20.093  0.00  0.00    +0.004 C 
BRANCH   2   3
ATOM      3  C   UNL     1      33.965 -19.509 -21.090  0.00  0.00    +0.047 C 
BRANCH   3   4
ATOM      4  C   UNL     1      35.297 -18.886 -21.484  0.00  0.00    +0.205 C 
BRANCH   4   5
ATOM      5  O   UNL     1      35.462 -17.667 -20.772  0.00  0.00    -0.475 OA
BRANCH   5   6
ATOM      6  C   UNL     1      34.907 -16.545 -21.331  0.00  0.00    +0.139 C 
ATOM      7  C   UNL     1      34.219 -15.635 -20.528  0.00  0.00    +0.037 C 
ATOM      8  C   UNL     1      35.032 -16.313 -22.701  0.00  0.00    +0.037 C 
ATOM      9  C   UNL     1      33.781 -14.259 -22.466  0.00  0.00    +0.031 C 
ATOM     10  C   UNL     1      33.657 -14.491 -21.097  0.00  0.00    +0.006 C 
ATOM     11  C   UNL     1      34.469 -15.169 -23.268  0.00  0.00    +0.006 C 
BRANCH   9  14
ATOM     12  N   UNL     1      33.924 -12.252 -23.921  0.00  0.00    -0.343 N 
ATOM     13  N   UNL     1      31.946 -12.739 -22.776  0.00  0.00    -0.285 NA
ATOM     14  C   UNL     1      33.195 -13.068 -23.058  0.00  0.00    +0.117 C 
ATOM     15  H   UNL     1      33.507 -11.450 -24.311  0.00  0.00    +0.144 HD
ATOM     16  H   UNL     1      34.857 -12.478 -24.141  0.00  0.00    +0.144 HD
ATOM     17  H   UNL     1      31.547 -11.933 -23.176  0.00  0.00    +0.188 HD
ENDBRANCH   9  14
ENDBRANCH   5   6
ENDBRANCH   4   5
ENDBRANCH   3   4
ENDBRANCH   2   3
ENDBRANCH   1   2
BRANCH   1  18
ATOM     18  C   UNL     1      35.880 -21.789 -18.649  0.00  0.00    +0.047 C 
BRANCH  18  19
ATOM     19  C   UNL     1      34.617 -22.468 -18.137  0.00  0.00    +0.205 C 
BRANCH  19  20
ATOM     20  O   UNL     1      34.899 -23.077 -16.885  0.00  0.00    -0.475 OA
BRANCH  20  21
ATOM     21  C   UNL     1      33.823 -23.480 -16.137  0.00  0.00    +0.139 C 
ATOM     22  C   UNL     1      32.531 -23.336 -16.644  0.00  0.00    +0.037 C 
ATOM     23  C   UNL     1      34.018 -24.033 -14.872  0.00  0.00    +0.037 C 
ATOM     24  C   UNL     1      31.630 -24.301 -14.620  0.00  0.00    +0.031 C 
ATOM     25  C   UNL     1      31.435 -23.748 -15.885  0.00  0.00    +0.006 C 
ATOM     26  C   UNL     1      32.923 -24.444 -14.114  0.00  0.00    +0.006 C 
BRANCH  24  29
ATOM     27  N   UNL     1      29.387 -25.345 -14.421  0.00  0.00    -0.343 N 
ATOM     28  N   UNL     1      30.482 -24.535 -12.522  0.00  0.00    -0.285 NA
ATOM     29  C   UNL     1      30.488 -24.731 -13.829  0.00  0.00    +0.117 C 
ATOM     30  H   UNL     1      28.624 -25.629 -13.867  0.00  0.00    +0.144 HD
ATOM     31  H   UNL     1      29.372 -25.498 -15.393  0.00  0.00    +0.144 HD
ATOM     32  H   UNL     1      29.709 -24.825 -11.985  0.00  0.00    +0.188 HD
ENDBRANCH  24  29
ENDBRANCH  20  21
ENDBRANCH  19  20
ENDBRANCH  18  19
ENDBRANCH   1  18
TORSDOF 11
ENDMDL
MODEL 8
REMARK VINA RESULT:      -9.4      4.102      9.657
REMARK  Name = 65130
REMARK  11 active torsions:
REMARK  status: ('A' for Active; 'I' for Inactive)
REMARK    1  A    between atoms: C_1  and  C_2
REMARK    2  A    between atoms: C_1  and  C_18
REMARK    3  A    between atoms: C_2  and  C_3
REMARK    4  A    between atoms: C_3  and  C_4
REMARK    5  A    between atoms: C_4  and  O_5
REMARK    6  A    between atoms: O_5  and  C_6
REMARK    7  A    between atoms: C_9  and  C_14
REMARK    8  A    between atoms: C_18  and  C_19
REMARK    9  A    between atoms: C_19  and  O_20
REMARK   10  A    between atoms: O_20  and  C_21
REMARK   11  A    between atoms: C_24  and  C_29
REMARK                            x       y       z     vdW  Elec       q    Type
REMARK                         _______ _______ _______ _____ _____    ______ ____
ROOT
ATOM      1  C   UNL     1      33.549 -20.160 -20.576  0.00  0.00    +0.004 C 
ENDROOT
BRANCH   1   2
ATOM      2  C   UNL     1      32.987 -21.077 -19.490  0.00  0.00    +0.004 C 
BRANCH   2   3
ATOM      3  C   UNL     1      33.862 -22.315 -19.300  0.00  0.00    +0.047 C 
BRANCH   3   4
ATOM      4  C   UNL     1      33.851 -22.795 -17.855  0.00  0.00    +0.205 C 
BRANCH   4   5
ATOM      5  O   UNL     1      35.180 -22.773 -17.355  0.00  0.00    -0.475 OA
BRANCH   5   6
ATOM      6  C   UNL     1      35.349 -23.098 -16.034  0.00  0.00    +0.139 C 
ATOM      7  C   UNL     1      36.582 -22.888 -15.416  0.00  0.00    +0.037 C 
ATOM      8  C   UNL     1      34.288 -23.638 -15.307  0.00  0.00    +0.037 C 
ATOM      9  C   UNL     1      35.693 -23.755 -13.344  0.00  0.00    +0.031 C 
ATOM     10  C   UNL     1      36.753 -23.216 -14.071  0.00  0.00    +0.006 C 
ATOM     11  C   UNL     1      34.459 -23.966 -13.962  0.00  0.00    +0.006 C 
BRANCH   9  14
ATOM     12  N   UNL     1      36.864 -23.499 -11.170  0.00  0.00    -0.343 N 
ATOM     13  N   UNL     1      35.080 -24.995 -11.379  0.00  0.00    -0.285 NA
ATOM     14  C   UNL     1      35.870 -24.097 -11.943  0.00  0.00    +0.117 C 
ATOM     15  H   UNL     1      36.966 -23.745 -10.222  0.00  0.00    +0.144 HD
ATOM     16  H   UNL     1      37.464 -22.830 -11.572  0.00  0.00    +0.144 HD
ATOM     17  H   UNL     1      35.198 -25.228 -10.430  0.00  0.00    +0.188 HD
ENDBRANCH   9  14
ENDBRANCH   5   6
ENDBRANCH   4   5
ENDBRANCH   3   4
ENDBRANCH   2   3
ENDBRANCH   1   2
BRANCH   1  18
ATOM     18  C   UNL     1      35.076 -20.158 -20.567  0.00  0.00    +0.047 C 
BRANCH  18  19
ATOM     19  C   UNL     1      35.642 -19.020 -21.405  0.00  0.00    +0.205 C 
BRANCH  19  20
ATOM     20  O   UNL     1      35.609 -17.825 -20.637  0.00  0.00    -0.475 OA
BRANCH  20  21
ATOM     21  C   UNL     1      35.048 -16.724 -21.231  0.00  0.00    +0.139 C 
ATOM     22  C   UNL     1      34.440 -15.743 -20.447  0.00  0.00    +0.037 C 
ATOM     23  C   UNL     1      35.085 -16.585 -22.618  0.00  0.00    +0.037 C 
ATOM     24  C   UNL     1      33.909 -14.482 -22.438  0.00  0.00    +0.031 C 
ATOM     25  C   UNL     1      33.872 -14.622 -21.051  0.00  0.00    +0.006 C 
ATOM     26  C   UNL     1      34.516 -15.464 -23.221  0.00  0.00    +0.006 C 
BRANCH  24  29
ATOM     27  N   UNL     1      31.971 -12.997 -22.888  0.00  0.00    -0.343 N 
ATOM     28  N   UNL     1      34.057 -12.530 -23.831  0.00  0.00    -0.285 NA
ATOM     29  C   UNL     1      33.316 -13.313 -23.068  0.00  0.00    +0.117 C 
ATOM     30  H   UNL     1      31.589 -12.200 -23.323  0.00  0.00    +0.144 HD
ATOM     31  H   UNL     1      31.401 -13.570 -22.325  0.00  0.00    +0.144 HD
ATOM     32  H   UNL     1      33.657 -11.738 -24.259  0.00  0.00    +0.188 HD
ENDBRANCH  24  29
ENDBRANCH  20  21
ENDBRANCH  19  20
ENDBRANCH  18  19
ENDBRANCH   1  18
TORSDOF 11
ENDMDL
MODEL 9
REMARK VINA RESULT:      -9.4      4.093      9.747
REMARK  Name = 65130
REMARK  11 active torsions:
REMARK  status: ('A' for Active; 'I' for Inactive)
REMARK    1  A    between atoms: C_1  and  C_2
REMARK    2  A    between atoms: C_1  and  C_18
REMARK    3  A    between atoms: C_2  and  C_3
REMARK    4  A    between atoms: C_3  and  C_4
REMARK    5  A    between atoms: C_4  and  O_5
REMARK    6  A    between atoms: O_5  and  C_6
REMARK    7  A    between atoms: C_9  and  C_14
REMARK    8  A    between atoms: C_18  and  C_19
REMARK    9  A    between atoms: C_19  and  O_20
REMARK   10  A    between atoms: O_20  and  C_21
REMARK   11  A    between atoms: C_24  and  C_29
REMARK                            x       y       z     vdW  Elec       q    Type
REMARK                         _______ _______ _______ _____ _____    ______ ____
ROOT
ATOM      1  C   UNL     1      33.117 -20.662 -19.987  0.00  0.00    +0.004 C 
ENDROOT
BRANCH   1   2
ATOM      2  C   UNL     1      34.282 -21.498 -19.458  0.00  0.00    +0.004 C 
BRANCH   2   3
ATOM      3  C   UNL     1      33.806 -22.860 -18.957  0.00  0.00    +0.047 C 
BRANCH   3   4
ATOM      4  C   UNL     1      33.831 -22.939 -17.436  0.00  0.00    +0.205 C 
BRANCH   4   5
ATOM      5  O   UNL     1      35.179 -23.068 -17.006  0.00  0.00    -0.475 OA
BRANCH   5   6
ATOM      6  C   UNL     1      35.382 -23.321 -15.674  0.00  0.00    +0.139 C 
ATOM      7  C   UNL     1      36.620 -23.045 -15.093  0.00  0.00    +0.037 C 
ATOM      8  C   UNL     1      34.350 -23.853 -14.900  0.00  0.00    +0.037 C 
ATOM      9  C   UNL     1      35.794 -23.832 -12.963  0.00  0.00    +0.031 C 
ATOM     10  C   UNL     1      36.825 -23.301 -13.736  0.00  0.00    +0.006 C 
ATOM     11  C   UNL     1      34.556 -24.107 -13.544  0.00  0.00    +0.006 C 
BRANCH   9  14
ATOM     12  N   UNL     1      37.024 -23.464 -10.837  0.00  0.00    -0.343 N 
ATOM     13  N   UNL     1      35.228 -24.958 -10.917  0.00  0.00    -0.285 NA
ATOM     14  C   UNL     1      36.007 -24.097 -11.550  0.00  0.00    +0.117 C 
ATOM     15  H   UNL     1      37.150 -23.658  -9.880  0.00  0.00    +0.144 HD
ATOM     16  H   UNL     1      37.616 -22.821 -11.291  0.00  0.00    +0.144 HD
ATOM     17  H   UNL     1      35.371 -25.139  -9.960  0.00  0.00    +0.188 HD
ENDBRANCH   9  14
ENDBRANCH   5   6
ENDBRANCH   4   5
ENDBRANCH   3   4
ENDBRANCH   2   3
ENDBRANCH   1   2
BRANCH   1  18
ATOM     18  C   UNL     1      33.609 -19.520 -20.874  0.00  0.00    +0.047 C 
BRANCH  18  19
ATOM     19  C   UNL     1      35.125 -19.532 -21.016  0.00  0.00    +0.205 C 
BRANCH  19  20
ATOM     20  O   UNL     1      35.623 -18.236 -20.715  0.00  0.00    -0.475 OA
BRANCH  20  21
ATOM     21  C   UNL     1      35.183 -17.206 -21.506  0.00  0.00    +0.139 C 
ATOM     22  C   UNL     1      35.304 -17.292 -22.893  0.00  0.00    +0.037 C 
ATOM     23  C   UNL     1      34.613 -16.073 -20.924  0.00  0.00    +0.037 C 
ATOM     24  C   UNL     1      34.284 -15.113 -23.117  0.00  0.00    +0.031 C 
ATOM     25  C   UNL     1      34.854 -16.245 -23.698  0.00  0.00    +0.006 C 
ATOM     26  C   UNL     1      34.163 -15.028 -21.729  0.00  0.00    +0.006 C 
BRANCH  24  29
ATOM     27  N   UNL     1      34.140 -12.697 -23.672  0.00  0.00    -0.343 N 
ATOM     28  N   UNL     1      33.060 -14.280 -25.009  0.00  0.00    -0.285 NA
ATOM     29  C   UNL     1      33.814 -14.022 -23.956  0.00  0.00    +0.117 C 
ATOM     30  H   UNL     1      33.811 -11.974 -24.253  0.00  0.00    +0.144 HD
ATOM     31  H   UNL     1      34.698 -12.484 -22.890  0.00  0.00    +0.144 HD
ATOM     32  H   UNL     1      32.740 -13.543 -25.579  0.00  0.00    +0.188 HD
ENDBRANCH  24  29
ENDBRANCH  20  21
ENDBRANCH  19  20
ENDBRANCH  18  19
ENDBRANCH   1  18
TORSDOF 11
ENDMDL
