MODEL 1
REMARK VINA RESULT:      -7.4      0.000      0.000
REMARK  Name = 443387
REMARK  4 active torsions:
REMARK  status: ('A' for Active; 'I' for Inactive)
REMARK    1  A    between atoms: N_2  and  CA_15
REMARK    2  A    between atoms: CA_6  and  C_25
REMARK    3  A    between atoms: CA_16  and  C_22
REMARK    4  A    between atoms: C_22  and  O_23
REMARK                            x       y       z     vdW  Elec       q    Type
REMARK                         _______ _______ _______ _____ _____    ______ ____
ROOT
ATOM      1  O   UNL     1      34.244 -11.162 -24.029  0.00  0.00    -0.277 OA
ATOM      2  N   UNL     1      32.764 -10.819 -22.239  0.00  0.00    -0.293 N 
ATOM      3  N   UNL     1      31.651 -12.827 -22.314  0.00  0.00    +0.406 N 
ATOM      4  C   UNL     1      31.606 -11.496 -21.694  0.00  0.00    +0.020 C 
ATOM      5  C   UNL     1      33.289 -11.489 -23.340  0.00  0.00    +0.208 C 
ATOM      6  CA  UNL     1      32.425 -12.711 -23.557  0.00  0.00    +0.043 C 
ATOM      7  C   UNL     1      31.694 -11.678 -20.177  0.00  0.00    -0.002 C 
ATOM      8  C   UNL     1      30.306 -10.775 -22.079  0.00  0.00    -0.002 C 
ATOM      9  H1  UNL     1      30.705 -13.147 -22.523  0.00  0.00    -0.081 HD
ATOM     10  H2  UNL     1      32.084 -13.502 -21.684  0.00  0.00    -0.081 HD
ENDROOT
BRANCH   2  15
ATOM     11  S   UNL     1      32.449  -8.542 -24.278  0.00  0.00    -0.118 S 
ATOM     12  O   UNL     1      31.540  -8.900 -19.982  0.00  0.00    -0.273 OA
ATOM     13  N   UNL     1      32.362  -7.685 -21.831  0.00  0.00    -0.260 N 
ATOM     14  C   UNL     1      33.344  -8.350 -22.693  0.00  0.00    +0.151 C 
ATOM     15  CA  UNL     1      33.294  -9.538 -21.724  0.00  0.00    +0.179 C 
ATOM     16  CA  UNL     1      31.240  -7.000 -22.441  0.00  0.00    +0.184 C 
ATOM     17  C   UNL     1      31.483  -6.980 -23.965  0.00  0.00    +0.068 C 
ATOM     18  C   UNL     1      32.265  -8.707 -20.931  0.00  0.00    +0.247 C 
ATOM     19  C   UNL     1      32.326  -5.796 -24.461  0.00  0.00    +0.013 C 
ATOM     20  C   UNL     1      30.166  -7.046 -24.740  0.00  0.00    +0.013 C 
BRANCH  16  22
ATOM     21  OXT UNL     1      30.213  -4.873 -21.941  0.00  0.00    -0.248 OA
ATOM     22  C   UNL     1      31.138  -5.657 -21.792  0.00  0.00    +0.333 C 
BRANCH  22  23
ATOM     23  O   UNL     1      32.220  -5.419 -21.010  0.00  0.00    -0.479 OA
ATOM     24  H   UNL     1      32.603  -4.564 -20.987  0.00  0.00    +0.295 HD
ENDBRANCH  22  23
ENDBRANCH  16  22
ENDBRANCH   2  15
BRANCH   6  25
ATOM     25  C   UNL     1      33.216 -13.958 -23.859  0.00  0.00    -0.033 C 
ATOM     26  C   UNL     1      34.084 -14.488 -22.902  0.00  0.00    -0.006 C 
ATOM     27  C   UNL     1      33.082 -14.591 -25.099  0.00  0.00    -0.006 C 
ATOM     28  C   UNL     1      34.815 -15.643 -23.181  0.00  0.00    -0.000 C 
ATOM     29  C   UNL     1      33.814 -15.745 -25.378  0.00  0.00    -0.000 C 
ATOM     30  C   UNL     1      34.680 -16.271 -24.419  0.00  0.00    -0.000 C 
ENDBRANCH   6  25
TORSDOF 4
ENDMDL
MODEL 2
REMARK VINA RESULT:      -6.1     14.160     16.766
REMARK  Name = 443387
REMARK  4 active torsions:
REMARK  status: ('A' for Active; 'I' for Inactive)
REMARK    1  A    between atoms: N_2  and  CA_15
REMARK    2  A    between atoms: CA_6  and  C_25
REMARK    3  A    between atoms: CA_16  and  C_22
REMARK    4  A    between atoms: C_22  and  O_23
REMARK                            x       y       z     vdW  Elec       q    Type
REMARK                         _______ _______ _______ _____ _____    ______ ____
ROOT
ATOM      1  O   UNL     1      32.286 -23.083 -13.810  0.00  0.00    -0.277 OA
ATOM      2  N   UNL     1      33.734 -23.040 -15.658  0.00  0.00    -0.293 N 
ATOM      3  N   UNL     1      32.238 -23.653 -17.290  0.00  0.00    +0.406 N 
ATOM      4  C   UNL     1      33.672 -23.449 -17.045  0.00  0.00    +0.020 C 
ATOM      5  C   UNL     1      32.540 -23.292 -14.987  0.00  0.00    +0.208 C 
ATOM      6  CA  UNL     1      31.600 -23.916 -15.993  0.00  0.00    +0.043 C 
ATOM      7  C   UNL     1      34.164 -22.359 -17.999  0.00  0.00    -0.002 C 
ATOM      8  C   UNL     1      34.441 -24.758 -17.275  0.00  0.00    -0.002 C 
ATOM      9  H1  UNL     1      32.100 -24.450 -17.912  0.00  0.00    -0.081 HD
ATOM     10  H2  UNL     1      31.828 -22.829 -17.730  0.00  0.00    -0.081 HD
ENDROOT
BRANCH   2  15
ATOM     11  S   UNL     1      35.060 -25.042 -13.740  0.00  0.00    -0.118 S 
ATOM     12  O   UNL     1      36.608 -22.443 -16.943  0.00  0.00    -0.273 OA
ATOM     13  N   UNL     1      36.779 -23.411 -14.797  0.00  0.00    -0.260 N 
ATOM     14  C   UNL     1      35.613 -23.306 -13.915  0.00  0.00    +0.151 C 
ATOM     15  CA  UNL     1      34.938 -22.473 -15.013  0.00  0.00    +0.179 C 
ATOM     16  CA  UNL     1      37.435 -24.694 -14.944  0.00  0.00    +0.184 C 
ATOM     17  C   UNL     1      36.810 -25.656 -13.911  0.00  0.00    +0.068 C 
ATOM     18  C   UNL     1      36.236 -22.683 -15.817  0.00  0.00    +0.247 C 
ATOM     19  C   UNL     1      37.464 -25.611 -12.523  0.00  0.00    +0.013 C 
ATOM     20  C   UNL     1      36.784 -27.094 -14.432  0.00  0.00    +0.013 C 
BRANCH  16  22
ATOM     21  OXT UNL     1      39.560 -24.734 -13.800  0.00  0.00    -0.248 OA
ATOM     22  C   UNL     1      38.904 -24.459 -14.792  0.00  0.00    +0.333 C 
BRANCH  22  23
ATOM     23  O   UNL     1      39.416 -23.890 -15.911  0.00  0.00    -0.479 OA
ATOM     24  H   UNL     1      39.113 -23.047 -16.190  0.00  0.00    +0.295 HD
ENDBRANCH  22  23
ENDBRANCH  16  22
ENDBRANCH   2  15
BRANCH   6  25
ATOM     25  C   UNL     1      30.197 -23.370 -15.922  0.00  0.00    -0.033 C 
ATOM     26  C   UNL     1      29.254 -23.731 -16.887  0.00  0.00    -0.006 C 
ATOM     27  C   UNL     1      29.834 -22.501 -14.889  0.00  0.00    -0.006 C 
ATOM     28  C   UNL     1      27.955 -23.226 -16.821  0.00  0.00    -0.000 C 
ATOM     29  C   UNL     1      28.535 -21.995 -14.824  0.00  0.00    -0.000 C 
ATOM     30  C   UNL     1      27.596 -22.358 -15.789  0.00  0.00    -0.000 C 
ENDBRANCH   6  25
TORSDOF 4
ENDMDL
MODEL 3
REMARK VINA RESULT:      -5.7     12.843     16.225
REMARK  Name = 443387
REMARK  4 active torsions:
REMARK  status: ('A' for Active; 'I' for Inactive)
REMARK    1  A    between atoms: N_2  and  CA_15
REMARK    2  A    between atoms: CA_6  and  C_25
REMARK    3  A    between atoms: CA_16  and  C_22
REMARK    4  A    between atoms: C_22  and  O_23
REMARK                            x       y       z     vdW  Elec       q    Type
REMARK                         _______ _______ _______ _____ _____    ______ ____
ROOT
ATOM      1  O   UNL     1      33.771 -22.429 -15.291  0.00  0.00    -0.277 OA
ATOM      2  N   UNL     1      31.938 -23.890 -15.155  0.00  0.00    -0.293 N 
ATOM      3  N   UNL     1      30.956 -23.409 -17.176  0.00  0.00    +0.406 N 
ATOM      4  C   UNL     1      30.724 -24.119 -15.910  0.00  0.00    +0.020 C 
ATOM      5  C   UNL     1      32.710 -22.871 -15.706  0.00  0.00    +0.208 C 
ATOM      6  CA  UNL     1      31.966 -22.372 -16.924  0.00  0.00    +0.043 C 
ATOM      7  C   UNL     1      30.504 -25.599 -16.231  0.00  0.00    -0.002 C 
ATOM      8  C   UNL     1      29.502 -23.532 -15.190  0.00  0.00    -0.002 C 
ATOM      9  H1  UNL     1      30.090 -22.979 -17.499  0.00  0.00    -0.081 HD
ATOM     10  H2  UNL     1      31.279 -24.056 -17.895  0.00  0.00    -0.081 HD
ENDROOT
BRANCH   2  15
ATOM     11  S   UNL     1      34.818 -24.959 -15.232  0.00  0.00    -0.118 S 
ATOM     12  O   UNL     1      32.507 -22.707 -12.232  0.00  0.00    -0.273 OA
ATOM     13  N   UNL     1      34.044 -24.399 -12.820  0.00  0.00    -0.260 N 
ATOM     14  C   UNL     1      33.646 -25.334 -13.877  0.00  0.00    +0.151 C 
ATOM     15  CA  UNL     1      32.292 -24.614 -13.915  0.00  0.00    +0.179 C 
ATOM     16  CA  UNL     1      35.361 -23.798 -12.871  0.00  0.00    +0.184 C 
ATOM     17  C   UNL     1      36.143 -24.491 -14.008  0.00  0.00    +0.068 C 
ATOM     18  C   UNL     1      32.865 -23.710 -12.805  0.00  0.00    +0.247 C 
ATOM     19  C   UNL     1      36.872 -25.775 -13.588  0.00  0.00    +0.013 C 
ATOM     20  C   UNL     1      37.123 -23.527 -14.679  0.00  0.00    +0.013 C 
BRANCH  16  22
ATOM     21  OXT UNL     1      36.906 -23.281 -11.089  0.00  0.00    -0.248 OA
ATOM     22  C   UNL     1      35.961 -23.932 -11.508  0.00  0.00    +0.333 C 
BRANCH  22  23
ATOM     23  O   UNL     1      35.313 -24.883 -10.792  0.00  0.00    -0.479 OA
ATOM     24  H   UNL     1      35.752 -25.680 -10.566  0.00  0.00    +0.295 HD
ENDBRANCH  22  23
ENDBRANCH  16  22
ENDBRANCH   2  15
BRANCH   6  25
ATOM     25  C   UNL     1      32.857 -22.137 -18.117  0.00  0.00    -0.033 C 
ATOM     26  C   UNL     1      32.515 -21.175 -19.070  0.00  0.00    -0.006 C 
ATOM     27  C   UNL     1      34.030 -22.881 -18.274  0.00  0.00    -0.006 C 
ATOM     28  C   UNL     1      33.340 -20.956 -20.173  0.00  0.00    -0.000 C 
ATOM     29  C   UNL     1      34.855 -22.663 -19.378  0.00  0.00    -0.000 C 
ATOM     30  C   UNL     1      34.510 -21.701 -20.327  0.00  0.00    -0.000 C 
ENDBRANCH   6  25
TORSDOF 4
ENDMDL
MODEL 4
REMARK VINA RESULT:      -5.2      6.264      9.355
REMARK  Name = 443387
REMARK  4 active torsions:
REMARK  status: ('A' for Active; 'I' for Inactive)
REMARK    1  A    between atoms: N_2  and  CA_15
REMARK    2  A    between atoms: CA_6  and  C_25
REMARK    3  A    between atoms: CA_16  and  C_22
REMARK    4  A    between atoms: C_22  and  O_23
REMARK                            x       y       z     vdW  Elec       q    Type
REMARK                         _______ _______ _______ _____ _____    ______ ____
ROOT
ATOM      1  O   UNL     1      36.933 -19.597 -19.872  0.00  0.00    -0.277 OA
ATOM      2  N   UNL     1      34.949 -18.752 -20.801  0.00  0.00    -0.293 N 
ATOM      3  N   UNL     1      33.580 -20.553 -20.403  0.00  0.00    +0.406 N 
ATOM      4  C   UNL     1      33.641 -19.276 -21.128  0.00  0.00    +0.020 C 
ATOM      5  C   UNL     1      35.772 -19.721 -20.233  0.00  0.00    +0.208 C 
ATOM      6  CA  UNL     1      34.961 -20.995 -20.168  0.00  0.00    +0.043 C 
ATOM      7  C   UNL     1      32.507 -18.387 -20.613  0.00  0.00    -0.002 C 
ATOM      8  C   UNL     1      33.498 -19.517 -22.638  0.00  0.00    -0.002 C 
ATOM      9  H1  UNL     1      33.084 -21.248 -20.960  0.00  0.00    -0.081 HD
ATOM     10  H2  UNL     1      33.086 -20.440 -19.518  0.00  0.00    -0.081 HD
ENDROOT
BRANCH   2  15
ATOM     11  S   UNL     1      35.325 -18.262 -23.812  0.00  0.00    -0.118 S 
ATOM     12  O   UNL     1      33.252 -16.039 -20.622  0.00  0.00    -0.273 OA
ATOM     13  N   UNL     1      34.612 -16.110 -22.550  0.00  0.00    -0.260 N 
ATOM     14  C   UNL     1      35.758 -17.025 -22.533  0.00  0.00    +0.151 C 
ATOM     15  CA  UNL     1      35.382 -17.367 -21.086  0.00  0.00    +0.179 C 
ATOM     16  CA  UNL     1      33.738 -16.098 -23.706  0.00  0.00    +0.184 C 
ATOM     17  C   UNL     1      34.392 -16.982 -24.790  0.00  0.00    +0.068 C 
ATOM     18  C   UNL     1      34.219 -16.372 -21.269  0.00  0.00    +0.247 C 
ATOM     19  C   UNL     1      35.398 -16.248 -25.688  0.00  0.00    +0.013 C 
ATOM     20  C   UNL     1      33.337 -17.682 -25.648  0.00  0.00    +0.013 C 
BRANCH  16  22
ATOM     21  OXT UNL     1      32.702 -14.267 -24.890  0.00  0.00    -0.248 OA
ATOM     22  C   UNL     1      33.530 -14.667 -24.086  0.00  0.00    +0.333 C 
BRANCH  22  23
ATOM     23  O   UNL     1      34.393 -13.863 -23.416  0.00  0.00    -0.479 OA
ATOM     24  H   UNL     1      34.064 -13.184 -22.860  0.00  0.00    +0.295 HD
ENDBRANCH  22  23
ENDBRANCH  16  22
ENDBRANCH   2  15
BRANCH   6  25
ATOM     25  C   UNL     1      35.113 -21.737 -18.865  0.00  0.00    -0.033 C 
ATOM     26  C   UNL     1      36.325 -21.699 -18.172  0.00  0.00    -0.006 C 
ATOM     27  C   UNL     1      34.040 -22.466 -18.343  0.00  0.00    -0.006 C 
ATOM     28  C   UNL     1      36.466 -22.384 -16.966  0.00  0.00    -0.000 C 
ATOM     29  C   UNL     1      34.181 -23.152 -17.137  0.00  0.00    -0.000 C 
ATOM     30  C   UNL     1      35.393 -23.111 -16.448  0.00  0.00    -0.000 C 
ENDBRANCH   6  25
TORSDOF 4
ENDMDL
MODEL 5
REMARK VINA RESULT:      -5.2     12.259     16.000
REMARK  Name = 443387
REMARK  4 active torsions:
REMARK  status: ('A' for Active; 'I' for Inactive)
REMARK    1  A    between atoms: N_2  and  CA_15
REMARK    2  A    between atoms: CA_6  and  C_25
REMARK    3  A    between atoms: CA_16  and  C_22
REMARK    4  A    between atoms: C_22  and  O_23
REMARK                            x       y       z     vdW  Elec       q    Type
REMARK                         _______ _______ _______ _____ _____    ______ ____
ROOT
ATOM      1  O   UNL     1      33.841 -23.807 -18.589  0.00  0.00    -0.277 OA
ATOM      2  N   UNL     1      35.127 -23.278 -16.696  0.00  0.00    -0.293 N 
ATOM      3  N   UNL     1      36.273 -21.476 -17.544  0.00  0.00    +0.406 N 
ATOM      4  C   UNL     1      36.233 -22.395 -16.397  0.00  0.00    +0.020 C 
ATOM      5  C   UNL     1      34.727 -23.180 -18.026  0.00  0.00    +0.208 C 
ATOM      6  CA  UNL     1      35.627 -22.154 -18.676  0.00  0.00    +0.043 C 
ATOM      7  C   UNL     1      35.994 -21.563 -15.135  0.00  0.00    -0.002 C 
ATOM      8  C   UNL     1      37.554 -23.171 -16.293  0.00  0.00    -0.002 C 
ATOM      9  H1  UNL     1      37.240 -21.253 -17.779  0.00  0.00    -0.081 HD
ATOM     10  H2  UNL     1      35.788 -20.606 -17.323  0.00  0.00    -0.081 HD
ENDROOT
BRANCH   2  15
ATOM     11  S   UNL     1      37.266 -24.817 -15.115  0.00  0.00    -0.118 S 
ATOM     12  O   UNL     1      33.630 -22.623 -13.939  0.00  0.00    -0.273 OA
ATOM     13  N   UNL     1      35.094 -24.464 -13.739  0.00  0.00    -0.260 N 
ATOM     14  C   UNL     1      35.473 -25.160 -14.972  0.00  0.00    +0.151 C 
ATOM     15  CA  UNL     1      34.527 -24.215 -15.722  0.00  0.00    +0.179 C 
ATOM     16  CA  UNL     1      36.127 -24.103 -12.789  0.00  0.00    +0.184 C 
ATOM     17  C   UNL     1      37.441 -24.761 -13.261  0.00  0.00    +0.068 C 
ATOM     18  C   UNL     1      34.240 -23.586 -14.344  0.00  0.00    +0.247 C 
ATOM     19  C   UNL     1      37.647 -26.199 -12.763  0.00  0.00    +0.013 C 
ATOM     20  C   UNL     1      38.655 -23.903 -12.901  0.00  0.00    +0.013 C 
BRANCH  16  22
ATOM     21  OXT UNL     1      36.193 -24.244 -10.380  0.00  0.00    -0.248 OA
ATOM     22  C   UNL     1      35.649 -24.525 -11.437  0.00  0.00    +0.333 C 
BRANCH  22  23
ATOM     23  O   UNL     1      34.523 -25.273 -11.539  0.00  0.00    -0.479 OA
ATOM     24  H   UNL     1      34.528 -26.063 -12.044  0.00  0.00    +0.295 HD
ENDBRANCH  22  23
ENDBRANCH  16  22
ENDBRANCH   2  15
BRANCH   6  25
ATOM     25  C   UNL     1      34.891 -21.193 -19.575  0.00  0.00    -0.033 C 
ATOM     26  C   UNL     1      33.497 -21.118 -19.530  0.00  0.00    -0.006 C 
ATOM     27  C   UNL     1      35.600 -20.373 -20.456  0.00  0.00    -0.006 C 
ATOM     28  C   UNL     1      32.815 -20.229 -20.361  0.00  0.00    -0.000 C 
ATOM     29  C   UNL     1      34.918 -19.484 -21.288  0.00  0.00    -0.000 C 
ATOM     30  C   UNL     1      33.526 -19.412 -21.240  0.00  0.00    -0.000 C 
ENDBRANCH   6  25
TORSDOF 4
ENDMDL
MODEL 6
REMARK VINA RESULT:      -4.5     11.958     15.240
REMARK  Name = 443387
REMARK  4 active torsions:
REMARK  status: ('A' for Active; 'I' for Inactive)
REMARK    1  A    between atoms: N_2  and  CA_15
REMARK    2  A    between atoms: CA_6  and  C_25
REMARK    3  A    between atoms: CA_16  and  C_22
REMARK    4  A    between atoms: C_22  and  O_23
REMARK                            x       y       z     vdW  Elec       q    Type
REMARK                         _______ _______ _______ _____ _____    ______ ____
ROOT
ATOM      1  O   UNL     1      32.073 -22.776 -17.397  0.00  0.00    -0.277 OA
ATOM      2  N   UNL     1      33.808 -23.066 -15.841  0.00  0.00    -0.293 N 
ATOM      3  N   UNL     1      35.596 -22.707 -17.238  0.00  0.00    +0.406 N 
ATOM      4  C   UNL     1      35.250 -23.182 -15.891  0.00  0.00    +0.020 C 
ATOM      5  C   UNL     1      33.256 -22.883 -17.105  0.00  0.00    +0.208 C 
ATOM      6  CA  UNL     1      34.407 -22.873 -18.085  0.00  0.00    +0.043 C 
ATOM      7  C   UNL     1      35.946 -22.272 -14.876  0.00  0.00    -0.002 C 
ATOM      8  C   UNL     1      35.699 -24.639 -15.711  0.00  0.00    -0.002 C 
ATOM      9  H1  UNL     1      36.369 -23.256 -17.614  0.00  0.00    -0.081 HD
ATOM     10  H2  UNL     1      35.882 -21.728 -17.211  0.00  0.00    -0.081 HD
ENDROOT
BRANCH   2  15
ATOM     11  S   UNL     1      30.877 -22.256 -16.283  0.00  0.00    -0.118 S 
ATOM     12  O   UNL     1      32.799 -25.714 -14.344  0.00  0.00    -0.273 OA
ATOM     13  N   UNL     1      31.129 -24.048 -14.424  0.00  0.00    -0.260 N 
ATOM     14  C   UNL     1      31.566 -22.665 -14.637  0.00  0.00    +0.151 C 
ATOM     15  CA  UNL     1      33.009 -23.183 -14.602  0.00  0.00    +0.179 C 
ATOM     16  CA  UNL     1      30.027 -24.567 -15.209  0.00  0.00    +0.184 C 
ATOM     17  C   UNL     1      29.423 -23.385 -15.997  0.00  0.00    +0.068 C 
ATOM     18  C   UNL     1      32.387 -24.578 -14.387  0.00  0.00    +0.247 C 
ATOM     19  C   UNL     1      28.353 -22.592 -15.232  0.00  0.00    +0.013 C 
ATOM     20  C   UNL     1      28.872 -23.840 -17.349  0.00  0.00    +0.013 C 
BRANCH  16  22
ATOM     21  OXT UNL     1      28.122 -25.914 -14.589  0.00  0.00    -0.248 OA
ATOM     22  C   UNL     1      29.093 -25.249 -14.261  0.00  0.00    +0.333 C 
BRANCH  22  23
ATOM     23  O   UNL     1      29.468 -25.028 -12.977  0.00  0.00    -0.479 OA
ATOM     24  H   UNL     1      30.214 -25.471 -12.624  0.00  0.00    +0.295 HD
ENDBRANCH  22  23
ENDBRANCH  16  22
ENDBRANCH   2  15
BRANCH   6  25
ATOM     25  C   UNL     1      34.294 -21.795 -19.132  0.00  0.00    -0.033 C 
ATOM     26  C   UNL     1      33.038 -21.319 -19.517  0.00  0.00    -0.006 C 
ATOM     27  C   UNL     1      35.445 -21.264 -19.721  0.00  0.00    -0.006 C 
ATOM     28  C   UNL     1      32.933 -20.321 -20.486  0.00  0.00    -0.000 C 
ATOM     29  C   UNL     1      35.340 -20.267 -20.690  0.00  0.00    -0.000 C 
ATOM     30  C   UNL     1      34.084 -19.795 -21.072  0.00  0.00    -0.000 C 
ENDBRANCH   6  25
TORSDOF 4
ENDMDL
MODEL 7
REMARK VINA RESULT:      -4.5      4.092      8.818
REMARK  Name = 443387
REMARK  4 active torsions:
REMARK  status: ('A' for Active; 'I' for Inactive)
REMARK    1  A    between atoms: N_2  and  CA_15
REMARK    2  A    between atoms: CA_6  and  C_25
REMARK    3  A    between atoms: CA_16  and  C_22
REMARK    4  A    between atoms: C_22  and  O_23
REMARK                            x       y       z     vdW  Elec       q    Type
REMARK                         _______ _______ _______ _____ _____    ______ ____
ROOT
ATOM      1  O   UNL     1      33.712 -14.020 -20.570  0.00  0.00    -0.277 OA
ATOM      2  N   UNL     1      33.801 -14.022 -22.917  0.00  0.00    -0.293 N 
ATOM      3  N   UNL     1      32.068 -12.572 -23.334  0.00  0.00    +0.406 N 
ATOM      4  C   UNL     1      32.977 -13.520 -23.995  0.00  0.00    +0.020 C 
ATOM      5  C   UNL     1      33.267 -13.717 -21.668  0.00  0.00    +0.208 C 
ATOM      6  CA  UNL     1      31.988 -12.951 -21.917  0.00  0.00    +0.043 C 
ATOM      7  C   UNL     1      33.785 -12.748 -25.040  0.00  0.00    -0.002 C 
ATOM      8  C   UNL     1      32.174 -14.649 -24.656  0.00  0.00    -0.002 C 
ATOM      9  H1  UNL     1      31.143 -12.621 -23.759  0.00  0.00    -0.081 HD
ATOM     10  H2  UNL     1      32.414 -11.617 -23.430  0.00  0.00    -0.081 HD
ENDROOT
BRANCH   2  15
ATOM     11  S   UNL     1      33.903 -16.474 -21.067  0.00  0.00    -0.118 S 
ATOM     12  O   UNL     1      34.603 -15.908 -25.380  0.00  0.00    -0.273 OA
ATOM     13  N   UNL     1      35.158 -16.878 -23.302  0.00  0.00    -0.260 N 
ATOM     14  C   UNL     1      35.292 -15.979 -22.152  0.00  0.00    +0.151 C 
ATOM     15  CA  UNL     1      35.034 -14.813 -23.115  0.00  0.00    +0.179 C 
ATOM     16  CA  UNL     1      34.378 -18.091 -23.160  0.00  0.00    +0.184 C 
ATOM     17  C   UNL     1      34.013 -18.235 -21.666  0.00  0.00    +0.068 C 
ATOM     18  C   UNL     1      34.918 -15.890 -24.212  0.00  0.00    +0.247 C 
ATOM     19  C   UNL     1      35.072 -18.956 -20.819  0.00  0.00    +0.013 C 
ATOM     20  C   UNL     1      32.652 -18.908 -21.487  0.00  0.00    +0.013 C 
BRANCH  16  22
ATOM     21  OXT UNL     1      34.738 -20.169 -24.335  0.00  0.00    -0.248 OA
ATOM     22  C   UNL     1      35.190 -19.208 -23.731  0.00  0.00    +0.333 C 
BRANCH  22  23
ATOM     23  O   UNL     1      36.510 -19.015 -23.485  0.00  0.00    -0.479 OA
ATOM     24  H   UNL     1      36.800 -18.814 -22.617  0.00  0.00    +0.295 HD
ENDBRANCH  22  23
ENDBRANCH  16  22
ENDBRANCH   2  15
BRANCH   6  25
ATOM     25  C   UNL     1      31.818 -11.757 -21.012  0.00  0.00    -0.033 C 
ATOM     26  C   UNL     1      31.576 -11.938 -19.649  0.00  0.00    -0.006 C 
ATOM     27  C   UNL     1      31.904 -10.463 -21.534  0.00  0.00    -0.006 C 
ATOM     28  C   UNL     1      31.420 -10.834 -18.811  0.00  0.00    -0.000 C 
ATOM     29  C   UNL     1      31.747  -9.358 -20.697  0.00  0.00    -0.000 C 
ATOM     30  C   UNL     1      31.505  -9.544 -19.336  0.00  0.00    -0.000 C 
ENDBRANCH   6  25
TORSDOF 4
ENDMDL
MODEL 8
REMARK VINA RESULT:      -4.4      2.504      4.375
REMARK  Name = 443387
REMARK  4 active torsions:
REMARK  status: ('A' for Active; 'I' for Inactive)
REMARK    1  A    between atoms: N_2  and  CA_15
REMARK    2  A    between atoms: CA_6  and  C_25
REMARK    3  A    between atoms: CA_16  and  C_22
REMARK    4  A    between atoms: C_22  and  O_23
REMARK                            x       y       z     vdW  Elec       q    Type
REMARK                         _______ _______ _______ _____ _____    ______ ____
ROOT
ATOM      1  O   UNL     1      34.332 -13.010 -22.526  0.00  0.00    -0.277 OA
ATOM      2  N   UNL     1      33.373 -12.903 -24.667  0.00  0.00    -0.293 N 
ATOM      3  N   UNL     1      33.861 -15.033 -25.376  0.00  0.00    +0.406 N 
ATOM      4  C   UNL     1      33.364 -13.734 -25.852  0.00  0.00    +0.020 C 
ATOM      5  C   UNL     1      34.116 -13.473 -23.637  0.00  0.00    +0.208 C 
ATOM      6  CA  UNL     1      34.648 -14.788 -24.160  0.00  0.00    +0.043 C 
ATOM      7  C   UNL     1      31.954 -13.944 -26.409  0.00  0.00    -0.002 C 
ATOM      8  C   UNL     1      34.297 -13.173 -26.934  0.00  0.00    -0.002 C 
ATOM      9  H1  UNL     1      34.450 -15.464 -26.089  0.00  0.00    -0.081 HD
ATOM     10  H2  UNL     1      33.085 -15.664 -25.179  0.00  0.00    -0.081 HD
ENDROOT
BRANCH   2  15
ATOM     11  S   UNL     1      31.424 -12.743 -22.296  0.00  0.00    -0.118 S 
ATOM     12  O   UNL     1      34.630 -10.099 -23.759  0.00  0.00    -0.273 OA
ATOM     13  N   UNL     1      32.475 -10.439 -22.858  0.00  0.00    -0.260 N 
ATOM     14  C   UNL     1      31.607 -11.408 -23.534  0.00  0.00    +0.151 C 
ATOM     15  CA  UNL     1      32.719 -11.580 -24.577  0.00  0.00    +0.179 C 
ATOM     16  CA  UNL     1      32.605 -10.497 -21.416  0.00  0.00    +0.184 C 
ATOM     17  C   UNL     1      31.571 -11.520 -20.899  0.00  0.00    +0.068 C 
ATOM     18  C   UNL     1      33.507 -10.547 -23.746  0.00  0.00    +0.247 C 
ATOM     19  C   UNL     1      30.176 -10.937 -20.634  0.00  0.00    +0.013 C 
ATOM     20  C   UNL     1      32.081 -12.246 -19.653  0.00  0.00    +0.013 C 
BRANCH  16  22
ATOM     21  OXT UNL     1      32.046  -8.153 -21.563  0.00  0.00    -0.248 OA
ATOM     22  C   UNL     1      32.438  -9.103 -20.902  0.00  0.00    +0.333 C 
BRANCH  22  23
ATOM     23  O   UNL     1      32.786  -9.030 -19.594  0.00  0.00    -0.479 OA
ATOM     24  H   UNL     1      32.185  -8.674 -18.968  0.00  0.00    +0.295 HD
ENDBRANCH  22  23
ENDBRANCH  16  22
ENDBRANCH   2  15
BRANCH   6  25
ATOM     25  C   UNL     1      34.538 -15.917 -23.168  0.00  0.00    -0.033 C 
ATOM     26  C   UNL     1      35.119 -17.156 -23.448  0.00  0.00    -0.006 C 
ATOM     27  C   UNL     1      33.856 -15.728 -21.962  0.00  0.00    -0.006 C 
ATOM     28  C   UNL     1      35.018 -18.201 -22.530  0.00  0.00    -0.000 C 
ATOM     29  C   UNL     1      33.755 -16.774 -21.044  0.00  0.00    -0.000 C 
ATOM     30  C   UNL     1      34.336 -18.010 -21.328  0.00  0.00    -0.000 C 
ENDBRANCH   6  25
TORSDOF 4
ENDMDL
