MODEL 1
REMARK VINA RESULT:      -9.9      0.000      0.000
REMARK  Name = 3932
REMARK  5 active torsions:
REMARK  status: ('A' for Active; 'I' for Inactive)
REMARK    1  A    between atoms: N_2  and  C_11
REMARK    2  A    between atoms: C_3  and  C_17
REMARK    3  A    between atoms: C_3  and  C_24
REMARK    4  A    between atoms: C_17  and  C_19
REMARK    5  A    between atoms: C_24  and  C_26
REMARK                            x       y       z     vdW  Elec       q    Type
REMARK                         _______ _______ _______ _____ _____    ______ ____
ROOT
ATOM      1  O   UNL     1      32.968 -24.264 -13.530  0.00  0.00    -0.274 OA
ATOM      2  N   UNL     1      32.419 -23.473 -15.707  0.00  0.00    -0.237 N 
ATOM      3  C   UNL     1      34.722 -23.674 -15.128  0.00  0.00    +0.098 C 
ATOM      4  C   UNL     1      34.532 -23.152 -16.528  0.00  0.00    +0.000 C 
ATOM      5  C   UNL     1      33.269 -23.841 -14.638  0.00  0.00    +0.237 C 
ATOM      6  C   UNL     1      33.169 -23.036 -16.822  0.00  0.00    +0.055 C 
ATOM      7  C   UNL     1      35.505 -22.780 -17.446  0.00  0.00    -0.003 C 
ATOM      8  C   UNL     1      32.762 -22.482 -18.028  0.00  0.00    +0.015 C 
ATOM      9  C   UNL     1      35.097 -22.261 -18.674  0.00  0.00    -0.000 C 
ATOM     10  C   UNL     1      33.735 -22.105 -18.958  0.00  0.00    +0.001 C 
ENDROOT
BRANCH   2  11
ATOM     11  C   UNL     1      31.002 -23.543 -15.664  0.00  0.00    +0.058 C 
ATOM     12  C   UNL     1      30.352 -24.776 -15.785  0.00  0.00    +0.015 C 
ATOM     13  C   UNL     1      30.242 -22.380 -15.501  0.00  0.00    +0.015 C 
ATOM     14  C   UNL     1      28.959 -24.846 -15.744  0.00  0.00    +0.001 C 
ATOM     15  C   UNL     1      28.849 -22.449 -15.458  0.00  0.00    +0.001 C 
ATOM     16  C   UNL     1      28.208 -23.681 -15.580  0.00  0.00    +0.000 C 
ENDBRANCH   2  11
BRANCH   3  17
ATOM     17  C   UNL     1      35.448 -22.668 -14.235  0.00  0.00    +0.040 C 
BRANCH  17  19
ATOM     18  N   UNL     1      36.654 -24.443 -10.524  0.00  0.00    -0.242 NA
ATOM     19  C   UNL     1      35.871 -23.291 -12.934  0.00  0.00    -0.018 C 
ATOM     20  C   UNL     1      37.120 -23.004 -12.410  0.00  0.00    +0.016 C 
ATOM     21  C   UNL     1      35.007 -24.145 -12.269  0.00  0.00    +0.016 C 
ATOM     22  C   UNL     1      37.463 -23.603 -11.208  0.00  0.00    +0.099 C 
ATOM     23  C   UNL     1      35.444 -24.692 -11.074  0.00  0.00    +0.099 C 
ENDBRANCH  17  19
ENDBRANCH   3  17
BRANCH   3  24
ATOM     24  C   UNL     1      35.422 -25.034 -15.123  0.00  0.00    +0.040 C 
BRANCH  24  26
ATOM     25  N   UNL     1      39.686 -24.609 -15.026  0.00  0.00    -0.242 NA
ATOM     26  C   UNL     1      36.918 -24.885 -15.089  0.00  0.00    -0.018 C 
ATOM     27  C   UNL     1      37.687 -25.841 -14.448  0.00  0.00    +0.016 C 
ATOM     28  C   UNL     1      37.512 -23.792 -15.698  0.00  0.00    +0.016 C 
ATOM     29  C   UNL     1      39.060 -25.657 -14.444  0.00  0.00    +0.099 C 
ATOM     30  C   UNL     1      38.894 -23.702 -15.638  0.00  0.00    +0.099 C 
ENDBRANCH  24  26
ENDBRANCH   3  24
TORSDOF 5
ENDMDL
MODEL 2
REMARK VINA RESULT:      -9.5     10.635     14.108
REMARK  Name = 3932
REMARK  5 active torsions:
REMARK  status: ('A' for Active; 'I' for Inactive)
REMARK    1  A    between atoms: N_2  and  C_11
REMARK    2  A    between atoms: C_3  and  C_17
REMARK    3  A    between atoms: C_3  and  C_24
REMARK    4  A    between atoms: C_17  and  C_19
REMARK    5  A    between atoms: C_24  and  C_26
REMARK                            x       y       z     vdW  Elec       q    Type
REMARK                         _______ _______ _______ _____ _____    ______ ____
ROOT
ATOM      1  O   UNL     1      34.815 -12.826 -22.081  0.00  0.00    -0.274 OA
ATOM      2  N   UNL     1      34.028 -12.337 -24.274  0.00  0.00    -0.237 N 
ATOM      3  C   UNL     1      33.951 -14.599 -23.526  0.00  0.00    +0.098 C 
ATOM      4  C   UNL     1      33.432 -14.448 -24.933  0.00  0.00    +0.000 C 
ATOM      5  C   UNL     1      34.351 -13.154 -23.165  0.00  0.00    +0.237 C 
ATOM      6  C   UNL     1      33.508 -13.110 -25.336  0.00  0.00    +0.055 C 
ATOM      7  C   UNL     1      32.965 -15.437 -25.788  0.00  0.00    -0.003 C 
ATOM      8  C   UNL     1      33.172 -12.755 -26.635  0.00  0.00    +0.015 C 
ATOM      9  C   UNL     1      32.589 -15.075 -27.080  0.00  0.00    -0.000 C 
ATOM     10  C   UNL     1      32.701 -13.745 -27.503  0.00  0.00    +0.001 C 
ENDROOT
BRANCH   2  11
ATOM     11  C   UNL     1      34.198 -10.928 -24.307  0.00  0.00    +0.058 C 
ATOM     12  C   UNL     1      35.182 -10.356 -25.120  0.00  0.00    +0.015 C 
ATOM     13  C   UNL     1      33.385 -10.100 -23.528  0.00  0.00    +0.015 C 
ATOM     14  C   UNL     1      35.351  -8.972 -25.153  0.00  0.00    +0.001 C 
ATOM     15  C   UNL     1      33.553  -8.715 -23.561  0.00  0.00    +0.001 C 
ATOM     16  C   UNL     1      34.536  -8.151 -24.373  0.00  0.00    +0.000 C 
ENDBRANCH   2  11
BRANCH   3  17
ATOM     17  C   UNL     1      35.184 -15.500 -23.464  0.00  0.00    +0.040 C 
BRANCH  17  19
ATOM     18  N   UNL     1      34.210 -19.401 -21.979  0.00  0.00    -0.242 NA
ATOM     19  C   UNL     1      34.843 -16.868 -22.943  0.00  0.00    -0.018 C 
ATOM     20  C   UNL     1      34.770 -17.936 -23.820  0.00  0.00    +0.016 C 
ATOM     21  C   UNL     1      34.604 -17.047 -21.590  0.00  0.00    +0.016 C 
ATOM     22  C   UNL     1      34.451 -19.177 -23.290  0.00  0.00    +0.099 C 
ATOM     23  C   UNL     1      34.294 -18.327 -21.161  0.00  0.00    +0.099 C 
ENDBRANCH  17  19
ENDBRANCH   3  17
BRANCH   3  24
ATOM     24  C   UNL     1      32.857 -15.080 -22.571  0.00  0.00    +0.040 C 
BRANCH  24  26
ATOM     25  N   UNL     1      31.390 -11.885 -20.120  0.00  0.00    -0.242 NA
ATOM     26  C   UNL     1      32.342 -13.959 -21.711  0.00  0.00    -0.018 C 
ATOM     27  C   UNL     1      32.620 -13.952 -20.355  0.00  0.00    +0.016 C 
ATOM     28  C   UNL     1      31.594 -12.944 -22.284  0.00  0.00    +0.016 C 
ATOM     29  C   UNL     1      32.123 -12.898 -19.607  0.00  0.00    +0.099 C 
ATOM     30  C   UNL     1      31.144 -11.935 -21.448  0.00  0.00    +0.099 C 
ENDBRANCH  24  26
ENDBRANCH   3  24
TORSDOF 5
ENDMDL
MODEL 3
REMARK VINA RESULT:      -9.4     11.927     15.322
REMARK  Name = 3932
REMARK  5 active torsions:
REMARK  status: ('A' for Active; 'I' for Inactive)
REMARK    1  A    between atoms: N_2  and  C_11
REMARK    2  A    between atoms: C_3  and  C_17
REMARK    3  A    between atoms: C_3  and  C_24
REMARK    4  A    between atoms: C_17  and  C_19
REMARK    5  A    between atoms: C_24  and  C_26
REMARK                            x       y       z     vdW  Elec       q    Type
REMARK                         _______ _______ _______ _____ _____    ______ ____
ROOT
ATOM      1  O   UNL     1      33.902 -11.453 -24.779  0.00  0.00    -0.274 OA
ATOM      2  N   UNL     1      32.979 -10.111 -23.044  0.00  0.00    -0.237 N 
ATOM      3  C   UNL     1      33.027 -12.474 -22.737  0.00  0.00    +0.098 C 
ATOM      4  C   UNL     1      32.406 -11.762 -21.564  0.00  0.00    +0.000 C 
ATOM      5  C   UNL     1      33.361 -11.309 -23.692  0.00  0.00    +0.237 C 
ATOM      6  C   UNL     1      32.385 -10.381 -21.791  0.00  0.00    +0.055 C 
ATOM      7  C   UNL     1      31.873 -12.315 -20.407  0.00  0.00    -0.003 C 
ATOM      8  C   UNL     1      31.767  -9.536 -20.879  0.00  0.00    +0.015 C 
ATOM      9  C   UNL     1      31.289 -11.463 -19.472  0.00  0.00    -0.000 C 
ATOM     10  C   UNL     1      31.228 -10.084 -19.711  0.00  0.00    +0.001 C 
ENDROOT
BRANCH   2  11
ATOM     11  C   UNL     1      33.175  -8.812 -23.581  0.00  0.00    +0.058 C 
ATOM     12  C   UNL     1      32.077  -8.008 -23.902  0.00  0.00    +0.015 C 
ATOM     13  C   UNL     1      34.469  -8.325 -23.796  0.00  0.00    +0.015 C 
ATOM     14  C   UNL     1      32.269  -6.731 -24.431  0.00  0.00    +0.001 C 
ATOM     15  C   UNL     1      34.662  -7.048 -24.324  0.00  0.00    +0.001 C 
ATOM     16  C   UNL     1      33.562  -6.252 -24.642  0.00  0.00    +0.000 C 
ENDBRANCH   2  11
BRANCH   3  17
ATOM     17  C   UNL     1      32.042 -13.424 -23.419  0.00  0.00    +0.040 C 
BRANCH  17  19
ATOM     18  N   UNL     1      33.623 -14.959 -27.095  0.00  0.00    -0.242 NA
ATOM     19  C   UNL     1      32.596 -13.962 -24.708  0.00  0.00    -0.018 C 
ATOM     20  C   UNL     1      33.276 -15.168 -24.712  0.00  0.00    +0.016 C 
ATOM     21  C   UNL     1      32.422 -13.247 -25.882  0.00  0.00    +0.016 C 
ATOM     22  C   UNL     1      33.768 -15.621 -25.926  0.00  0.00    +0.099 C 
ATOM     23  C   UNL     1      32.951 -13.786 -27.043  0.00  0.00    +0.099 C 
ENDBRANCH  17  19
ENDBRANCH   3  17
BRANCH   3  24
ATOM     24  C   UNL     1      34.316 -13.195 -22.341  0.00  0.00    +0.040 C 
BRANCH  24  26
ATOM     25  N   UNL     1      33.526 -17.165 -20.929  0.00  0.00    -0.242 NA
ATOM     26  C   UNL     1      34.040 -14.588 -21.845  0.00  0.00    -0.018 C 
ATOM     27  C   UNL     1      32.922 -14.828 -21.065  0.00  0.00    +0.016 C 
ATOM     28  C   UNL     1      34.905 -15.618 -22.174  0.00  0.00    +0.016 C 
ATOM     29  C   UNL     1      32.711 -16.127 -20.634  0.00  0.00    +0.099 C 
ATOM     30  C   UNL     1      34.605 -16.882 -21.693  0.00  0.00    +0.099 C 
ENDBRANCH  24  26
ENDBRANCH   3  24
TORSDOF 5
ENDMDL
MODEL 4
REMARK VINA RESULT:      -9.4      1.983      4.936
REMARK  Name = 3932
REMARK  5 active torsions:
REMARK  status: ('A' for Active; 'I' for Inactive)
REMARK    1  A    between atoms: N_2  and  C_11
REMARK    2  A    between atoms: C_3  and  C_17
REMARK    3  A    between atoms: C_3  and  C_24
REMARK    4  A    between atoms: C_17  and  C_19
REMARK    5  A    between atoms: C_24  and  C_26
REMARK                            x       y       z     vdW  Elec       q    Type
REMARK                         _______ _______ _______ _____ _____    ______ ____
ROOT
ATOM      1  O   UNL     1      32.589 -23.254 -17.380  0.00  0.00    -0.274 OA
ATOM      2  N   UNL     1      34.669 -22.157 -17.755  0.00  0.00    -0.237 N 
ATOM      3  C   UNL     1      34.448 -23.523 -15.815  0.00  0.00    +0.098 C 
ATOM      4  C   UNL     1      35.811 -22.888 -15.910  0.00  0.00    +0.000 C 
ATOM      5  C   UNL     1      33.737 -22.969 -17.067  0.00  0.00    +0.237 C 
ATOM      6  C   UNL     1      35.893 -22.086 -17.053  0.00  0.00    +0.055 C 
ATOM      7  C   UNL     1      36.874 -22.997 -15.023  0.00  0.00    -0.003 C 
ATOM      8  C   UNL     1      37.030 -21.327 -17.290  0.00  0.00    +0.015 C 
ATOM      9  C   UNL     1      38.032 -22.267 -15.282  0.00  0.00    -0.000 C 
ATOM     10  C   UNL     1      38.105 -21.431 -16.402  0.00  0.00    +0.001 C 
ENDROOT
BRANCH   2  11
ATOM     11  C   UNL     1      34.406 -21.509 -18.991  0.00  0.00    +0.058 C 
ATOM     12  C   UNL     1      35.456 -21.198 -19.860  0.00  0.00    +0.015 C 
ATOM     13  C   UNL     1      33.096 -21.175 -19.349  0.00  0.00    +0.015 C 
ATOM     14  C   UNL     1      35.200 -20.560 -21.075  0.00  0.00    +0.001 C 
ATOM     15  C   UNL     1      32.839 -20.537 -20.563  0.00  0.00    +0.001 C 
ATOM     16  C   UNL     1      33.890 -20.230 -21.425  0.00  0.00    +0.000 C 
ENDBRANCH   2  11
BRANCH   3  17
ATOM     17  C   UNL     1      33.694 -23.077 -14.562  0.00  0.00    +0.040 C 
BRANCH  17  19
ATOM     18  N   UNL     1      29.641 -24.472 -14.585  0.00  0.00    -0.242 NA
ATOM     19  C   UNL     1      32.272 -23.566 -14.570  0.00  0.00    -0.018 C 
ATOM     20  C   UNL     1      32.004 -24.899 -14.308  0.00  0.00    +0.016 C 
ATOM     21  C   UNL     1      31.243 -22.679 -14.839  0.00  0.00    +0.016 C 
ATOM     22  C   UNL     1      30.678 -25.300 -14.327  0.00  0.00    +0.099 C 
ATOM     23  C   UNL     1      29.952 -23.179 -14.834  0.00  0.00    +0.099 C 
ENDBRANCH  17  19
ENDBRANCH   3  17
BRANCH   3  24
ATOM     24  C   UNL     1      34.528 -25.048 -15.906  0.00  0.00    +0.040 C 
BRANCH  24  26
ATOM     25  N   UNL     1      37.561 -26.621 -13.318  0.00  0.00    -0.242 NA
ATOM     26  C   UNL     1      35.592 -25.600 -14.998  0.00  0.00    -0.018 C 
ATOM     27  C   UNL     1      36.548 -26.463 -15.507  0.00  0.00    +0.016 C 
ATOM     28  C   UNL     1      35.607 -25.240 -13.661  0.00  0.00    +0.016 C 
ATOM     29  C   UNL     1      37.505 -26.944 -14.630  0.00  0.00    +0.099 C 
ATOM     30  C   UNL     1      36.608 -25.776 -12.867  0.00  0.00    +0.099 C 
ENDBRANCH  24  26
ENDBRANCH   3  24
TORSDOF 5
ENDMDL
MODEL 5
REMARK VINA RESULT:      -9.4      1.991      4.956
REMARK  Name = 3932
REMARK  5 active torsions:
REMARK  status: ('A' for Active; 'I' for Inactive)
REMARK    1  A    between atoms: N_2  and  C_11
REMARK    2  A    between atoms: C_3  and  C_17
REMARK    3  A    between atoms: C_3  and  C_24
REMARK    4  A    between atoms: C_17  and  C_19
REMARK    5  A    between atoms: C_24  and  C_26
REMARK                            x       y       z     vdW  Elec       q    Type
REMARK                         _______ _______ _______ _____ _____    ______ ____
ROOT
ATOM      1  O   UNL     1      32.590 -23.237 -17.402  0.00  0.00    -0.274 OA
ATOM      2  N   UNL     1      34.671 -22.144 -17.777  0.00  0.00    -0.237 N 
ATOM      3  C   UNL     1      34.448 -23.508 -15.836  0.00  0.00    +0.098 C 
ATOM      4  C   UNL     1      35.811 -22.875 -15.931  0.00  0.00    +0.000 C 
ATOM      5  C   UNL     1      33.738 -22.954 -17.088  0.00  0.00    +0.237 C 
ATOM      6  C   UNL     1      35.895 -22.073 -17.075  0.00  0.00    +0.055 C 
ATOM      7  C   UNL     1      36.874 -22.984 -15.044  0.00  0.00    -0.003 C 
ATOM      8  C   UNL     1      37.033 -21.316 -17.312  0.00  0.00    +0.015 C 
ATOM      9  C   UNL     1      38.033 -22.256 -15.302  0.00  0.00    -0.000 C 
ATOM     10  C   UNL     1      38.108 -21.420 -16.424  0.00  0.00    +0.001 C 
ENDROOT
BRANCH   2  11
ATOM     11  C   UNL     1      34.410 -21.496 -19.013  0.00  0.00    +0.058 C 
ATOM     12  C   UNL     1      33.101 -21.153 -19.366  0.00  0.00    +0.015 C 
ATOM     13  C   UNL     1      35.458 -21.197 -19.889  0.00  0.00    +0.015 C 
ATOM     14  C   UNL     1      32.843 -20.517 -20.581  0.00  0.00    +0.001 C 
ATOM     15  C   UNL     1      35.201 -20.560 -21.103  0.00  0.00    +0.001 C 
ATOM     16  C   UNL     1      33.894 -20.221 -21.450  0.00  0.00    +0.000 C 
ENDBRANCH   2  11
BRANCH   3  17
ATOM     17  C   UNL     1      33.694 -23.060 -14.583  0.00  0.00    +0.040 C 
BRANCH  17  19
ATOM     18  N   UNL     1      29.645 -24.465 -14.596  0.00  0.00    -0.242 NA
ATOM     19  C   UNL     1      32.274 -23.553 -14.588  0.00  0.00    -0.018 C 
ATOM     20  C   UNL     1      32.008 -24.881 -14.302  0.00  0.00    +0.016 C 
ATOM     21  C   UNL     1      31.243 -22.674 -14.878  0.00  0.00    +0.016 C 
ATOM     22  C   UNL     1      30.682 -25.286 -14.319  0.00  0.00    +0.099 C 
ATOM     23  C   UNL     1      29.953 -23.177 -14.869  0.00  0.00    +0.099 C 
ENDBRANCH  17  19
ENDBRANCH   3  17
BRANCH   3  24
ATOM     24  C   UNL     1      34.526 -25.033 -15.926  0.00  0.00    +0.040 C 
BRANCH  24  26
ATOM     25  N   UNL     1      37.529 -26.611 -13.306  0.00  0.00    -0.242 NA
ATOM     26  C   UNL     1      35.580 -25.586 -15.007  0.00  0.00    -0.018 C 
ATOM     27  C   UNL     1      35.579 -25.229 -13.669  0.00  0.00    +0.016 C 
ATOM     28  C   UNL     1      36.542 -26.448 -15.506  0.00  0.00    +0.016 C 
ATOM     29  C   UNL     1      36.570 -25.766 -12.865  0.00  0.00    +0.099 C 
ATOM     30  C   UNL     1      37.490 -26.931 -14.618  0.00  0.00    +0.099 C 
ENDBRANCH  24  26
ENDBRANCH   3  24
TORSDOF 5
ENDMDL
MODEL 6
REMARK VINA RESULT:      -9.2     14.592     17.482
REMARK  Name = 3932
REMARK  5 active torsions:
REMARK  status: ('A' for Active; 'I' for Inactive)
REMARK    1  A    between atoms: N_2  and  C_11
REMARK    2  A    between atoms: C_3  and  C_17
REMARK    3  A    between atoms: C_3  and  C_24
REMARK    4  A    between atoms: C_17  and  C_19
REMARK    5  A    between atoms: C_24  and  C_26
REMARK                            x       y       z     vdW  Elec       q    Type
REMARK                         _______ _______ _______ _____ _____    ______ ____
ROOT
ATOM      1  O   UNL     1      32.337  -9.182 -25.066  0.00  0.00    -0.274 OA
ATOM      2  N   UNL     1      32.236  -7.409 -23.480  0.00  0.00    -0.237 N 
ATOM      3  C   UNL     1      32.466  -9.638 -22.668  0.00  0.00    +0.098 C 
ATOM      4  C   UNL     1      32.404  -8.630 -21.550  0.00  0.00    +0.000 C 
ATOM      5  C   UNL     1      32.323  -8.750 -23.922  0.00  0.00    +0.237 C 
ATOM      6  C   UNL     1      32.256  -7.339 -22.069  0.00  0.00    +0.055 C 
ATOM      7  C   UNL     1      32.443  -8.860 -20.181  0.00  0.00    -0.003 C 
ATOM      8  C   UNL     1      32.080  -6.261 -21.213  0.00  0.00    +0.015 C 
ATOM      9  C   UNL     1      32.308  -7.773 -19.321  0.00  0.00    -0.000 C 
ATOM     10  C   UNL     1      32.118  -6.484 -19.834  0.00  0.00    +0.001 C 
ENDROOT
BRANCH   2  11
ATOM     11  C   UNL     1      32.149  -6.286 -24.344  0.00  0.00    +0.058 C 
ATOM     12  C   UNL     1      33.208  -5.973 -25.202  0.00  0.00    +0.015 C 
ATOM     13  C   UNL     1      31.004  -5.483 -24.345  0.00  0.00    +0.015 C 
ATOM     14  C   UNL     1      33.124  -4.869 -26.051  0.00  0.00    +0.001 C 
ATOM     15  C   UNL     1      30.918  -4.379 -25.194  0.00  0.00    +0.001 C 
ATOM     16  C   UNL     1      31.978  -4.072 -26.047  0.00  0.00    +0.000 C 
ENDBRANCH   2  11
BRANCH   3  17
ATOM     17  C   UNL     1      31.303 -10.629 -22.611  0.00  0.00    +0.040 C 
BRANCH  17  19
ATOM     18  N   UNL     1      32.496 -14.351 -20.852  0.00  0.00    -0.242 NA
ATOM     19  C   UNL     1      31.721 -11.935 -21.994  0.00  0.00    -0.018 C 
ATOM     20  C   UNL     1      32.047 -13.005 -22.809  0.00  0.00    +0.016 C 
ATOM     21  C   UNL     1      31.778 -12.055 -20.615  0.00  0.00    +0.016 C 
ATOM     22  C   UNL     1      32.427 -14.186 -22.192  0.00  0.00    +0.099 C 
ATOM     23  C   UNL     1      32.170 -13.279 -20.097  0.00  0.00    +0.099 C 
ENDBRANCH  17  19
ENDBRANCH   3  17
BRANCH   3  24
ATOM     24  C   UNL     1      33.814 -10.359 -22.703  0.00  0.00    +0.040 C 
BRANCH  24  26
ATOM     25  N   UNL     1      35.210 -10.891 -26.721  0.00  0.00    -0.242 NA
ATOM     26  C   UNL     1      34.304 -10.546 -24.113  0.00  0.00    -0.018 C 
ATOM     27  C   UNL     1      35.220  -9.654 -24.644  0.00  0.00    +0.016 C 
ATOM     28  C   UNL     1      33.834 -11.608 -24.867  0.00  0.00    +0.016 C 
ATOM     29  C   UNL     1      35.639  -9.870 -25.946  0.00  0.00    +0.099 C 
ATOM     30  C   UNL     1      34.316 -11.735 -26.160  0.00  0.00    +0.099 C 
ENDBRANCH  24  26
ENDBRANCH   3  24
TORSDOF 5
ENDMDL
MODEL 7
REMARK VINA RESULT:      -9.1      1.707      4.845
REMARK  Name = 3932
REMARK  5 active torsions:
REMARK  status: ('A' for Active; 'I' for Inactive)
REMARK    1  A    between atoms: N_2  and  C_11
REMARK    2  A    between atoms: C_3  and  C_17
REMARK    3  A    between atoms: C_3  and  C_24
REMARK    4  A    between atoms: C_17  and  C_19
REMARK    5  A    between atoms: C_24  and  C_26
REMARK                            x       y       z     vdW  Elec       q    Type
REMARK                         _______ _______ _______ _____ _____    ______ ____
ROOT
ATOM      1  O   UNL     1      37.168 -22.773 -16.887  0.00  0.00    -0.274 OA
ATOM      2  N   UNL     1      34.808 -22.637 -17.170  0.00  0.00    -0.237 N 
ATOM      3  C   UNL     1      35.649 -23.617 -15.167  0.00  0.00    +0.098 C 
ATOM      4  C   UNL     1      34.143 -23.612 -15.207  0.00  0.00    +0.000 C 
ATOM      5  C   UNL     1      36.018 -22.974 -16.519  0.00  0.00    +0.237 C 
ATOM      6  C   UNL     1      33.693 -23.042 -16.403  0.00  0.00    +0.055 C 
ATOM      7  C   UNL     1      33.256 -24.110 -14.262  0.00  0.00    -0.003 C 
ATOM      8  C   UNL     1      32.336 -23.021 -16.695  0.00  0.00    +0.015 C 
ATOM      9  C   UNL     1      31.892 -24.053 -14.537  0.00  0.00    -0.000 C 
ATOM     10  C   UNL     1      31.436 -23.521 -15.749  0.00  0.00    +0.001 C 
ENDROOT
BRANCH   2  11
ATOM     11  C   UNL     1      34.730 -21.974 -18.422  0.00  0.00    +0.058 C 
ATOM     12  C   UNL     1      35.897 -21.603 -19.098  0.00  0.00    +0.015 C 
ATOM     13  C   UNL     1      33.485 -21.684 -18.991  0.00  0.00    +0.015 C 
ATOM     14  C   UNL     1      35.821 -20.950 -20.329  0.00  0.00    +0.001 C 
ATOM     15  C   UNL     1      33.409 -21.032 -20.222  0.00  0.00    +0.001 C 
ATOM     16  C   UNL     1      34.576 -20.665 -20.891  0.00  0.00    +0.000 C 
ENDBRANCH   2  11
BRANCH   3  17
ATOM     17  C   UNL     1      36.216 -25.036 -15.106  0.00  0.00    +0.040 C 
BRANCH  17  19
ATOM     18  N   UNL     1      40.385 -25.023 -14.109  0.00  0.00    -0.242 NA
ATOM     19  C   UNL     1      37.678 -25.031 -14.756  0.00  0.00    -0.018 C 
ATOM     20  C   UNL     1      38.128 -25.778 -13.682  0.00  0.00    +0.016 C 
ATOM     21  C   UNL     1      38.562 -24.280 -15.513  0.00  0.00    +0.016 C 
ATOM     22  C   UNL     1      39.485 -25.741 -13.400  0.00  0.00    +0.099 C 
ATOM     23  C   UNL     1      39.899 -24.310 -15.149  0.00  0.00    +0.099 C 
ENDBRANCH  17  19
ENDBRANCH   3  17
BRANCH   3  24
ATOM     24  C   UNL     1      36.186 -22.751 -14.026  0.00  0.00    +0.040 C 
BRANCH  24  26
ATOM     25  N   UNL     1      35.705 -24.678 -10.227  0.00  0.00    -0.242 NA
ATOM     26  C   UNL     1      36.018 -23.427 -12.693  0.00  0.00    -0.018 C 
ATOM     27  C   UNL     1      36.872 -23.110 -11.651  0.00  0.00    +0.016 C 
ATOM     28  C   UNL     1      35.009 -24.360 -12.520  0.00  0.00    +0.016 C 
ATOM     29  C   UNL     1      36.675 -23.761 -10.444  0.00  0.00    +0.099 C 
ATOM     30  C   UNL     1      34.896 -24.954 -11.274  0.00  0.00    +0.099 C 
ENDBRANCH  24  26
ENDBRANCH   3  24
TORSDOF 5
ENDMDL
MODEL 8
REMARK VINA RESULT:      -8.6     12.086     15.091
REMARK  Name = 3932
REMARK  5 active torsions:
REMARK  status: ('A' for Active; 'I' for Inactive)
REMARK    1  A    between atoms: N_2  and  C_11
REMARK    2  A    between atoms: C_3  and  C_17
REMARK    3  A    between atoms: C_3  and  C_24
REMARK    4  A    between atoms: C_17  and  C_19
REMARK    5  A    between atoms: C_24  and  C_26
REMARK                            x       y       z     vdW  Elec       q    Type
REMARK                         _______ _______ _______ _____ _____    ______ ____
ROOT
ATOM      1  O   UNL     1      31.829 -11.357 -21.073  0.00  0.00    -0.274 OA
ATOM      2  N   UNL     1      32.768  -9.872 -22.679  0.00  0.00    -0.237 N 
ATOM      3  C   UNL     1      33.203 -12.204 -22.909  0.00  0.00    +0.098 C 
ATOM      4  C   UNL     1      33.871 -11.393 -23.989  0.00  0.00    +0.000 C 
ATOM      5  C   UNL     1      32.508 -11.118 -22.062  0.00  0.00    +0.237 C 
ATOM      6  C   UNL     1      33.602 -10.031 -23.809  0.00  0.00    +0.055 C 
ATOM      7  C   UNL     1      34.680 -11.841 -25.024  0.00  0.00    -0.003 C 
ATOM      8  C   UNL     1      34.198  -9.090 -24.635  0.00  0.00    +0.015 C 
ATOM      9  C   UNL     1      35.247 -10.898 -25.880  0.00  0.00    -0.000 C 
ATOM     10  C   UNL     1      35.015  -9.532 -25.680  0.00  0.00    +0.001 C 
ENDROOT
BRANCH   2  11
ATOM     11  C   UNL     1      32.252  -8.630 -22.225  0.00  0.00    +0.058 C 
ATOM     12  C   UNL     1      31.356  -7.906 -23.018  0.00  0.00    +0.015 C 
ATOM     13  C   UNL     1      32.635  -8.119 -20.980  0.00  0.00    +0.015 C 
ATOM     14  C   UNL     1      30.849  -6.685 -22.573  0.00  0.00    +0.001 C 
ATOM     15  C   UNL     1      32.128  -6.898 -20.534  0.00  0.00    +0.001 C 
ATOM     16  C   UNL     1      31.235  -6.182 -21.330  0.00  0.00    +0.000 C 
ENDBRANCH   2  11
BRANCH   3  17
ATOM     17  C   UNL     1      34.217 -12.953 -22.045  0.00  0.00    +0.040 C 
BRANCH  17  19
ATOM     18  N   UNL     1      32.686 -16.741 -20.748  0.00  0.00    -0.242 NA
ATOM     19  C   UNL     1      33.680 -14.281 -21.590  0.00  0.00    -0.018 C 
ATOM     20  C   UNL     1      34.426 -15.429 -21.796  0.00  0.00    +0.016 C 
ATOM     21  C   UNL     1      32.444 -14.346 -20.969  0.00  0.00    +0.016 C 
ATOM     22  C   UNL     1      33.887 -16.629 -21.358  0.00  0.00    +0.099 C 
ATOM     23  C   UNL     1      31.994 -15.593 -20.569  0.00  0.00    +0.099 C 
ENDBRANCH  17  19
ENDBRANCH   3  17
BRANCH   3  24
ATOM     24  C   UNL     1      32.150 -13.153 -23.486  0.00  0.00    +0.040 C 
BRANCH  24  26
ATOM     25  N   UNL     1      33.615 -15.205 -26.953  0.00  0.00    -0.242 NA
ATOM     26  C   UNL     1      32.664 -13.873 -24.702  0.00  0.00    -0.018 C 
ATOM     27  C   UNL     1      32.418 -13.353 -25.961  0.00  0.00    +0.016 C 
ATOM     28  C   UNL     1      33.378 -15.049 -24.552  0.00  0.00    +0.016 C 
ATOM     29  C   UNL     1      32.912 -14.053 -27.049  0.00  0.00    +0.099 C 
ATOM     30  C   UNL     1      33.830 -15.673 -25.704  0.00  0.00    +0.099 C 
ENDBRANCH  24  26
ENDBRANCH   3  24
TORSDOF 5
ENDMDL
MODEL 9
REMARK VINA RESULT:      -7.4     13.607     16.857
REMARK  Name = 3932
REMARK  5 active torsions:
REMARK  status: ('A' for Active; 'I' for Inactive)
REMARK    1  A    between atoms: N_2  and  C_11
REMARK    2  A    between atoms: C_3  and  C_17
REMARK    3  A    between atoms: C_3  and  C_24
REMARK    4  A    between atoms: C_17  and  C_19
REMARK    5  A    between atoms: C_24  and  C_26
REMARK                            x       y       z     vdW  Elec       q    Type
REMARK                         _______ _______ _______ _____ _____    ______ ____
ROOT
ATOM      1  O   UNL     1      31.473 -11.610 -22.157  0.00  0.00    -0.274 OA
ATOM      2  N   UNL     1      33.272 -11.576 -23.715  0.00  0.00    -0.237 N 
ATOM      3  C   UNL     1      32.467  -9.495 -22.877  0.00  0.00    +0.098 C 
ATOM      4  C   UNL     1      33.594  -9.313 -23.860  0.00  0.00    +0.000 C 
ATOM      5  C   UNL     1      32.294 -11.028 -22.853  0.00  0.00    +0.237 C 
ATOM      6  C   UNL     1      34.027 -10.556 -24.336  0.00  0.00    +0.055 C 
ATOM      7  C   UNL     1      34.158  -8.127 -24.311  0.00  0.00    -0.003 C 
ATOM      8  C   UNL     1      34.996 -10.621 -25.327  0.00  0.00    +0.015 C 
ATOM      9  C   UNL     1      35.161  -8.194 -25.277  0.00  0.00    -0.000 C 
ATOM     10  C   UNL     1      35.570  -9.432 -25.787  0.00  0.00    +0.001 C 
ENDROOT
BRANCH   2  11
ATOM     11  C   UNL     1      33.470 -12.966 -23.921  0.00  0.00    +0.058 C 
ATOM     12  C   UNL     1      34.066 -13.748 -22.926  0.00  0.00    +0.015 C 
ATOM     13  C   UNL     1      33.071 -13.567 -25.119  0.00  0.00    +0.015 C 
ATOM     14  C   UNL     1      34.262 -15.115 -23.127  0.00  0.00    +0.001 C 
ATOM     15  C   UNL     1      33.266 -14.934 -25.321  0.00  0.00    +0.001 C 
ATOM     16  C   UNL     1      33.862 -15.707 -24.326  0.00  0.00    +0.000 C 
ENDBRANCH   2  11
BRANCH   3  17
ATOM     17  C   UNL     1      31.172  -8.845 -23.364  0.00  0.00    +0.040 C 
BRANCH  17  19
ATOM     18  N   UNL     1      31.460  -4.568 -23.358  0.00  0.00    -0.242 NA
ATOM     19  C   UNL     1      31.273  -7.345 -23.362  0.00  0.00    -0.018 C 
ATOM     20  C   UNL     1      31.152  -6.648 -24.552  0.00  0.00    +0.016 C 
ATOM     21  C   UNL     1      31.486  -6.673 -22.169  0.00  0.00    +0.016 C 
ATOM     22  C   UNL     1      31.253  -5.266 -24.496  0.00  0.00    +0.099 C 
ATOM     23  C   UNL     1      31.571  -5.292 -22.221  0.00  0.00    +0.099 C 
ENDBRANCH  17  19
ENDBRANCH   3  17
BRANCH   3  24
ATOM     24  C   UNL     1      32.850  -9.002 -21.481  0.00  0.00    +0.040 C 
BRANCH  24  26
ATOM     25  N   UNL     1      30.899 -11.280 -18.418  0.00  0.00    -0.242 NA
ATOM     26  C   UNL     1      32.166  -9.801 -20.406  0.00  0.00    -0.018 C 
ATOM     27  C   UNL     1      31.123  -9.237 -19.692  0.00  0.00    +0.016 C 
ATOM     28  C   UNL     1      32.585 -11.094 -20.141  0.00  0.00    +0.016 C 
ATOM     29  C   UNL     1      30.526 -10.014 -18.713  0.00  0.00    +0.099 C 
ATOM     30  C   UNL     1      31.921 -11.787 -19.142  0.00  0.00    +0.099 C 
ENDBRANCH  24  26
ENDBRANCH   3  24
TORSDOF 5
ENDMDL
