MODEL 1
REMARK VINA RESULT:     -11.9      0.000      0.000
REMARK  Name = 5327153
REMARK  6 active torsions:
REMARK  status: ('A' for Active; 'I' for Inactive)
REMARK    1  A    between atoms: C_3  and  C_15
REMARK    2  A    between atoms: C_10  and  O_24
REMARK    3  A    between atoms: C_11  and  N_18
REMARK    4  A    between atoms: N_18  and  S_20
REMARK    5  A    between atoms: O_24  and  C_25
REMARK    6  A    between atoms: C_25  and  C_26
REMARK                            x       y       z     vdW  Elec       q    Type
REMARK                         _______ _______ _______ _____ _____    ______ ____
ROOT
ATOM      1  O   UNL     1      37.341 -22.050 -16.734  0.00  0.00    -0.226 OA
ATOM      2  N   UNL     1      35.215 -22.920 -16.339  0.00  0.00    -0.235 N 
ATOM      3  C   UNL     1      35.500 -23.260 -14.945  0.00  0.00    +0.159 C 
ATOM      4  C   UNL     1      34.353 -22.894 -14.006  0.00  0.00    +0.055 C 
ATOM      5  C   UNL     1      33.918 -23.321 -16.903  0.00  0.00    +0.124 C 
ATOM      6  C   UNL     1      33.005 -23.309 -14.532  0.00  0.00    -0.022 C 
ATOM      7  C   UNL     1      32.801 -23.492 -15.907  0.00  0.00    -0.005 C 
ATOM      8  C   UNL     1      31.527 -23.854 -16.370  0.00  0.00    +0.013 C 
ATOM      9  C   UNL     1      31.930 -23.464 -13.644  0.00  0.00    -0.003 C 
ATOM     10  C   UNL     1      36.239 -22.402 -17.148  0.00  0.00    +0.406 C 
ATOM     11  C   UNL     1      30.467 -24.019 -15.479  0.00  0.00    +0.065 C 
ATOM     12  C   UNL     1      30.669 -23.821 -14.116  0.00  0.00    +0.016 C 
ENDROOT
BRANCH   3  15
ATOM     13  O   UNL     1      35.444 -25.496 -15.787  0.00  0.00    -0.273 OA
ATOM     14  N   UNL     1      36.574 -25.070 -13.797  0.00  0.00    -0.301 N 
ATOM     15  C   UNL     1      35.829 -24.726 -14.912  0.00  0.00    +0.241 C 
ATOM     16  C   UNL     1      37.001 -26.422 -13.519  0.00  0.00    +0.111 C 
ATOM     17  H   UNL     1      36.824 -24.359 -13.163  0.00  0.00    +0.150 HD
ENDBRANCH   3  15
BRANCH  11  18
ATOM     18  N   UNL     1      29.176 -24.386 -15.966  0.00  0.00    -0.213 N 
ATOM     19  H   UNL     1      28.832 -25.305 -15.877  0.00  0.00    +0.174 HD
BRANCH  18  20
ATOM     20  S   UNL     1      28.245 -23.136 -16.721  0.00  0.00    +0.091 S 
ATOM     21  O   UNL     1      27.106 -22.754 -15.619  0.00  0.00    -0.050 OA
ATOM     22  O   UNL     1      29.091 -21.970 -16.905  0.00  0.00    -0.050 OA
ATOM     23  O   UNL     1      27.560 -23.718 -17.861  0.00  0.00    -0.050 OA
ENDBRANCH  18  20
ENDBRANCH  11  18
BRANCH  10  24
ATOM     24  O   UNL     1      35.879 -22.335 -18.469  0.00  0.00    -0.430 OA
BRANCH  24  25
ATOM     25  C   UNL     1      36.473 -21.278 -19.231  0.00  0.00    +0.237 C 
BRANCH  25  26
ATOM     26  C   UNL     1      35.403 -20.579 -20.016  0.00  0.00    +0.021 C 
ATOM     27  C   UNL     1      35.747 -19.555 -20.890  0.00  0.00    -0.001 C 
ATOM     28  C   UNL     1      34.074 -20.962 -19.862  0.00  0.00    -0.001 C 
ATOM     29  C   UNL     1      34.752 -18.905 -21.620  0.00  0.00    -0.000 C 
ATOM     30  C   UNL     1      33.079 -20.313 -20.592  0.00  0.00    -0.000 C 
ATOM     31  C   UNL     1      33.418 -19.284 -21.471  0.00  0.00    -0.000 C 
ENDBRANCH  25  26
ENDBRANCH  24  25
ENDBRANCH  10  24
TORSDOF 6
ENDMDL
MODEL 2
REMARK VINA RESULT:     -10.4      6.103      9.529
REMARK  Name = 5327153
REMARK  6 active torsions:
REMARK  status: ('A' for Active; 'I' for Inactive)
REMARK    1  A    between atoms: C_3  and  C_15
REMARK    2  A    between atoms: C_10  and  O_24
REMARK    3  A    between atoms: C_11  and  N_18
REMARK    4  A    between atoms: N_18  and  S_20
REMARK    5  A    between atoms: O_24  and  C_25
REMARK    6  A    between atoms: C_25  and  C_26
REMARK                            x       y       z     vdW  Elec       q    Type
REMARK                         _______ _______ _______ _____ _____    ______ ____
ROOT
ATOM      1  O   UNL     1      34.731 -13.768 -22.636  0.00  0.00    -0.226 OA
ATOM      2  N   UNL     1      34.264 -15.987 -22.094  0.00  0.00    -0.235 N 
ATOM      3  C   UNL     1      35.275 -16.530 -23.001  0.00  0.00    +0.159 C 
ATOM      4  C   UNL     1      36.075 -17.667 -22.373  0.00  0.00    +0.055 C 
ATOM      5  C   UNL     1      33.384 -16.929 -21.387  0.00  0.00    +0.124 C 
ATOM      6  C   UNL     1      35.212 -18.673 -21.658  0.00  0.00    -0.022 C 
ATOM      7  C   UNL     1      33.945 -18.311 -21.178  0.00  0.00    -0.005 C 
ATOM      8  C   UNL     1      33.174 -19.262 -20.493  0.00  0.00    +0.013 C 
ATOM      9  C   UNL     1      35.700 -19.967 -21.425  0.00  0.00    -0.003 C 
ATOM     10  C   UNL     1      34.031 -14.603 -22.066  0.00  0.00    +0.406 C 
ATOM     11  C   UNL     1      33.661 -20.551 -20.277  0.00  0.00    +0.065 C 
ATOM     12  C   UNL     1      34.925 -20.902 -20.742  0.00  0.00    +0.016 C 
ENDROOT
BRANCH   3  15
ATOM     13  O   UNL     1      34.583 -18.108 -24.658  0.00  0.00    -0.273 OA
ATOM     14  N   UNL     1      33.912 -15.888 -24.865  0.00  0.00    -0.301 N 
ATOM     15  C   UNL     1      34.557 -16.949 -24.253  0.00  0.00    +0.241 C 
ATOM     16  C   UNL     1      33.168 -16.022 -26.097  0.00  0.00    +0.111 C 
ATOM     17  H   UNL     1      33.963 -15.001 -24.443  0.00  0.00    +0.150 HD
ENDBRANCH   3  15
BRANCH  11  18
ATOM     18  N   UNL     1      32.863 -21.506 -19.578  0.00  0.00    -0.213 N 
ATOM     19  H   UNL     1      31.879 -21.484 -19.614  0.00  0.00    +0.174 HD
BRANCH  18  20
ATOM     20  S   UNL     1      33.713 -22.707 -18.662  0.00  0.00    +0.091 S 
ATOM     21  O   UNL     1      32.691 -23.097 -17.453  0.00  0.00    -0.050 OA
ATOM     22  O   UNL     1      33.891 -23.887 -19.490  0.00  0.00    -0.050 OA
ATOM     23  O   UNL     1      34.868 -22.069 -18.057  0.00  0.00    -0.050 OA
ENDBRANCH  18  20
ENDBRANCH  11  18
BRANCH  10  24
ATOM     24  O   UNL     1      32.920 -14.273 -21.332  0.00  0.00    -0.430 OA
BRANCH  24  25
ATOM     25  C   UNL     1      31.939 -13.473 -22.001  0.00  0.00    +0.237 C 
BRANCH  25  26
ATOM     26  C   UNL     1      31.865 -12.131 -21.334  0.00  0.00    +0.021 C 
ATOM     27  C   UNL     1      31.755 -12.055 -19.950  0.00  0.00    -0.001 C 
ATOM     28  C   UNL     1      31.906 -10.975 -22.106  0.00  0.00    -0.001 C 
ATOM     29  C   UNL     1      31.687 -10.808 -19.330  0.00  0.00    -0.000 C 
ATOM     30  C   UNL     1      31.838  -9.728 -21.486  0.00  0.00    -0.000 C 
ATOM     31  C   UNL     1      31.728  -9.643 -20.098  0.00  0.00    -0.000 C 
ENDBRANCH  25  26
ENDBRANCH  24  25
ENDBRANCH  10  24
TORSDOF 6
ENDMDL
MODEL 3
REMARK VINA RESULT:      -9.4      4.113      7.820
REMARK  Name = 5327153
REMARK  6 active torsions:
REMARK  status: ('A' for Active; 'I' for Inactive)
REMARK    1  A    between atoms: C_3  and  C_15
REMARK    2  A    between atoms: C_10  and  O_24
REMARK    3  A    between atoms: C_11  and  N_18
REMARK    4  A    between atoms: N_18  and  S_20
REMARK    5  A    between atoms: O_24  and  C_25
REMARK    6  A    between atoms: C_25  and  C_26
REMARK                            x       y       z     vdW  Elec       q    Type
REMARK                         _______ _______ _______ _____ _____    ______ ____
ROOT
ATOM      1  O   UNL     1      33.912 -24.068 -18.488  0.00  0.00    -0.226 OA
ATOM      2  N   UNL     1      34.047 -21.905 -19.348  0.00  0.00    -0.235 N 
ATOM      3  C   UNL     1      35.447 -22.041 -19.753  0.00  0.00    +0.159 C 
ATOM      4  C   UNL     1      35.716 -21.457 -21.136  0.00  0.00    +0.055 C 
ATOM      5  C   UNL     1      33.401 -20.593 -19.506  0.00  0.00    +0.124 C 
ATOM      6  C   UNL     1      35.094 -20.101 -21.336  0.00  0.00    -0.022 C 
ATOM      7  C   UNL     1      33.986 -19.705 -20.572  0.00  0.00    -0.005 C 
ATOM      8  C   UNL     1      33.412 -18.445 -20.798  0.00  0.00    +0.013 C 
ATOM      9  C   UNL     1      35.594 -19.245 -22.329  0.00  0.00    -0.003 C 
ATOM     10  C   UNL     1      33.422 -22.952 -18.652  0.00  0.00    +0.406 C 
ATOM     11  C   UNL     1      33.923 -17.596 -21.778  0.00  0.00    +0.065 C 
ATOM     12  C   UNL     1      35.013 -17.997 -22.545  0.00  0.00    +0.016 C 
ENDROOT
BRANCH   3  15
ATOM     13  O   UNL     1      36.846 -20.322 -18.857  0.00  0.00    -0.273 OA
ATOM     14  N   UNL     1      36.320 -22.157 -17.523  0.00  0.00    -0.301 N 
ATOM     15  C   UNL     1      36.276 -21.395 -18.679  0.00  0.00    +0.241 C 
ATOM     16  C   UNL     1      37.069 -21.768 -16.350  0.00  0.00    +0.111 C 
ATOM     17  H   UNL     1      35.819 -23.004 -17.500  0.00  0.00    +0.150 HD
ENDBRANCH   3  15
BRANCH  11  18
ATOM     18  N   UNL     1      33.326 -16.317 -21.996  0.00  0.00    -0.213 N 
ATOM     19  H   UNL     1      32.523 -16.210 -22.557  0.00  0.00    +0.174 HD
BRANCH  18  20
ATOM     20  S   UNL     1      34.084 -14.964 -21.225  0.00  0.00    +0.091 S 
ATOM     21  O   UNL     1      32.849 -14.129 -20.562  0.00  0.00    -0.050 OA
ATOM     22  O   UNL     1      34.920 -15.451 -20.142  0.00  0.00    -0.050 OA
ATOM     23  O   UNL     1      34.659 -14.126 -22.261  0.00  0.00    -0.050 OA
ENDBRANCH  18  20
ENDBRANCH  11  18
BRANCH  10  24
ATOM     24  O   UNL     1      32.194 -22.594 -18.160  0.00  0.00    -0.430 OA
BRANCH  24  25
ATOM     25  C   UNL     1      32.090 -22.499 -16.735  0.00  0.00    +0.237 C 
BRANCH  25  26
ATOM     26  C   UNL     1      30.858 -23.227 -16.285  0.00  0.00    +0.021 C 
ATOM     27  C   UNL     1      29.605 -22.763 -16.669  0.00  0.00    -0.001 C 
ATOM     28  C   UNL     1      30.979 -24.360 -15.487  0.00  0.00    -0.001 C 
ATOM     29  C   UNL     1      28.459 -23.439 -16.251  0.00  0.00    -0.000 C 
ATOM     30  C   UNL     1      29.833 -25.037 -15.069  0.00  0.00    -0.000 C 
ATOM     31  C   UNL     1      28.573 -24.577 -15.451  0.00  0.00    -0.000 C 
ENDBRANCH  25  26
ENDBRANCH  24  25
ENDBRANCH  10  24
TORSDOF 6
ENDMDL
MODEL 4
REMARK VINA RESULT:      -9.4      5.492      8.727
REMARK  Name = 5327153
REMARK  6 active torsions:
REMARK  status: ('A' for Active; 'I' for Inactive)
REMARK    1  A    between atoms: C_3  and  C_15
REMARK    2  A    between atoms: C_10  and  O_24
REMARK    3  A    between atoms: C_11  and  N_18
REMARK    4  A    between atoms: N_18  and  S_20
REMARK    5  A    between atoms: O_24  and  C_25
REMARK    6  A    between atoms: C_25  and  C_26
REMARK                            x       y       z     vdW  Elec       q    Type
REMARK                         _______ _______ _______ _____ _____    ______ ____
ROOT
ATOM      1  O   UNL     1      35.204 -14.715 -22.965  0.00  0.00    -0.226 OA
ATOM      2  N   UNL     1      34.609 -16.817 -22.151  0.00  0.00    -0.235 N 
ATOM      3  C   UNL     1      35.701 -17.507 -22.838  0.00  0.00    +0.159 C 
ATOM      4  C   UNL     1      36.388 -18.543 -21.953  0.00  0.00    +0.055 C 
ATOM      5  C   UNL     1      33.624 -17.627 -21.419  0.00  0.00    +0.124 C 
ATOM      6  C   UNL     1      35.417 -19.414 -21.202  0.00  0.00    -0.022 C 
ATOM      7  C   UNL     1      34.114 -18.967 -20.937  0.00  0.00    -0.005 C 
ATOM      8  C   UNL     1      33.240 -19.790 -20.213  0.00  0.00    +0.013 C 
ATOM      9  C   UNL     1      35.833 -20.663 -20.719  0.00  0.00    -0.003 C 
ATOM     10  C   UNL     1      34.417 -15.442 -22.362  0.00  0.00    +0.406 C 
ATOM     11  C   UNL     1      33.658 -21.036 -19.747  0.00  0.00    +0.065 C 
ATOM     12  C   UNL     1      34.956 -21.471 -19.998  0.00  0.00    +0.016 C 
ENDROOT
BRANCH   3  15
ATOM     13  O   UNL     1      34.616 -17.410 -24.966  0.00  0.00    -0.273 OA
ATOM     14  N   UNL     1      35.210 -19.487 -24.097  0.00  0.00    -0.301 N 
ATOM     15  C   UNL     1      35.120 -18.105 -24.088  0.00  0.00    +0.241 C 
ATOM     16  C   UNL     1      34.704 -20.304 -25.176  0.00  0.00    +0.111 C 
ATOM     17  H   UNL     1      35.639 -19.934 -23.331  0.00  0.00    +0.150 HD
ENDBRANCH   3  15
BRANCH  11  18
ATOM     18  N   UNL     1      32.756 -21.862 -19.010  0.00  0.00    -0.213 N 
ATOM     19  H   UNL     1      31.780 -21.740 -19.067  0.00  0.00    +0.174 HD
BRANCH  18  20
ATOM     20  S   UNL     1      33.463 -23.089 -18.012  0.00  0.00    +0.091 S 
ATOM     21  O   UNL     1      33.690 -24.352 -19.019  0.00  0.00    -0.050 OA
ATOM     22  O   UNL     1      34.770 -22.636 -17.570  0.00  0.00    -0.050 OA
ATOM     23  O   UNL     1      32.470 -23.494 -17.034  0.00  0.00    -0.050 OA
ENDBRANCH  18  20
ENDBRANCH  11  18
BRANCH  10  24
ATOM     24  O   UNL     1      33.240 -14.988 -21.825  0.00  0.00    -0.430 OA
BRANCH  24  25
ATOM     25  C   UNL     1      32.279 -14.477 -22.755  0.00  0.00    +0.237 C 
BRANCH  25  26
ATOM     26  C   UNL     1      32.378 -12.980 -22.787  0.00  0.00    +0.021 C 
ATOM     27  C   UNL     1      31.656 -12.222 -21.872  0.00  0.00    -0.001 C 
ATOM     28  C   UNL     1      33.192 -12.363 -23.731  0.00  0.00    -0.001 C 
ATOM     29  C   UNL     1      31.748 -10.831 -21.901  0.00  0.00    -0.000 C 
ATOM     30  C   UNL     1      33.285 -10.971 -23.760  0.00  0.00    -0.000 C 
ATOM     31  C   UNL     1      32.563 -10.205 -22.845  0.00  0.00    -0.000 C 
ENDBRANCH  25  26
ENDBRANCH  24  25
ENDBRANCH  10  24
TORSDOF 6
ENDMDL
