MODEL 1
REMARK VINA RESULT:      -6.6      0.000      0.000
REMARK  Name = 444640
REMARK  11 active torsions:
REMARK  status: ('A' for Active; 'I' for Inactive)
REMARK    1  A    between atoms: C_1  and  N_3
REMARK    2  A    between atoms: C_1  and  C_8
REMARK    3  A    between atoms: C_1  and  C_14
REMARK    4  A    between atoms: C_4  and  O_6
REMARK    5  A    between atoms: C_8  and  N_10
REMARK    6  A    between atoms: C_14  and  C_15
REMARK    7  A    between atoms: C_15  and  C_16
REMARK    8  A    between atoms: C_16  and  C_17
REMARK    9  A    between atoms: C_17  and  C_18
REMARK   10  A    between atoms: C_18  and  C_20
REMARK   11  A    between atoms: C_20  and  O_21
REMARK                            x       y       z     vdW  Elec       q    Type
REMARK                         _______ _______ _______ _____ _____    ______ ____
ROOT
ATOM      1  C   UNL     1      35.014 -24.079 -13.562  0.00  0.00    +0.055 C 
ENDROOT
BRANCH   1   3
ATOM      2  O   UNL     1      36.362 -25.619 -11.477  0.00  0.00    -0.227 OA
ATOM      3  N   UNL     1      34.960 -23.879 -12.131  0.00  0.00    -0.274 N 
ATOM      4  C   UNL     1      35.636 -24.665 -11.227  0.00  0.00    +0.398 C 
ATOM      5  H   UNL     1      34.409 -23.140 -11.784  0.00  0.00    +0.153 HD
BRANCH   4   6
ATOM      6  O   UNL     1      35.398 -24.243  -9.957  0.00  0.00    -0.466 OA
ATOM      7  H   UNL     1      34.966 -24.809  -9.347  0.00  0.00    +0.297 HD
ENDBRANCH   4   6
ENDBRANCH   1   3
BRANCH   1   8
ATOM      8  C   UNL     1      33.611 -23.967 -14.203  0.00  0.00    -0.047 C 
ATOM      9  C   UNL     1      33.677 -23.441 -15.641  0.00  0.00    -0.022 C 
BRANCH   8  10
ATOM     10  N   UNL     1      32.758 -23.070 -13.418  0.00  0.00    +0.383 N 
ATOM     11  H   UNL     1      32.576 -22.219 -13.951  0.00  0.00    -0.089 HD
ATOM     12  H   UNL     1      33.228 -22.830 -12.545  0.00  0.00    -0.089 HD
ATOM     13  H   UNL     1      31.874 -23.536 -13.211  0.00  0.00    -0.089 HD
ENDBRANCH   8  10
ENDBRANCH   1   8
BRANCH   1  14
ATOM     14  C   UNL     1      36.094 -23.173 -14.190  0.00  0.00    +0.018 C 
BRANCH  14  15
ATOM     15  C   UNL     1      37.342 -23.848 -14.780  0.00  0.00    +0.002 C 
BRANCH  15  16
ATOM     16  C   UNL     1      37.179 -25.337 -15.080  0.00  0.00    +0.001 C 
BRANCH  16  17
ATOM     17  C   UNL     1      38.022 -26.188 -14.123  0.00  0.00    +0.012 C 
BRANCH  17  18
ATOM     18  C   UNL     1      39.384 -25.558 -13.827  0.00  0.00    +0.109 C 
BRANCH  18  20
ATOM     19  O   UNL     1      40.621 -25.933 -15.895  0.00  0.00    -0.250 OA
ATOM     20  C   UNL     1      40.492 -26.107 -14.693  0.00  0.00    +0.314 C 
BRANCH  20  21
ATOM     21  O   UNL     1      41.369 -26.816 -13.936  0.00  0.00    -0.480 OA
ATOM     22  H   UNL     1      42.259 -26.907 -14.214  0.00  0.00    +0.295 HD
ENDBRANCH  20  21
ENDBRANCH  18  20
ENDBRANCH  17  18
ENDBRANCH  16  17
ENDBRANCH  15  16
ENDBRANCH  14  15
ENDBRANCH   1  14
TORSDOF 11
ENDMDL
MODEL 2
REMARK VINA RESULT:      -6.6     10.582     12.433
REMARK  Name = 444640
REMARK  11 active torsions:
REMARK  status: ('A' for Active; 'I' for Inactive)
REMARK    1  A    between atoms: C_1  and  N_3
REMARK    2  A    between atoms: C_1  and  C_8
REMARK    3  A    between atoms: C_1  and  C_14
REMARK    4  A    between atoms: C_4  and  O_6
REMARK    5  A    between atoms: C_8  and  N_10
REMARK    6  A    between atoms: C_14  and  C_15
REMARK    7  A    between atoms: C_15  and  C_16
REMARK    8  A    between atoms: C_16  and  C_17
REMARK    9  A    between atoms: C_17  and  C_18
REMARK   10  A    between atoms: C_18  and  C_20
REMARK   11  A    between atoms: C_20  and  O_21
REMARK                            x       y       z     vdW  Elec       q    Type
REMARK                         _______ _______ _______ _____ _____    ______ ____
ROOT
ATOM      1  C   UNL     1      34.562 -15.721 -23.080  0.00  0.00    +0.055 C 
ENDROOT
BRANCH   1   3
ATOM      2  O   UNL     1      34.956 -16.731 -25.793  0.00  0.00    -0.227 OA
ATOM      3  N   UNL     1      33.695 -15.559 -24.226  0.00  0.00    -0.274 N 
ATOM      4  C   UNL     1      33.973 -16.078 -25.469  0.00  0.00    +0.398 C 
ATOM      5  H   UNL     1      32.860 -15.050 -24.110  0.00  0.00    +0.153 HD
BRANCH   4   6
ATOM      6  O   UNL     1      32.982 -15.767 -26.347  0.00  0.00    -0.466 OA
ATOM      7  H   UNL     1      33.078 -15.975 -27.256  0.00  0.00    +0.297 HD
ENDBRANCH   4   6
ENDBRANCH   1   3
BRANCH   1   8
ATOM      8  C   UNL     1      34.308 -14.625 -22.019  0.00  0.00    -0.047 C 
ATOM      9  C   UNL     1      34.510 -15.150 -20.592  0.00  0.00    -0.022 C 
BRANCH   8  10
ATOM     10  N   UNL     1      32.942 -14.105 -22.134  0.00  0.00    +0.383 N 
ATOM     11  H   UNL     1      32.637 -14.162 -23.106  0.00  0.00    -0.089 HD
ATOM     12  H   UNL     1      32.921 -13.133 -21.827  0.00  0.00    -0.089 HD
ATOM     13  H   UNL     1      32.317 -14.660 -21.549  0.00  0.00    -0.089 HD
ENDBRANCH   8  10
ENDBRANCH   1   8
BRANCH   1  14
ATOM     14  C   UNL     1      34.491 -17.171 -22.554  0.00  0.00    +0.018 C 
BRANCH  14  15
ATOM     15  C   UNL     1      35.805 -17.957 -22.437  0.00  0.00    +0.002 C 
BRANCH  15  16
ATOM     16  C   UNL     1      35.920 -18.822 -21.182  0.00  0.00    +0.001 C 
BRANCH  16  17
ATOM     17  C   UNL     1      34.624 -19.600 -20.927  0.00  0.00    +0.012 C 
BRANCH  17  18
ATOM     18  C   UNL     1      34.843 -20.823 -20.034  0.00  0.00    +0.109 C 
BRANCH  18  20
ATOM     19  O   UNL     1      33.415 -22.701 -19.418  0.00  0.00    -0.250 OA
ATOM     20  C   UNL     1      33.557 -21.509 -19.644  0.00  0.00    +0.314 C 
BRANCH  20  21
ATOM     21  O   UNL     1      32.553 -20.600 -19.546  0.00  0.00    -0.480 OA
ATOM     22  H   UNL     1      32.120 -20.469 -18.725  0.00  0.00    +0.295 HD
ENDBRANCH  20  21
ENDBRANCH  18  20
ENDBRANCH  17  18
ENDBRANCH  16  17
ENDBRANCH  15  16
ENDBRANCH  14  15
ENDBRANCH   1  14
TORSDOF 11
ENDMDL
MODEL 3
REMARK VINA RESULT:      -6.5      4.049      5.702
REMARK  Name = 444640
REMARK  11 active torsions:
REMARK  status: ('A' for Active; 'I' for Inactive)
REMARK    1  A    between atoms: C_1  and  N_3
REMARK    2  A    between atoms: C_1  and  C_8
REMARK    3  A    between atoms: C_1  and  C_14
REMARK    4  A    between atoms: C_4  and  O_6
REMARK    5  A    between atoms: C_8  and  N_10
REMARK    6  A    between atoms: C_14  and  C_15
REMARK    7  A    between atoms: C_15  and  C_16
REMARK    8  A    between atoms: C_16  and  C_17
REMARK    9  A    between atoms: C_17  and  C_18
REMARK   10  A    between atoms: C_18  and  C_20
REMARK   11  A    between atoms: C_20  and  O_21
REMARK                            x       y       z     vdW  Elec       q    Type
REMARK                         _______ _______ _______ _____ _____    ______ ____
ROOT
ATOM      1  C   UNL     1      36.420 -24.080 -14.925  0.00  0.00    +0.055 C 
ENDROOT
BRANCH   1   3
ATOM      2  O   UNL     1      36.260 -26.849 -15.845  0.00  0.00    -0.227 OA
ATOM      3  N   UNL     1      37.323 -25.171 -14.629  0.00  0.00    -0.274 N 
ATOM      4  C   UNL     1      37.158 -26.447 -15.115  0.00  0.00    +0.398 C 
ATOM      5  H   UNL     1      38.097 -24.990 -14.049  0.00  0.00    +0.153 HD
BRANCH   4   6
ATOM      6  O   UNL     1      38.155 -27.257 -14.673  0.00  0.00    -0.466 OA
ATOM      7  H   UNL     1      38.997 -27.233 -15.085  0.00  0.00    +0.297 HD
ENDBRANCH   4   6
ENDBRANCH   1   3
BRANCH   1   8
ATOM      8  C   UNL     1      35.280 -23.990 -13.883  0.00  0.00    -0.047 C 
ATOM      9  C   UNL     1      35.767 -24.326 -12.469  0.00  0.00    -0.022 C 
BRANCH   8  10
ATOM     10  N   UNL     1      34.193 -24.909 -14.232  0.00  0.00    +0.383 N 
ATOM     11  H   UNL     1      33.420 -24.383 -14.641  0.00  0.00    -0.089 HD
ATOM     12  H   UNL     1      33.870 -25.389 -13.392  0.00  0.00    -0.089 HD
ATOM     13  H   UNL     1      34.532 -25.595 -14.907  0.00  0.00    -0.089 HD
ENDBRANCH   8  10
ENDBRANCH   1   8
BRANCH   1  14
ATOM     14  C   UNL     1      37.212 -22.773 -15.143  0.00  0.00    +0.018 C 
BRANCH  14  15
ATOM     15  C   UNL     1      37.300 -22.217 -16.572  0.00  0.00    +0.002 C 
BRANCH  15  16
ATOM     16  C   UNL     1      35.967 -22.164 -17.318  0.00  0.00    +0.001 C 
BRANCH  16  17
ATOM     17  C   UNL     1      36.160 -21.673 -18.758  0.00  0.00    +0.012 C 
BRANCH  17  18
ATOM     18  C   UNL     1      34.831 -21.450 -19.482  0.00  0.00    +0.109 C 
BRANCH  18  20
ATOM     19  O   UNL     1      34.053 -23.760 -19.576  0.00  0.00    -0.250 OA
ATOM     20  C   UNL     1      33.857 -22.587 -19.294  0.00  0.00    +0.314 C 
BRANCH  20  21
ATOM     21  O   UNL     1      32.710 -22.132 -18.727  0.00  0.00    -0.480 OA
ATOM     22  H   UNL     1      32.371 -22.547 -17.959  0.00  0.00    +0.295 HD
ENDBRANCH  20  21
ENDBRANCH  18  20
ENDBRANCH  17  18
ENDBRANCH  16  17
ENDBRANCH  15  16
ENDBRANCH  14  15
ENDBRANCH   1  14
TORSDOF 11
ENDMDL
MODEL 4
REMARK VINA RESULT:      -6.5      6.963      7.809
REMARK  Name = 444640
REMARK  11 active torsions:
REMARK  status: ('A' for Active; 'I' for Inactive)
REMARK    1  A    between atoms: C_1  and  N_3
REMARK    2  A    between atoms: C_1  and  C_8
REMARK    3  A    between atoms: C_1  and  C_14
REMARK    4  A    between atoms: C_4  and  O_6
REMARK    5  A    between atoms: C_8  and  N_10
REMARK    6  A    between atoms: C_14  and  C_15
REMARK    7  A    between atoms: C_15  and  C_16
REMARK    8  A    between atoms: C_16  and  C_17
REMARK    9  A    between atoms: C_17  and  C_18
REMARK   10  A    between atoms: C_18  and  C_20
REMARK   11  A    between atoms: C_20  and  O_21
REMARK                            x       y       z     vdW  Elec       q    Type
REMARK                         _______ _______ _______ _____ _____    ______ ____
ROOT
ATOM      1  C   UNL     1      30.179 -23.375 -15.137  0.00  0.00    +0.055 C 
ENDROOT
BRANCH   1   3
ATOM      2  O   UNL     1      28.085 -21.799 -16.429  0.00  0.00    -0.227 OA
ATOM      3  N   UNL     1      29.372 -23.734 -16.283  0.00  0.00    -0.274 N 
ATOM      4  C   UNL     1      28.405 -22.915 -16.818  0.00  0.00    +0.398 C 
ATOM      5  H   UNL     1      29.522 -24.612 -16.702  0.00  0.00    +0.153 HD
BRANCH   4   6
ATOM      6  O   UNL     1      27.812 -23.514 -17.885  0.00  0.00    -0.466 OA
ATOM      7  H   UNL     1      27.369 -22.995 -18.528  0.00  0.00    +0.297 HD
ENDBRANCH   4   6
ENDBRANCH   1   3
BRANCH   1   8
ATOM      8  C   UNL     1      30.158 -24.485 -14.061  0.00  0.00    -0.047 C 
ATOM      9  C   UNL     1      31.544 -25.107 -13.851  0.00  0.00    -0.022 C 
BRANCH   8  10
ATOM     10  N   UNL     1      29.223 -25.550 -14.438  0.00  0.00    +0.383 N 
ATOM     11  H   UNL     1      29.719 -26.268 -14.966  0.00  0.00    -0.089 HD
ATOM     12  H   UNL     1      28.477 -25.159 -15.012  0.00  0.00    -0.089 HD
ATOM     13  H   UNL     1      28.822 -25.963 -13.595  0.00  0.00    -0.089 HD
ENDBRANCH   8  10
ENDBRANCH   1   8
BRANCH   1  14
ATOM     14  C   UNL     1      31.585 -22.928 -15.591  0.00  0.00    +0.018 C 
BRANCH  14  15
ATOM     15  C   UNL     1      31.968 -23.147 -17.062  0.00  0.00    +0.002 C 
BRANCH  15  16
ATOM     16  C   UNL     1      33.470 -23.120 -17.340  0.00  0.00    +0.001 C 
BRANCH  16  17
ATOM     17  C   UNL     1      33.751 -22.968 -18.840  0.00  0.00    +0.012 C 
BRANCH  17  18
ATOM     18  C   UNL     1      34.619 -21.748 -19.151  0.00  0.00    +0.109 C 
BRANCH  18  20
ATOM     19  O   UNL     1      34.417 -20.031 -20.871  0.00  0.00    -0.250 OA
ATOM     20  C   UNL     1      33.912 -20.717 -19.996  0.00  0.00    +0.314 C 
BRANCH  20  21
ATOM     21  O   UNL     1      32.594 -20.670 -19.669  0.00  0.00    -0.480 OA
ATOM     22  H   UNL     1      32.221 -21.341 -19.131  0.00  0.00    +0.295 HD
ENDBRANCH  20  21
ENDBRANCH  18  20
ENDBRANCH  17  18
ENDBRANCH  16  17
ENDBRANCH  15  16
ENDBRANCH  14  15
ENDBRANCH   1  14
TORSDOF 11
ENDMDL
MODEL 5
REMARK VINA RESULT:      -6.5     10.912     12.650
REMARK  Name = 444640
REMARK  11 active torsions:
REMARK  status: ('A' for Active; 'I' for Inactive)
REMARK    1  A    between atoms: C_1  and  N_3
REMARK    2  A    between atoms: C_1  and  C_8
REMARK    3  A    between atoms: C_1  and  C_14
REMARK    4  A    between atoms: C_4  and  O_6
REMARK    5  A    between atoms: C_8  and  N_10
REMARK    6  A    between atoms: C_14  and  C_15
REMARK    7  A    between atoms: C_15  and  C_16
REMARK    8  A    between atoms: C_16  and  C_17
REMARK    9  A    between atoms: C_17  and  C_18
REMARK   10  A    between atoms: C_18  and  C_20
REMARK   11  A    between atoms: C_20  and  O_21
REMARK                            x       y       z     vdW  Elec       q    Type
REMARK                         _______ _______ _______ _____ _____    ______ ____
ROOT
ATOM      1  C   UNL     1      35.219 -18.483 -21.500  0.00  0.00    +0.055 C 
ENDROOT
BRANCH   1   3
ATOM      2  O   UNL     1      34.975 -15.744 -20.512  0.00  0.00    -0.227 OA
ATOM      3  N   UNL     1      34.014 -17.701 -21.329  0.00  0.00    -0.274 N 
ATOM      4  C   UNL     1      34.006 -16.411 -20.853  0.00  0.00    +0.398 C 
ATOM      5  H   UNL     1      33.153 -18.115 -21.567  0.00  0.00    +0.153 HD
BRANCH   4   6
ATOM      6  O   UNL     1      32.735 -15.931 -20.801  0.00  0.00    -0.466 OA
ATOM      7  H   UNL     1      32.011 -16.525 -20.759  0.00  0.00    +0.297 HD
ENDBRANCH   4   6
ENDBRANCH   1   3
BRANCH   1   8
ATOM      8  C   UNL     1      35.030 -19.932 -20.995  0.00  0.00    -0.047 C 
ATOM      9  C   UNL     1      33.612 -20.174 -20.464  0.00  0.00    -0.022 C 
BRANCH   8  10
ATOM     10  N   UNL     1      35.985 -20.232 -19.924  0.00  0.00    +0.383 N 
ATOM     11  H   UNL     1      36.934 -20.220 -20.300  0.00  0.00    -0.089 HD
ATOM     12  H   UNL     1      35.784 -21.154 -19.538  0.00  0.00    -0.089 HD
ATOM     13  H   UNL     1      35.902 -19.530 -19.188  0.00  0.00    -0.089 HD
ENDBRANCH   8  10
ENDBRANCH   1   8
BRANCH   1  14
ATOM     14  C   UNL     1      35.740 -18.357 -22.947  0.00  0.00    +0.018 C 
BRANCH  14  15
ATOM     15  C   UNL     1      34.963 -19.082 -24.055  0.00  0.00    +0.002 C 
BRANCH  15  16
ATOM     16  C   UNL     1      34.221 -18.160 -25.022  0.00  0.00    +0.001 C 
BRANCH  16  17
ATOM     17  C   UNL     1      34.853 -16.764 -25.048  0.00  0.00    +0.012 C 
BRANCH  17  18
ATOM     18  C   UNL     1      33.810 -15.653 -25.183  0.00  0.00    +0.109 C 
BRANCH  18  20
ATOM     19  O   UNL     1      32.659 -14.366 -23.461  0.00  0.00    -0.250 OA
ATOM     20  C   UNL     1      33.695 -14.796 -23.947  0.00  0.00    +0.314 C 
BRANCH  20  21
ATOM     21  O   UNL     1      34.924 -14.581 -23.410  0.00  0.00    -0.480 OA
ATOM     22  H   UNL     1      35.042 -13.912 -22.765  0.00  0.00    +0.295 HD
ENDBRANCH  20  21
ENDBRANCH  18  20
ENDBRANCH  17  18
ENDBRANCH  16  17
ENDBRANCH  15  16
ENDBRANCH  14  15
ENDBRANCH   1  14
TORSDOF 11
ENDMDL
MODEL 6
REMARK VINA RESULT:      -6.5      4.741      6.330
REMARK  Name = 444640
REMARK  11 active torsions:
REMARK  status: ('A' for Active; 'I' for Inactive)
REMARK    1  A    between atoms: C_1  and  N_3
REMARK    2  A    between atoms: C_1  and  C_8
REMARK    3  A    between atoms: C_1  and  C_14
REMARK    4  A    between atoms: C_4  and  O_6
REMARK    5  A    between atoms: C_8  and  N_10
REMARK    6  A    between atoms: C_14  and  C_15
REMARK    7  A    between atoms: C_15  and  C_16
REMARK    8  A    between atoms: C_16  and  C_17
REMARK    9  A    between atoms: C_17  and  C_18
REMARK   10  A    between atoms: C_18  and  C_20
REMARK   11  A    between atoms: C_20  and  O_21
REMARK                            x       y       z     vdW  Elec       q    Type
REMARK                         _______ _______ _______ _____ _____    ______ ____
ROOT
ATOM      1  C   UNL     1      30.105 -23.377 -14.963  0.00  0.00    +0.055 C 
ENDROOT
BRANCH   1   3
ATOM      2  O   UNL     1      27.837 -21.896 -16.060  0.00  0.00    -0.227 OA
ATOM      3  N   UNL     1      29.310 -23.698 -16.127  0.00  0.00    -0.274 N 
ATOM      4  C   UNL     1      28.255 -22.930 -16.564  0.00  0.00    +0.398 C 
ATOM      5  H   UNL     1      29.535 -24.511 -16.636  0.00  0.00    +0.153 HD
BRANCH   4   6
ATOM      6  O   UNL     1      27.698 -23.476 -17.677  0.00  0.00    -0.466 OA
ATOM      7  H   UNL     1      26.769 -23.448 -17.799  0.00  0.00    +0.297 HD
ENDBRANCH   4   6
ENDBRANCH   1   3
BRANCH   1   8
ATOM      8  C   UNL     1      30.142 -24.554 -13.961  0.00  0.00    -0.047 C 
ATOM      9  C   UNL     1      31.575 -25.013 -13.667  0.00  0.00    -0.022 C 
BRANCH   8  10
ATOM     10  N   UNL     1      29.384 -25.696 -14.481  0.00  0.00    +0.383 N 
ATOM     11  H   UNL     1      29.908 -26.135 -15.239  0.00  0.00    -0.089 HD
ATOM     12  H   UNL     1      28.483 -25.375 -14.832  0.00  0.00    -0.089 HD
ATOM     13  H   UNL     1      29.237 -26.374 -13.733  0.00  0.00    -0.089 HD
ENDBRANCH   8  10
ENDBRANCH   1   8
BRANCH   1  14
ATOM     14  C   UNL     1      31.486 -22.836 -15.390  0.00  0.00    +0.018 C 
BRANCH  14  15
ATOM     15  C   UNL     1      31.968 -23.144 -16.815  0.00  0.00    +0.002 C 
BRANCH  15  16
ATOM     16  C   UNL     1      33.480 -23.321 -16.952  0.00  0.00    +0.001 C 
BRANCH  16  17
ATOM     17  C   UNL     1      34.175 -23.204 -15.591  0.00  0.00    +0.012 C 
BRANCH  17  18
ATOM     18  C   UNL     1      35.575 -23.821 -15.595  0.00  0.00    +0.109 C 
BRANCH  18  20
ATOM     19  O   UNL     1      35.915 -26.236 -15.615  0.00  0.00    -0.250 OA
ATOM     20  C   UNL     1      35.609 -25.215 -15.018  0.00  0.00    +0.314 C 
BRANCH  20  21
ATOM     21  O   UNL     1      35.274 -25.184 -13.702  0.00  0.00    -0.480 OA
ATOM     22  H   UNL     1      35.900 -24.895 -13.067  0.00  0.00    +0.295 HD
ENDBRANCH  20  21
ENDBRANCH  18  20
ENDBRANCH  17  18
ENDBRANCH  16  17
ENDBRANCH  15  16
ENDBRANCH  14  15
ENDBRANCH   1  14
TORSDOF 11
ENDMDL
MODEL 7
REMARK VINA RESULT:      -6.5      2.541      5.272
REMARK  Name = 444640
REMARK  11 active torsions:
REMARK  status: ('A' for Active; 'I' for Inactive)
REMARK    1  A    between atoms: C_1  and  N_3
REMARK    2  A    between atoms: C_1  and  C_8
REMARK    3  A    between atoms: C_1  and  C_14
REMARK    4  A    between atoms: C_4  and  O_6
REMARK    5  A    between atoms: C_8  and  N_10
REMARK    6  A    between atoms: C_14  and  C_15
REMARK    7  A    between atoms: C_15  and  C_16
REMARK    8  A    between atoms: C_16  and  C_17
REMARK    9  A    between atoms: C_17  and  C_18
REMARK   10  A    between atoms: C_18  and  C_20
REMARK   11  A    between atoms: C_20  and  O_21
REMARK                            x       y       z     vdW  Elec       q    Type
REMARK                         _______ _______ _______ _____ _____    ______ ____
ROOT
ATOM      1  C   UNL     1      37.236 -24.269 -14.126  0.00  0.00    +0.055 C 
ENDROOT
BRANCH   1   3
ATOM      2  O   UNL     1      37.473 -24.611 -11.233  0.00  0.00    -0.227 OA
ATOM      3  N   UNL     1      36.189 -24.572 -13.175  0.00  0.00    -0.274 N 
ATOM      4  C   UNL     1      36.405 -24.714 -11.824  0.00  0.00    +0.398 C 
ATOM      5  H   UNL     1      35.270 -24.683 -13.513  0.00  0.00    +0.153 HD
BRANCH   4   6
ATOM      6  O   UNL     1      35.241 -24.996 -11.182  0.00  0.00    -0.466 OA
ATOM      7  H   UNL     1      34.780 -24.318 -10.726  0.00  0.00    +0.297 HD
ENDBRANCH   4   6
ENDBRANCH   1   3
BRANCH   1   8
ATOM      8  C   UNL     1      37.851 -25.557 -14.719  0.00  0.00    -0.047 C 
ATOM      9  C   UNL     1      36.781 -26.601 -15.058  0.00  0.00    -0.022 C 
BRANCH   8  10
ATOM     10  N   UNL     1      38.802 -26.154 -13.776  0.00  0.00    +0.383 N 
ATOM     11  H   UNL     1      39.565 -25.500 -13.602  0.00  0.00    -0.089 HD
ATOM     12  H   UNL     1      39.175 -27.017 -14.170  0.00  0.00    -0.089 HD
ATOM     13  H   UNL     1      38.324 -26.360 -12.898  0.00  0.00    -0.089 HD
ENDBRANCH   8  10
ENDBRANCH   1   8
BRANCH   1  14
ATOM     14  C   UNL     1      36.736 -23.243 -15.165  0.00  0.00    +0.018 C 
BRANCH  14  15
ATOM     15  C   UNL     1      35.244 -22.880 -15.155  0.00  0.00    +0.002 C 
BRANCH  15  16
ATOM     16  C   UNL     1      34.371 -23.746 -16.063  0.00  0.00    +0.001 C 
BRANCH  16  17
ATOM     17  C   UNL     1      32.899 -23.327 -15.975  0.00  0.00    +0.012 C 
BRANCH  17  18
ATOM     18  C   UNL     1      32.384 -23.297 -14.535  0.00  0.00    +0.109 C 
BRANCH  18  20
ATOM     19  O   UNL     1      31.285 -25.453 -14.239  0.00  0.00    -0.250 OA
ATOM     20  C   UNL     1      32.179 -24.673 -13.950  0.00  0.00    +0.314 C 
BRANCH  20  21
ATOM     21  O   UNL     1      33.163 -24.952 -13.057  0.00  0.00    -0.480 OA
ATOM     22  H   UNL     1      32.992 -24.888 -12.138  0.00  0.00    +0.295 HD
ENDBRANCH  20  21
ENDBRANCH  18  20
ENDBRANCH  17  18
ENDBRANCH  16  17
ENDBRANCH  15  16
ENDBRANCH  14  15
ENDBRANCH   1  14
TORSDOF 11
ENDMDL
MODEL 8
REMARK VINA RESULT:      -6.5      4.302      7.070
REMARK  Name = 444640
REMARK  11 active torsions:
REMARK  status: ('A' for Active; 'I' for Inactive)
REMARK    1  A    between atoms: C_1  and  N_3
REMARK    2  A    between atoms: C_1  and  C_8
REMARK    3  A    between atoms: C_1  and  C_14
REMARK    4  A    between atoms: C_4  and  O_6
REMARK    5  A    between atoms: C_8  and  N_10
REMARK    6  A    between atoms: C_14  and  C_15
REMARK    7  A    between atoms: C_15  and  C_16
REMARK    8  A    between atoms: C_16  and  C_17
REMARK    9  A    between atoms: C_17  and  C_18
REMARK   10  A    between atoms: C_18  and  C_20
REMARK   11  A    between atoms: C_20  and  O_21
REMARK                            x       y       z     vdW  Elec       q    Type
REMARK                         _______ _______ _______ _____ _____    ______ ____
ROOT
ATOM      1  C   UNL     1      35.208 -24.234 -13.419  0.00  0.00    +0.055 C 
ENDROOT
BRANCH   1   3
ATOM      2  O   UNL     1      37.043 -22.951 -11.541  0.00  0.00    -0.227 OA
ATOM      3  N   UNL     1      35.313 -24.443 -11.992  0.00  0.00    -0.274 N 
ATOM      4  C   UNL     1      36.217 -23.784 -11.191  0.00  0.00    +0.398 C 
ATOM      5  H   UNL     1      34.704 -25.092 -11.570  0.00  0.00    +0.153 HD
BRANCH   4   6
ATOM      6  O   UNL     1      36.085 -24.181  -9.898  0.00  0.00    -0.466 OA
ATOM      7  H   UNL     1      35.265 -24.517  -9.591  0.00  0.00    +0.297 HD
ENDBRANCH   4   6
ENDBRANCH   1   3
BRANCH   1   8
ATOM      8  C   UNL     1      36.241 -25.086 -14.193  0.00  0.00    -0.047 C 
ATOM      9  C   UNL     1      37.095 -24.234 -15.138  0.00  0.00    -0.022 C 
BRANCH   8  10
ATOM     10  N   UNL     1      35.565 -26.121 -14.981  0.00  0.00    +0.383 N 
ATOM     11  H   UNL     1      34.555 -26.036 -14.861  0.00  0.00    -0.089 HD
ATOM     12  H   UNL     1      35.869 -27.041 -14.666  0.00  0.00    -0.089 HD
ATOM     13  H   UNL     1      35.801 -26.004 -15.967  0.00  0.00    -0.089 HD
ENDBRANCH   8  10
ENDBRANCH   1   8
BRANCH   1  14
ATOM     14  C   UNL     1      33.745 -24.400 -13.879  0.00  0.00    +0.018 C 
BRANCH  14  15
ATOM     15  C   UNL     1      33.176 -23.358 -14.853  0.00  0.00    +0.002 C 
BRANCH  15  16
ATOM     16  C   UNL     1      31.707 -23.005 -14.623  0.00  0.00    +0.001 C 
BRANCH  16  17
ATOM     17  C   UNL     1      30.905 -23.099 -15.927  0.00  0.00    +0.012 C 
BRANCH  17  18
ATOM     18  C   UNL     1      29.508 -23.684 -15.712  0.00  0.00    +0.109 C 
BRANCH  18  20
ATOM     19  O   UNL     1      27.842 -24.124 -17.438  0.00  0.00    -0.250 OA
ATOM     20  C   UNL     1      28.545 -23.338 -16.821  0.00  0.00    +0.314 C 
BRANCH  20  21
ATOM     21  O   UNL     1      28.537 -21.996 -17.031  0.00  0.00    -0.480 OA
ATOM     22  H   UNL     1      29.014 -21.633 -17.752  0.00  0.00    +0.295 HD
ENDBRANCH  20  21
ENDBRANCH  18  20
ENDBRANCH  17  18
ENDBRANCH  16  17
ENDBRANCH  15  16
ENDBRANCH  14  15
ENDBRANCH   1  14
TORSDOF 11
ENDMDL
MODEL 9
REMARK VINA RESULT:      -6.5      9.357     10.955
REMARK  Name = 444640
REMARK  11 active torsions:
REMARK  status: ('A' for Active; 'I' for Inactive)
REMARK    1  A    between atoms: C_1  and  N_3
REMARK    2  A    between atoms: C_1  and  C_8
REMARK    3  A    between atoms: C_1  and  C_14
REMARK    4  A    between atoms: C_4  and  O_6
REMARK    5  A    between atoms: C_8  and  N_10
REMARK    6  A    between atoms: C_14  and  C_15
REMARK    7  A    between atoms: C_15  and  C_16
REMARK    8  A    between atoms: C_16  and  C_17
REMARK    9  A    between atoms: C_17  and  C_18
REMARK   10  A    between atoms: C_18  and  C_20
REMARK   11  A    between atoms: C_20  and  O_21
REMARK                            x       y       z     vdW  Elec       q    Type
REMARK                         _______ _______ _______ _____ _____    ______ ____
ROOT
ATOM      1  C   UNL     1      34.627 -17.477 -22.840  0.00  0.00    +0.055 C 
ENDROOT
BRANCH   1   3
ATOM      2  O   UNL     1      33.041 -16.065 -20.833  0.00  0.00    -0.227 OA
ATOM      3  N   UNL     1      35.069 -16.466 -21.905  0.00  0.00    -0.274 N 
ATOM      4  C   UNL     1      34.237 -15.858 -20.993  0.00  0.00    +0.398 C 
ATOM      5  H   UNL     1      36.016 -16.198 -21.921  0.00  0.00    +0.153 HD
BRANCH   4   6
ATOM      6  O   UNL     1      34.927 -14.952 -20.250  0.00  0.00    -0.466 OA
ATOM      7  H   UNL     1      34.777 -14.035 -20.370  0.00  0.00    +0.297 HD
ENDBRANCH   4   6
ENDBRANCH   1   3
BRANCH   1   8
ATOM      8  C   UNL     1      34.816 -17.016 -24.303  0.00  0.00    -0.047 C 
ATOM      9  C   UNL     1      33.940 -15.805 -24.641  0.00  0.00    -0.022 C 
BRANCH   8  10
ATOM     10  N   UNL     1      34.487 -18.103 -25.231  0.00  0.00    +0.383 N 
ATOM     11  H   UNL     1      35.311 -18.339 -25.785  0.00  0.00    -0.089 HD
ATOM     12  H   UNL     1      33.735 -17.804 -25.851  0.00  0.00    -0.089 HD
ATOM     13  H   UNL     1      34.187 -18.921 -24.701  0.00  0.00    -0.089 HD
ENDBRANCH   8  10
ENDBRANCH   1   8
BRANCH   1  14
ATOM     14  C   UNL     1      35.264 -18.841 -22.495  0.00  0.00    +0.018 C 
BRANCH  14  15
ATOM     15  C   UNL     1      34.846 -19.516 -21.180  0.00  0.00    +0.002 C 
BRANCH  15  16
ATOM     16  C   UNL     1      33.341 -19.738 -21.028  0.00  0.00    +0.001 C 
BRANCH  16  17
ATOM     17  C   UNL     1      33.041 -20.719 -19.889  0.00  0.00    +0.012 C 
BRANCH  17  18
ATOM     18  C   UNL     1      34.283 -21.490 -19.440  0.00  0.00    +0.109 C 
BRANCH  18  20
ATOM     19  O   UNL     1      33.698 -22.917 -17.550  0.00  0.00    -0.250 OA
ATOM     20  C   UNL     1      33.955 -22.785 -18.738  0.00  0.00    +0.314 C 
BRANCH  20  21
ATOM     21  O   UNL     1      33.952 -23.811 -19.627  0.00  0.00    -0.480 OA
ATOM     22  H   UNL     1      33.326 -24.503 -19.540  0.00  0.00    +0.295 HD
ENDBRANCH  20  21
ENDBRANCH  18  20
ENDBRANCH  17  18
ENDBRANCH  16  17
ENDBRANCH  15  16
ENDBRANCH  14  15
ENDBRANCH   1  14
TORSDOF 11
ENDMDL
