MODEL 1
REMARK VINA RESULT:      -8.5      0.000      0.000
REMARK  Name = 6016
REMARK  3 active torsions:
REMARK  status: ('A' for Active; 'I' for Inactive)
REMARK    1  A    between atoms: N_2  and  C_15
REMARK    2  A    between atoms: C_15  and  C_16
REMARK    3  A    between atoms: C_16  and  N_18
REMARK                            x       y       z     vdW  Elec       q    Type
REMARK                         _______ _______ _______ _____ _____    ______ ____
ROOT
ATOM      1  S   UNL     1      33.085 -23.282 -17.713  0.00  0.00    -0.084 S 
ATOM      2  N   UNL     1      34.565 -23.186 -14.981  0.00  0.00    -0.288 N 
ATOM      3  C   UNL     1      35.276 -22.650 -16.085  0.00  0.00    +0.058 C 
ATOM      4  C   UNL     1      33.157 -23.334 -14.912  0.00  0.00    +0.058 C 
ATOM      5  C   UNL     1      34.701 -22.615 -17.371  0.00  0.00    +0.043 C 
ATOM      6  C   UNL     1      32.372 -23.367 -16.083  0.00  0.00    +0.043 C 
ATOM      7  C   UNL     1      36.567 -22.096 -15.945  0.00  0.00    +0.015 C 
ATOM      8  C   UNL     1      32.473 -23.418 -13.680  0.00  0.00    +0.015 C 
ATOM      9  C   UNL     1      35.407 -22.076 -18.460  0.00  0.00    +0.008 C 
ATOM     10  C   UNL     1      30.974 -23.506 -16.009  0.00  0.00    +0.008 C 
ATOM     11  C   UNL     1      37.263 -21.557 -17.030  0.00  0.00    +0.001 C 
ATOM     12  C   UNL     1      31.083 -23.552 -13.612  0.00  0.00    +0.001 C 
ATOM     13  C   UNL     1      36.684 -21.549 -18.290  0.00  0.00    +0.001 C 
ATOM     14  C   UNL     1      30.334 -23.598 -14.777  0.00  0.00    +0.001 C 
ENDROOT
BRANCH   2  15
ATOM     15  C   UNL     1      35.342 -23.553 -13.790  0.00  0.00    +0.075 C 
BRANCH  15  16
ATOM     16  C   UNL     1      35.840 -24.997 -13.856  0.00  0.00    -0.034 C 
ATOM     17  C   UNL     1      35.749 -25.620 -15.241  0.00  0.00    -0.021 C 
BRANCH  16  18
ATOM     18  N   UNL     1      37.260 -25.045 -13.405  0.00  0.00    +0.388 N 
ATOM     19  C   UNL     1      38.204 -25.167 -14.607  0.00  0.00    -0.096 C 
ATOM     20  C   UNL     1      37.624 -23.770 -12.635  0.00  0.00    -0.096 C 
ATOM     21  C   UNL     1      37.494 -26.248 -12.484  0.00  0.00    -0.096 C 
ENDBRANCH  16  18
ENDBRANCH  15  16
ENDBRANCH   2  15
TORSDOF 3
ENDMDL
MODEL 2
REMARK VINA RESULT:      -7.9     14.589     17.490
REMARK  Name = 6016
REMARK  3 active torsions:
REMARK  status: ('A' for Active; 'I' for Inactive)
REMARK    1  A    between atoms: N_2  and  C_15
REMARK    2  A    between atoms: C_15  and  C_16
REMARK    3  A    between atoms: C_16  and  N_18
REMARK                            x       y       z     vdW  Elec       q    Type
REMARK                         _______ _______ _______ _____ _____    ______ ____
ROOT
ATOM      1  S   UNL     1      32.002 -11.808 -22.993  0.00  0.00    -0.084 S 
ATOM      2  N   UNL     1      33.102  -8.952 -22.448  0.00  0.00    -0.288 N 
ATOM      3  C   UNL     1      32.413  -9.563 -21.368  0.00  0.00    +0.058 C 
ATOM      4  C   UNL     1      33.702  -9.646 -23.528  0.00  0.00    +0.058 C 
ATOM      5  C   UNL     1      31.890 -10.865 -21.486  0.00  0.00    +0.043 C 
ATOM      6  C   UNL     1      33.306 -10.958 -23.859  0.00  0.00    +0.043 C 
ATOM      7  C   UNL     1      32.253  -8.917 -20.123  0.00  0.00    +0.015 C 
ATOM      8  C   UNL     1      34.742  -9.078 -24.297  0.00  0.00    +0.015 C 
ATOM      9  C   UNL     1      31.214 -11.469 -20.411  0.00  0.00    +0.008 C 
ATOM     10  C   UNL     1      33.910 -11.644 -24.928  0.00  0.00    +0.008 C 
ATOM     11  C   UNL     1      31.585  -9.523 -19.056  0.00  0.00    +0.001 C 
ATOM     12  C   UNL     1      35.342  -9.767 -25.355  0.00  0.00    +0.001 C 
ATOM     13  C   UNL     1      31.062 -10.799 -19.200  0.00  0.00    +0.001 C 
ATOM     14  C   UNL     1      34.924 -11.050 -25.672  0.00  0.00    +0.001 C 
ENDROOT
BRANCH   2  15
ATOM     15  C   UNL     1      33.265  -7.494 -22.407  0.00  0.00    +0.075 C 
BRANCH  15  16
ATOM     16  C   UNL     1      31.921  -6.767 -22.440  0.00  0.00    -0.034 C 
ATOM     17  C   UNL     1      31.817  -5.616 -21.450  0.00  0.00    -0.021 C 
BRANCH  16  18
ATOM     18  N   UNL     1      31.686  -6.237 -23.813  0.00  0.00    +0.388 N 
ATOM     19  C   UNL     1      33.012  -6.073 -24.563  0.00  0.00    -0.096 C 
ATOM     20  C   UNL     1      30.795  -7.193 -24.614  0.00  0.00    -0.096 C 
ATOM     21  C   UNL     1      30.994  -4.870 -23.752  0.00  0.00    -0.096 C 
ENDBRANCH  16  18
ENDBRANCH  15  16
ENDBRANCH   2  15
TORSDOF 3
ENDMDL
MODEL 3
REMARK VINA RESULT:      -7.8     10.795     13.462
REMARK  Name = 6016
REMARK  3 active torsions:
REMARK  status: ('A' for Active; 'I' for Inactive)
REMARK    1  A    between atoms: N_2  and  C_15
REMARK    2  A    between atoms: C_15  and  C_16
REMARK    3  A    between atoms: C_16  and  N_18
REMARK                            x       y       z     vdW  Elec       q    Type
REMARK                         _______ _______ _______ _____ _____    ______ ____
ROOT
ATOM      1  S   UNL     1      33.631 -10.674 -24.287  0.00  0.00    -0.084 S 
ATOM      2  N   UNL     1      32.749 -13.405 -23.090  0.00  0.00    -0.288 N 
ATOM      3  C   UNL     1      32.380 -12.257 -22.343  0.00  0.00    +0.058 C 
ATOM      4  C   UNL     1      33.058 -13.412 -24.473  0.00  0.00    +0.058 C 
ATOM      5  C   UNL     1      32.701 -10.962 -22.795  0.00  0.00    +0.043 C 
ATOM      6  C   UNL     1      33.448 -12.230 -25.136  0.00  0.00    +0.043 C 
ATOM      7  C   UNL     1      31.646 -12.353 -21.140  0.00  0.00    +0.015 C 
ATOM      8  C   UNL     1      32.959 -14.582 -25.257  0.00  0.00    +0.015 C 
ATOM      9  C   UNL     1      32.327  -9.828 -22.054  0.00  0.00    +0.008 C 
ATOM     10  C   UNL     1      33.747 -12.240 -26.511  0.00  0.00    +0.008 C 
ATOM     11  C   UNL     1      31.272 -11.221 -20.410  0.00  0.00    +0.001 C 
ATOM     12  C   UNL     1      33.253 -14.586 -26.623  0.00  0.00    +0.001 C 
ATOM     13  C   UNL     1      31.615  -9.958 -20.865  0.00  0.00    +0.001 C 
ATOM     14  C   UNL     1      33.649 -13.415 -27.250  0.00  0.00    +0.001 C 
ENDROOT
BRANCH   2  15
ATOM     15  C   UNL     1      32.743 -14.696 -22.393  0.00  0.00    +0.075 C 
BRANCH  15  16
ATOM     16  C   UNL     1      34.146 -15.119 -21.960  0.00  0.00    -0.034 C 
ATOM     17  C   UNL     1      34.568 -14.567 -20.606  0.00  0.00    -0.021 C 
BRANCH  16  18
ATOM     18  N   UNL     1      34.215 -16.607 -21.909  0.00  0.00    +0.388 N 
ATOM     19  C   UNL     1      35.345 -17.064 -20.979  0.00  0.00    -0.096 C 
ATOM     20  C   UNL     1      32.896 -17.189 -21.385  0.00  0.00    -0.096 C 
ATOM     21  C   UNL     1      34.475 -17.184 -23.305  0.00  0.00    -0.096 C 
ENDBRANCH  16  18
ENDBRANCH  15  16
ENDBRANCH   2  15
TORSDOF 3
ENDMDL
MODEL 4
REMARK VINA RESULT:      -7.1      1.766      4.754
REMARK  Name = 6016
REMARK  3 active torsions:
REMARK  status: ('A' for Active; 'I' for Inactive)
REMARK    1  A    between atoms: N_2  and  C_15
REMARK    2  A    between atoms: C_15  and  C_16
REMARK    3  A    between atoms: C_16  and  N_18
REMARK                            x       y       z     vdW  Elec       q    Type
REMARK                         _______ _______ _______ _____ _____    ______ ____
ROOT
ATOM      1  S   UNL     1      37.122 -21.861 -16.405  0.00  0.00    -0.084 S 
ATOM      2  N   UNL     1      34.567 -23.632 -16.434  0.00  0.00    -0.288 N 
ATOM      3  C   UNL     1      34.774 -22.831 -17.587  0.00  0.00    +0.058 C 
ATOM      4  C   UNL     1      35.579 -24.029 -15.525  0.00  0.00    +0.058 C 
ATOM      5  C   UNL     1      35.908 -22.004 -17.702  0.00  0.00    +0.043 C 
ATOM      6  C   UNL     1      36.794 -23.320 -15.436  0.00  0.00    +0.043 C 
ATOM      7  C   UNL     1      33.881 -22.851 -18.680  0.00  0.00    +0.015 C 
ATOM      8  C   UNL     1      35.438 -25.164 -14.697  0.00  0.00    +0.015 C 
ATOM      9  C   UNL     1      36.112 -21.218 -18.849  0.00  0.00    +0.008 C 
ATOM     10  C   UNL     1      37.798 -23.723 -14.538  0.00  0.00    +0.008 C 
ATOM     11  C   UNL     1      34.091 -22.071 -19.821  0.00  0.00    +0.001 C 
ATOM     12  C   UNL     1      36.441 -25.563 -13.809  0.00  0.00    +0.001 C 
ATOM     13  C   UNL     1      35.206 -21.252 -19.904  0.00  0.00    +0.001 C 
ATOM     14  C   UNL     1      37.621 -24.840 -13.728  0.00  0.00    +0.001 C 
ENDROOT
BRANCH   2  15
ATOM     15  C   UNL     1      33.211 -24.145 -16.203  0.00  0.00    +0.075 C 
BRANCH  15  16
ATOM     16  C   UNL     1      32.281 -23.072 -15.639  0.00  0.00    -0.034 C 
ATOM     17  C   UNL     1      31.145 -22.684 -16.575  0.00  0.00    -0.021 C 
BRANCH  16  18
ATOM     18  N   UNL     1      31.695 -23.556 -14.357  0.00  0.00    +0.388 N 
ATOM     19  C   UNL     1      32.413 -22.920 -13.161  0.00  0.00    -0.096 C 
ATOM     20  C   UNL     1      30.208 -23.194 -14.274  0.00  0.00    -0.096 C 
ATOM     21  C   UNL     1      31.827 -25.079 -14.245  0.00  0.00    -0.096 C 
ENDBRANCH  16  18
ENDBRANCH  15  16
ENDBRANCH   2  15
TORSDOF 3
ENDMDL
MODEL 5
REMARK VINA RESULT:      -7.1     12.576     15.153
REMARK  Name = 6016
REMARK  3 active torsions:
REMARK  status: ('A' for Active; 'I' for Inactive)
REMARK    1  A    between atoms: N_2  and  C_15
REMARK    2  A    between atoms: C_15  and  C_16
REMARK    3  A    between atoms: C_16  and  N_18
REMARK                            x       y       z     vdW  Elec       q    Type
REMARK                         _______ _______ _______ _____ _____    ______ ____
ROOT
ATOM      1  S   UNL     1      33.441 -14.316 -21.858  0.00  0.00    -0.084 S 
ATOM      2  N   UNL     1      32.797 -11.810 -23.581  0.00  0.00    -0.288 N 
ATOM      3  C   UNL     1      33.086 -12.995 -24.304  0.00  0.00    +0.058 C 
ATOM      4  C   UNL     1      32.349 -11.763 -22.237  0.00  0.00    +0.058 C 
ATOM      5  C   UNL     1      33.370 -14.202 -23.635  0.00  0.00    +0.043 C 
ATOM      6  C   UNL     1      32.560 -12.849 -21.363  0.00  0.00    +0.043 C 
ATOM      7  C   UNL     1      33.067 -13.033 -25.715  0.00  0.00    +0.015 C 
ATOM      8  C   UNL     1      31.644 -10.654 -21.721  0.00  0.00    +0.015 C 
ATOM      9  C   UNL     1      33.649 -15.376 -24.356  0.00  0.00    +0.008 C 
ATOM     10  C   UNL     1      32.107 -12.801 -20.033  0.00  0.00    +0.008 C 
ATOM     11  C   UNL     1      33.341 -14.205 -26.427  0.00  0.00    +0.001 C 
ATOM     12  C   UNL     1      31.191 -10.613 -20.399  0.00  0.00    +0.001 C 
ATOM     13  C   UNL     1      33.635 -15.376 -25.747  0.00  0.00    +0.001 C 
ATOM     14  C   UNL     1      31.425 -11.686 -19.554  0.00  0.00    +0.001 C 
ENDROOT
BRANCH   2  15
ATOM     15  C   UNL     1      32.904 -10.535 -24.302  0.00  0.00    +0.075 C 
BRANCH  15  16
ATOM     16  C   UNL     1      34.096  -9.706 -23.825  0.00  0.00    -0.034 C 
ATOM     17  C   UNL     1      35.277  -9.713 -24.785  0.00  0.00    -0.021 C 
BRANCH  16  18
ATOM     18  N   UNL     1      33.660  -8.297 -23.618  0.00  0.00    +0.388 N 
ATOM     19  C   UNL     1      34.513  -7.339 -24.457  0.00  0.00    -0.096 C 
ATOM     20  C   UNL     1      32.193  -8.121 -24.029  0.00  0.00    -0.096 C 
ATOM     21  C   UNL     1      33.798  -7.899 -22.144  0.00  0.00    -0.096 C 
ENDBRANCH  16  18
ENDBRANCH  15  16
ENDBRANCH   2  15
TORSDOF 3
ENDMDL
MODEL 6
REMARK VINA RESULT:      -7.0      1.956      5.333
REMARK  Name = 6016
REMARK  3 active torsions:
REMARK  status: ('A' for Active; 'I' for Inactive)
REMARK    1  A    between atoms: N_2  and  C_15
REMARK    2  A    between atoms: C_15  and  C_16
REMARK    3  A    between atoms: C_16  and  N_18
REMARK                            x       y       z     vdW  Elec       q    Type
REMARK                         _______ _______ _______ _____ _____    ______ ____
ROOT
ATOM      1  S   UNL     1      37.397 -22.755 -16.066  0.00  0.00    -0.084 S 
ATOM      2  N   UNL     1      34.378 -23.467 -15.862  0.00  0.00    -0.288 N 
ATOM      3  C   UNL     1      35.093 -23.461 -14.637  0.00  0.00    +0.058 C 
ATOM      4  C   UNL     1      34.768 -22.778 -17.037  0.00  0.00    +0.058 C 
ATOM      5  C   UNL     1      36.462 -23.130 -14.597  0.00  0.00    +0.043 C 
ATOM      6  C   UNL     1      36.106 -22.379 -17.234  0.00  0.00    +0.043 C 
ATOM      7  C   UNL     1      34.466 -23.746 -13.404  0.00  0.00    +0.015 C 
ATOM      8  C   UNL     1      33.841 -22.427 -18.042  0.00  0.00    +0.015 C 
ATOM      9  C   UNL     1      37.164 -23.118 -13.379  0.00  0.00    +0.008 C 
ATOM     10  C   UNL     1      36.487 -21.688 -18.399  0.00  0.00    +0.008 C 
ATOM     11  C   UNL     1      35.168 -23.728 -12.196  0.00  0.00    +0.001 C 
ATOM     12  C   UNL     1      34.224 -21.736 -19.195  0.00  0.00    +0.001 C 
ATOM     13  C   UNL     1      36.519 -23.416 -12.183  0.00  0.00    +0.001 C 
ATOM     14  C   UNL     1      35.549 -21.369 -19.375  0.00  0.00    +0.001 C 
ENDROOT
BRANCH   2  15
ATOM     15  C   UNL     1      33.100 -24.188 -15.894  0.00  0.00    +0.075 C 
BRANCH  15  16
ATOM     16  C   UNL     1      31.931 -23.300 -15.468  0.00  0.00    -0.034 C 
ATOM     17  C   UNL     1      31.047 -22.847 -16.620  0.00  0.00    -0.021 C 
BRANCH  16  18
ATOM     18  N   UNL     1      31.089 -24.038 -14.484  0.00  0.00    +0.388 N 
ATOM     19  C   UNL     1      31.787 -25.327 -14.036  0.00  0.00    -0.096 C 
ATOM     20  C   UNL     1      30.829 -23.175 -13.244  0.00  0.00    -0.096 C 
ATOM     21  C   UNL     1      29.738 -24.411 -15.104  0.00  0.00    -0.096 C 
ENDBRANCH  16  18
ENDBRANCH  15  16
ENDBRANCH   2  15
TORSDOF 3
ENDMDL
MODEL 7
REMARK VINA RESULT:      -7.0     13.694     16.553
REMARK  Name = 6016
REMARK  3 active torsions:
REMARK  status: ('A' for Active; 'I' for Inactive)
REMARK    1  A    between atoms: N_2  and  C_15
REMARK    2  A    between atoms: C_15  and  C_16
REMARK    3  A    between atoms: C_16  and  N_18
REMARK                            x       y       z     vdW  Elec       q    Type
REMARK                         _______ _______ _______ _____ _____    ______ ____
ROOT
ATOM      1  S   UNL     1      31.987 -13.120 -21.617  0.00  0.00    -0.084 S 
ATOM      2  N   UNL     1      32.332 -10.334 -22.954  0.00  0.00    -0.288 N 
ATOM      3  C   UNL     1      32.056 -10.319 -21.563  0.00  0.00    +0.058 C 
ATOM      4  C   UNL     1      32.887 -11.428 -23.663  0.00  0.00    +0.058 C 
ATOM      5  C   UNL     1      31.903 -11.519 -20.840  0.00  0.00    +0.043 C 
ATOM      6  C   UNL     1      32.816 -12.739 -23.148  0.00  0.00    +0.043 C 
ATOM      7  C   UNL     1      31.959  -9.114 -20.833  0.00  0.00    +0.015 C 
ATOM      8  C   UNL     1      33.564 -11.259 -24.890  0.00  0.00    +0.015 C 
ATOM      9  C   UNL     1      31.637 -11.498 -19.460  0.00  0.00    +0.008 C 
ATOM     10  C   UNL     1      33.375 -13.821 -23.852  0.00  0.00    +0.008 C 
ATOM     11  C   UNL     1      31.699  -9.100 -19.460  0.00  0.00    +0.001 C 
ATOM     12  C   UNL     1      34.122 -12.337 -25.584  0.00  0.00    +0.001 C 
ATOM     13  C   UNL     1      31.535 -10.292 -18.773  0.00  0.00    +0.001 C 
ATOM     14  C   UNL     1      34.025 -13.619 -25.065  0.00  0.00    +0.001 C 
ENDROOT
BRANCH   2  15
ATOM     15  C   UNL     1      32.088  -9.096 -23.705  0.00  0.00    +0.075 C 
BRANCH  15  16
ATOM     16  C   UNL     1      32.914  -7.928 -23.166  0.00  0.00    -0.034 C 
ATOM     17  C   UNL     1      34.354  -7.911 -23.659  0.00  0.00    -0.021 C 
BRANCH  16  18
ATOM     18  N   UNL     1      32.262  -6.647 -23.557  0.00  0.00    +0.388 N 
ATOM     19  C   UNL     1      33.068  -5.943 -24.655  0.00  0.00    -0.096 C 
ATOM     20  C   UNL     1      30.847  -6.903 -24.090  0.00  0.00    -0.096 C 
ATOM     21  C   UNL     1      32.160  -5.703 -22.353  0.00  0.00    -0.096 C 
ENDBRANCH  16  18
ENDBRANCH  15  16
ENDBRANCH   2  15
TORSDOF 3
ENDMDL
MODEL 8
REMARK VINA RESULT:      -6.2     14.647     17.129
REMARK  Name = 6016
REMARK  3 active torsions:
REMARK  status: ('A' for Active; 'I' for Inactive)
REMARK    1  A    between atoms: N_2  and  C_15
REMARK    2  A    between atoms: C_15  and  C_16
REMARK    3  A    between atoms: C_16  and  N_18
REMARK                            x       y       z     vdW  Elec       q    Type
REMARK                         _______ _______ _______ _____ _____    ______ ____
ROOT
ATOM      1  S   UNL     1      34.539  -7.095 -24.312  0.00  0.00    -0.084 S 
ATOM      2  N   UNL     1      32.274  -8.871 -23.139  0.00  0.00    -0.288 N 
ATOM      3  C   UNL     1      31.994  -7.482 -23.206  0.00  0.00    +0.058 C 
ATOM      4  C   UNL     1      33.239  -9.547 -23.925  0.00  0.00    +0.058 C 
ATOM      5  C   UNL     1      32.933  -6.578 -23.741  0.00  0.00    +0.043 C 
ATOM      6  C   UNL     1      34.302  -8.847 -24.531  0.00  0.00    +0.043 C 
ATOM      7  C   UNL     1      30.759  -6.947 -22.780  0.00  0.00    +0.015 C 
ATOM      8  C   UNL     1      33.167 -10.936 -24.169  0.00  0.00    +0.015 C 
ATOM      9  C   UNL     1      32.648  -5.203 -23.812  0.00  0.00    +0.008 C 
ATOM     10  C   UNL     1      35.254  -9.522 -25.317  0.00  0.00    +0.008 C 
ATOM     11  C   UNL     1      30.479  -5.580 -22.858  0.00  0.00    +0.001 C 
ATOM     12  C   UNL     1      34.112 -11.601 -24.954  0.00  0.00    +0.001 C 
ATOM     13  C   UNL     1      31.425  -4.707 -23.372  0.00  0.00    +0.001 C 
ATOM     14  C   UNL     1      35.158 -10.893 -25.527  0.00  0.00    +0.001 C 
ENDROOT
BRANCH   2  15
ATOM     15  C   UNL     1      31.451  -9.682 -22.232  0.00  0.00    +0.075 C 
BRANCH  15  16
ATOM     16  C   UNL     1      32.179  -9.993 -20.924  0.00  0.00    -0.034 C 
ATOM     17  C   UNL     1      32.223  -8.825 -19.950  0.00  0.00    -0.021 C 
BRANCH  16  18
ATOM     18  N   UNL     1      31.511 -11.145 -20.255  0.00  0.00    +0.388 N 
ATOM     19  C   UNL     1      32.312 -12.434 -20.471  0.00  0.00    -0.096 C 
ATOM     20  C   UNL     1      31.395 -10.898 -18.746  0.00  0.00    -0.096 C 
ATOM     21  C   UNL     1      30.101 -11.353 -20.819  0.00  0.00    -0.096 C 
ENDBRANCH  16  18
ENDBRANCH  15  16
ENDBRANCH   2  15
TORSDOF 3
ENDMDL
MODEL 9
REMARK VINA RESULT:      -6.2      1.851      4.818
REMARK  Name = 6016
REMARK  3 active torsions:
REMARK  status: ('A' for Active; 'I' for Inactive)
REMARK    1  A    between atoms: N_2  and  C_15
REMARK    2  A    between atoms: C_15  and  C_16
REMARK    3  A    between atoms: C_16  and  N_18
REMARK                            x       y       z     vdW  Elec       q    Type
REMARK                         _______ _______ _______ _____ _____    ______ ____
ROOT
ATOM      1  S   UNL     1      33.057 -23.131 -12.951  0.00  0.00    -0.084 S 
ATOM      2  N   UNL     1      33.791 -23.814 -15.894  0.00  0.00    -0.288 N 
ATOM      3  C   UNL     1      34.683 -24.306 -14.907  0.00  0.00    +0.058 C 
ATOM      4  C   UNL     1      32.438 -23.457 -15.665  0.00  0.00    +0.058 C 
ATOM      5  C   UNL     1      34.445 -24.083 -13.537  0.00  0.00    +0.043 C 
ATOM      6  C   UNL     1      31.978 -23.149 -14.368  0.00  0.00    +0.043 C 
ATOM      7  C   UNL     1      35.822 -25.069 -15.244  0.00  0.00    +0.015 C 
ATOM      8  C   UNL     1      31.486 -23.428 -16.706  0.00  0.00    +0.015 C 
ATOM      9  C   UNL     1      35.328 -24.580 -12.563  0.00  0.00    +0.008 C 
ATOM     10  C   UNL     1      30.633 -22.803 -14.145  0.00  0.00    +0.008 C 
ATOM     11  C   UNL     1      36.694 -25.565 -14.271  0.00  0.00    +0.001 C 
ATOM     12  C   UNL     1      30.149 -23.088 -16.478  0.00  0.00    +0.001 C 
ATOM     13  C   UNL     1      36.449 -25.318 -12.929  0.00  0.00    +0.001 C 
ATOM     14  C   UNL     1      29.723 -22.773 -15.197  0.00  0.00    +0.001 C 
ENDROOT
BRANCH   2  15
ATOM     15  C   UNL     1      34.287 -23.731 -17.273  0.00  0.00    +0.075 C 
BRANCH  15  16
ATOM     16  C   UNL     1      34.747 -22.319 -17.632  0.00  0.00    -0.034 C 
ATOM     17  C   UNL     1      36.208 -22.043 -17.303  0.00  0.00    -0.021 C 
BRANCH  16  18
ATOM     18  N   UNL     1      34.537 -22.091 -19.090  0.00  0.00    +0.388 N 
ATOM     19  C   UNL     1      33.336 -21.168 -19.325  0.00  0.00    -0.096 C 
ATOM     20  C   UNL     1      35.775 -21.439 -19.717  0.00  0.00    -0.096 C 
ATOM     21  C   UNL     1      34.274 -23.418 -19.811  0.00  0.00    -0.096 C 
ENDBRANCH  16  18
ENDBRANCH  15  16
ENDBRANCH   2  15
TORSDOF 3
ENDMDL
