MODEL 1
REMARK VINA RESULT:      -9.0      0.000      0.000
REMARK  Name = 6992140
REMARK  11 active torsions:
REMARK  status: ('A' for Active; 'I' for Inactive)
REMARK    1  A    between atoms: CA_1  and  N_3
REMARK    2  A    between atoms: CA_1  and  C_18
REMARK    3  A    between atoms: CA_1  and  CB_21
REMARK    4  A    between atoms: C_4  and  C_6
REMARK    5  A    between atoms: C_6  and  C_7
REMARK    6  A    between atoms: C_7  and  CA_8
REMARK    7  A    between atoms: CA_8  and  N_9
REMARK    8  A    between atoms: CA_8  and  C_14
REMARK    9  A    between atoms: C_14  and  O_15
REMARK   10  A    between atoms: C_18  and  O_19
REMARK   11  A    between atoms: CB_21  and  CG_23
REMARK                            x       y       z     vdW  Elec       q    Type
REMARK                         _______ _______ _______ _____ _____    ______ ____
ROOT
ATOM      1  CA  UNL     1      34.870 -17.670 -22.681  0.00  0.00    +0.176 C 
ENDROOT
BRANCH   1   3
ATOM      2  O   UNL     1      35.193 -16.206 -20.215  0.00  0.00    -0.275 OA
ATOM      3  N   UNL     1      34.225 -16.431 -22.314  0.00  0.00    -0.297 N 
ATOM      4  C   UNL     1      34.445 -15.799 -21.099  0.00  0.00    +0.223 C 
ATOM      5  H   UNL     1      33.601 -16.017 -22.955  0.00  0.00    +0.150 HD
BRANCH   4   6
ATOM      6  C   UNL     1      33.629 -14.523 -20.977  0.00  0.00    +0.083 C 
BRANCH   6   7
ATOM      7  C   UNL     1      32.365 -14.554 -21.838  0.00  0.00    -0.001 C 
BRANCH   7   8
ATOM      8  CA  UNL     1      32.288 -13.384 -22.826  0.00  0.00    +0.036 C 
BRANCH   8   9
ATOM      9  N   UNL     1      32.345 -12.119 -22.090  0.00  0.00    +0.389 N 
ATOM     10  H1  UNL     1      33.318 -11.863 -21.927  0.00  0.00    -0.088 HD
ATOM     11  H2  UNL     1      31.866 -12.223 -21.196  0.00  0.00    -0.088 HD
ATOM     12  H3  UNL     1      31.888 -11.388 -22.637  0.00  0.00    -0.088 HD
ENDBRANCH   8   9
BRANCH   8  14
ATOM     13  OXT UNL     1      33.804 -14.332 -24.483  0.00  0.00    -0.253 OA
ATOM     14  C   UNL     1      33.470 -13.388 -23.778  0.00  0.00    +0.293 C 
BRANCH  14  15
ATOM     15  O   UNL     1      34.156 -12.215 -23.751  0.00  0.00    -0.482 OA
ATOM     16  H   UNL     1      34.768 -12.014 -24.432  0.00  0.00    +0.295 HD
ENDBRANCH  14  15
ENDBRANCH   8  14
ENDBRANCH   7   8
ENDBRANCH   6   7
ENDBRANCH   4   6
ENDBRANCH   1   3
BRANCH   1  18
ATOM     17  OXT UNL     1      34.568 -18.891 -24.747  0.00  0.00    -0.248 OA
ATOM     18  C   UNL     1      34.892 -17.846 -24.192  0.00  0.00    +0.332 C 
BRANCH  18  19
ATOM     19  O   UNL     1      35.307 -16.760 -24.886  0.00  0.00    -0.479 OA
ATOM     20  H   UNL     1      35.527 -15.970 -24.432  0.00  0.00    +0.295 HD
ENDBRANCH  18  19
ENDBRANCH   1  18
BRANCH   1  21
ATOM     21  CB  UNL     1      34.186 -18.875 -22.021  0.00  0.00    +0.059 C 
BRANCH  21  23
ATOM     22  NE1 UNL     1      36.841 -20.229 -19.912  0.00  0.00    -0.312 N 
ATOM     23  CG  UNL     1      35.068 -19.596 -21.042  0.00  0.00    -0.004 C 
ATOM     24  CD2 UNL     1      34.651 -20.590 -20.136  0.00  0.00    +0.011 C 
ATOM     25  CE2 UNL     1      35.791 -20.978 -19.430  0.00  0.00    +0.048 C 
ATOM     26  CD1 UNL     1      36.405 -19.383 -20.897  0.00  0.00    +0.058 C 
ATOM     27  CE3 UNL     1      33.422 -21.210 -19.834  0.00  0.00    +0.001 C 
ATOM     28  CZ2 UNL     1      35.765 -21.958 -18.432  0.00  0.00    +0.015 C 
ATOM     29  CZ3 UNL     1      33.380 -22.193 -18.838  0.00  0.00    +0.000 C 
ATOM     30  CH2 UNL     1      34.535 -22.559 -18.150  0.00  0.00    +0.001 C 
ATOM     31  HE1 UNL     1      37.770 -20.292 -19.596  0.00  0.00    +0.152 HD
ENDBRANCH  21  23
ENDBRANCH   1  21
TORSDOF 11
ENDMDL
MODEL 2
REMARK VINA RESULT:      -8.9      5.800     10.273
REMARK  Name = 6992140
REMARK  11 active torsions:
REMARK  status: ('A' for Active; 'I' for Inactive)
REMARK    1  A    between atoms: CA_1  and  N_3
REMARK    2  A    between atoms: CA_1  and  C_18
REMARK    3  A    between atoms: CA_1  and  CB_21
REMARK    4  A    between atoms: C_4  and  C_6
REMARK    5  A    between atoms: C_6  and  C_7
REMARK    6  A    between atoms: C_7  and  CA_8
REMARK    7  A    between atoms: CA_8  and  N_9
REMARK    8  A    between atoms: CA_8  and  C_14
REMARK    9  A    between atoms: C_14  and  O_15
REMARK   10  A    between atoms: C_18  and  O_19
REMARK   11  A    between atoms: CB_21  and  CG_23
REMARK                            x       y       z     vdW  Elec       q    Type
REMARK                         _______ _______ _______ _____ _____    ______ ____
ROOT
ATOM      1  CA  UNL     1      33.793 -23.036 -16.821  0.00  0.00    +0.176 C 
ENDROOT
BRANCH   1   3
ATOM      2  O   UNL     1      36.209 -22.424 -15.365  0.00  0.00    -0.275 OA
ATOM      3  N   UNL     1      34.657 -23.970 -16.136  0.00  0.00    -0.297 N 
ATOM      4  C   UNL     1      35.803 -23.578 -15.460  0.00  0.00    +0.223 C 
ATOM      5  H   UNL     1      34.422 -24.927 -16.150  0.00  0.00    +0.150 HD
BRANCH   4   6
ATOM      6  C   UNL     1      36.523 -24.767 -14.844  0.00  0.00    +0.083 C 
BRANCH   6   7
ATOM      7  C   UNL     1      38.043 -24.607 -14.872  0.00  0.00    -0.001 C 
BRANCH   7   8
ATOM      8  CA  UNL     1      38.775 -25.744 -14.149  0.00  0.00    +0.036 C 
BRANCH   8   9
ATOM      9  N   UNL     1      38.014 -26.986 -14.297  0.00  0.00    +0.389 N 
ATOM     10  H1  UNL     1      38.035 -27.285 -15.271  0.00  0.00    -0.088 HD
ATOM     11  H2  UNL     1      37.047 -26.829 -14.011  0.00  0.00    -0.088 HD
ATOM     12  H3  UNL     1      38.429 -27.710 -13.710  0.00  0.00    -0.088 HD
ENDBRANCH   8   9
BRANCH   8  14
ATOM     13  OXT UNL     1      41.116 -26.420 -14.151  0.00  0.00    -0.253 OA
ATOM     14  C   UNL     1      40.142 -25.995 -14.759  0.00  0.00    +0.293 C 
BRANCH  14  15
ATOM     15  O   UNL     1      40.186 -25.669 -16.077  0.00  0.00    -0.482 OA
ATOM     16  H   UNL     1      40.205 -26.344 -16.727  0.00  0.00    +0.295 HD
ENDBRANCH  14  15
ENDBRANCH   8  14
ENDBRANCH   7   8
ENDBRANCH   6   7
ENDBRANCH   4   6
ENDBRANCH   1   3
BRANCH   1  18
ATOM     17  OXT UNL     1      32.010 -23.908 -15.439  0.00  0.00    -0.248 OA
ATOM     18  C   UNL     1      32.342 -23.234 -16.408  0.00  0.00    +0.332 C 
BRANCH  18  19
ATOM     19  O   UNL     1      31.435 -22.612 -17.199  0.00  0.00    -0.479 OA
ATOM     20  H   UNL     1      30.524 -22.816 -17.117  0.00  0.00    +0.295 HD
ENDBRANCH  18  19
ENDBRANCH   1  18
BRANCH   1  21
ATOM     21  CB  UNL     1      33.929 -23.161 -18.345  0.00  0.00    +0.059 C 
BRANCH  21  23
ATOM     22  NE1 UNL     1      36.468 -20.808 -19.504  0.00  0.00    -0.312 N 
ATOM     23  CG  UNL     1      34.753 -22.067 -18.959  0.00  0.00    -0.004 C 
ATOM     24  CD2 UNL     1      34.269 -21.044 -19.797  0.00  0.00    +0.011 C 
ATOM     25  CE2 UNL     1      35.374 -20.257 -20.130  0.00  0.00    +0.048 C 
ATOM     26  CD1 UNL     1      36.095 -21.914 -18.787  0.00  0.00    +0.058 C 
ATOM     27  CE3 UNL     1      33.007 -20.695 -20.314  0.00  0.00    +0.001 C 
ATOM     28  CZ2 UNL     1      35.278 -19.134 -20.959  0.00  0.00    +0.015 C 
ATOM     29  CZ3 UNL     1      32.895 -19.573 -21.144  0.00  0.00    +0.000 C 
ATOM     30  CH2 UNL     1      34.015 -18.806 -21.460  0.00  0.00    +0.001 C 
ATOM     31  HE1 UNL     1      37.386 -20.459 -19.562  0.00  0.00    +0.152 HD
ENDBRANCH  21  23
ENDBRANCH   1  21
TORSDOF 11
ENDMDL
MODEL 3
REMARK VINA RESULT:      -8.7      2.888      8.495
REMARK  Name = 6992140
REMARK  11 active torsions:
REMARK  status: ('A' for Active; 'I' for Inactive)
REMARK    1  A    between atoms: CA_1  and  N_3
REMARK    2  A    between atoms: CA_1  and  C_18
REMARK    3  A    between atoms: CA_1  and  CB_21
REMARK    4  A    between atoms: C_4  and  C_6
REMARK    5  A    between atoms: C_6  and  C_7
REMARK    6  A    between atoms: C_7  and  CA_8
REMARK    7  A    between atoms: CA_8  and  N_9
REMARK    8  A    between atoms: CA_8  and  C_14
REMARK    9  A    between atoms: C_14  and  O_15
REMARK   10  A    between atoms: C_18  and  O_19
REMARK   11  A    between atoms: CB_21  and  CG_23
REMARK                            x       y       z     vdW  Elec       q    Type
REMARK                         _______ _______ _______ _____ _____    ______ ____
ROOT
ATOM      1  CA  UNL     1      33.212 -13.956 -24.243  0.00  0.00    +0.176 C 
ENDROOT
BRANCH   1   3
ATOM      2  O   UNL     1      32.255 -14.980 -21.720  0.00  0.00    -0.275 OA
ATOM      3  N   UNL     1      33.996 -14.584 -23.205  0.00  0.00    -0.297 N 
ATOM      4  C   UNL     1      33.443 -15.047 -22.020  0.00  0.00    +0.223 C 
ATOM      5  H   UNL     1      34.966 -14.688 -23.345  0.00  0.00    +0.150 HD
BRANCH   4   6
ATOM      6  C   UNL     1      34.499 -15.651 -21.109  0.00  0.00    +0.083 C 
BRANCH   6   7
ATOM      7  C   UNL     1      34.394 -17.174 -21.023  0.00  0.00    -0.001 C 
BRANCH   7   8
ATOM      8  CA  UNL     1      35.604 -17.890 -21.632  0.00  0.00    +0.036 C 
BRANCH   8   9
ATOM      9  N   UNL     1      35.883 -19.112 -20.873  0.00  0.00    +0.389 N 
ATOM     10  H1  UNL     1      36.854 -19.106 -20.563  0.00  0.00    -0.088 HD
ATOM     11  H2  UNL     1      35.719 -19.926 -21.466  0.00  0.00    -0.088 HD
ATOM     12  H3  UNL     1      35.267 -19.154 -20.060  0.00  0.00    -0.088 HD
ENDBRANCH   8   9
BRANCH   8  14
ATOM     13  OXT UNL     1      34.953 -19.435 -23.402  0.00  0.00    -0.253 OA
ATOM     14  C   UNL     1      35.329 -18.320 -23.062  0.00  0.00    +0.293 C 
BRANCH  14  15
ATOM     15  O   UNL     1      35.573 -17.325 -23.954  0.00  0.00    -0.482 OA
ATOM     16  H   UNL     1      35.089 -16.524 -23.908  0.00  0.00    +0.295 HD
ENDBRANCH  14  15
ENDBRANCH   8  14
ENDBRANCH   7   8
ENDBRANCH   6   7
ENDBRANCH   4   6
ENDBRANCH   1   3
BRANCH   1  18
ATOM     17  OXT UNL     1      33.931 -15.769 -25.673  0.00  0.00    -0.248 OA
ATOM     18  C   UNL     1      33.177 -14.819 -25.496  0.00  0.00    +0.332 C 
BRANCH  18  19
ATOM     19  O   UNL     1      32.249 -14.454 -26.413  0.00  0.00    -0.479 OA
ATOM     20  H   UNL     1      32.011 -13.552 -26.505  0.00  0.00    +0.295 HD
ENDBRANCH  18  19
ENDBRANCH   1  18
BRANCH   1  21
ATOM     21  CB  UNL     1      33.747 -12.558 -24.582  0.00  0.00    +0.059 C 
BRANCH  21  23
ATOM     22  NE1 UNL     1      31.927 -10.431 -22.239  0.00  0.00    -0.312 N 
ATOM     23  CG  UNL     1      33.182 -11.478 -23.705  0.00  0.00    -0.004 C 
ATOM     24  CD2 UNL     1      33.645 -10.150 -23.634  0.00  0.00    +0.011 C 
ATOM     25  CE2 UNL     1      32.834  -9.503 -22.699  0.00  0.00    +0.048 C 
ATOM     26  CD1 UNL     1      32.135 -11.639 -22.849  0.00  0.00    +0.058 C 
ATOM     27  CE3 UNL     1      34.669  -9.417 -24.265  0.00  0.00    +0.001 C 
ATOM     28  CZ2 UNL     1      32.998  -8.156 -22.361  0.00  0.00    +0.015 C 
ATOM     29  CZ3 UNL     1      34.845  -8.068 -23.938  0.00  0.00    +0.000 C 
ATOM     30  CH2 UNL     1      34.021  -7.449 -23.000  0.00  0.00    +0.001 C 
ATOM     31  HE1 UNL     1      31.230 -10.253 -21.567  0.00  0.00    +0.152 HD
ENDBRANCH  21  23
ENDBRANCH   1  21
TORSDOF 11
ENDMDL
MODEL 4
REMARK VINA RESULT:      -8.7      8.379     11.388
REMARK  Name = 6992140
REMARK  11 active torsions:
REMARK  status: ('A' for Active; 'I' for Inactive)
REMARK    1  A    between atoms: CA_1  and  N_3
REMARK    2  A    between atoms: CA_1  and  C_18
REMARK    3  A    between atoms: CA_1  and  CB_21
REMARK    4  A    between atoms: C_4  and  C_6
REMARK    5  A    between atoms: C_6  and  C_7
REMARK    6  A    between atoms: C_7  and  CA_8
REMARK    7  A    between atoms: CA_8  and  N_9
REMARK    8  A    between atoms: CA_8  and  C_14
REMARK    9  A    between atoms: C_14  and  O_15
REMARK   10  A    between atoms: C_18  and  O_19
REMARK   11  A    between atoms: CB_21  and  CG_23
REMARK                            x       y       z     vdW  Elec       q    Type
REMARK                         _______ _______ _______ _____ _____    ______ ____
ROOT
ATOM      1  CA  UNL     1      34.372 -23.930 -15.730  0.00  0.00    +0.176 C 
ENDROOT
BRANCH   1   3
ATOM      2  O   UNL     1      36.021 -26.290 -15.533  0.00  0.00    -0.275 OA
ATOM      3  N   UNL     1      35.616 -24.065 -15.007  0.00  0.00    -0.297 N 
ATOM      4  C   UNL     1      36.341 -25.247 -14.971  0.00  0.00    +0.223 C 
ATOM      5  H   UNL     1      35.964 -23.283 -14.519  0.00  0.00    +0.150 HD
BRANCH   4   6
ATOM      6  C   UNL     1      37.599 -25.105 -14.130  0.00  0.00    +0.083 C 
BRANCH   6   7
ATOM      7  C   UNL     1      37.410 -25.629 -12.706  0.00  0.00    -0.001 C 
BRANCH   7   8
ATOM      8  CA  UNL     1      37.189 -24.507 -11.684  0.00  0.00    +0.036 C 
BRANCH   8   9
ATOM      9  N   UNL     1      37.490 -23.215 -12.304  0.00  0.00    +0.389 N 
ATOM     10  H1  UNL     1      37.641 -23.344 -13.304  0.00  0.00    -0.088 HD
ATOM     11  H2  UNL     1      38.332 -22.823 -11.881  0.00  0.00    -0.088 HD
ATOM     12  H3  UNL     1      36.707 -22.577 -12.157  0.00  0.00    -0.088 HD
ENDBRANCH   8   9
BRANCH   8  14
ATOM     13  OXT UNL     1      35.264 -25.090 -10.307  0.00  0.00    -0.253 OA
ATOM     14  C   UNL     1      35.741 -24.448 -11.235  0.00  0.00    +0.293 C 
BRANCH  14  15
ATOM     15  O   UNL     1      34.998 -23.607 -12.002  0.00  0.00    -0.482 OA
ATOM     16  H   UNL     1      34.068 -23.569 -11.891  0.00  0.00    +0.295 HD
ENDBRANCH  14  15
ENDBRANCH   8  14
ENDBRANCH   7   8
ENDBRANCH   6   7
ENDBRANCH   4   6
ENDBRANCH   1   3
BRANCH   1  18
ATOM     17  OXT UNL     1      35.571 -22.573 -17.333  0.00  0.00    -0.248 OA
ATOM     18  C   UNL     1      34.598 -23.278 -17.086  0.00  0.00    +0.332 C 
BRANCH  18  19
ATOM     19  O   UNL     1      33.636 -23.528 -18.006  0.00  0.00    -0.479 OA
ATOM     20  H   UNL     1      33.343 -22.843 -18.575  0.00  0.00    +0.295 HD
ENDBRANCH  18  19
ENDBRANCH   1  18
BRANCH   1  21
ATOM     21  CB  UNL     1      33.341 -23.128 -14.925  0.00  0.00    +0.059 C 
BRANCH  21  23
ATOM     22  NE1 UNL     1      30.607 -25.303 -13.865  0.00  0.00    -0.312 N 
ATOM     23  CG  UNL     1      32.062 -23.877 -14.686  0.00  0.00    -0.004 C 
ATOM     24  CD2 UNL     1      30.841 -23.656 -15.352  0.00  0.00    +0.011 C 
ATOM     25  CE2 UNL     1      29.932 -24.571 -14.817  0.00  0.00    +0.048 C 
ATOM     26  CD1 UNL     1      31.908 -24.883 -13.781  0.00  0.00    +0.058 C 
ATOM     27  CE3 UNL     1      30.402 -22.773 -16.358  0.00  0.00    +0.001 C 
ATOM     28  CZ2 UNL     1      28.601 -24.648 -15.239  0.00  0.00    +0.015 C 
ATOM     29  CZ3 UNL     1      29.072 -22.839 -16.791  0.00  0.00    +0.000 C 
ATOM     30  CH2 UNL     1      28.188 -23.763 -16.239  0.00  0.00    +0.001 C 
ATOM     31  HE1 UNL     1      30.212 -26.023 -13.324  0.00  0.00    +0.152 HD
ENDBRANCH  21  23
ENDBRANCH   1  21
TORSDOF 11
ENDMDL
MODEL 5
REMARK VINA RESULT:      -8.5      6.449     10.554
REMARK  Name = 6992140
REMARK  11 active torsions:
REMARK  status: ('A' for Active; 'I' for Inactive)
REMARK    1  A    between atoms: CA_1  and  N_3
REMARK    2  A    between atoms: CA_1  and  C_18
REMARK    3  A    between atoms: CA_1  and  CB_21
REMARK    4  A    between atoms: C_4  and  C_6
REMARK    5  A    between atoms: C_6  and  C_7
REMARK    6  A    between atoms: C_7  and  CA_8
REMARK    7  A    between atoms: CA_8  and  N_9
REMARK    8  A    between atoms: CA_8  and  C_14
REMARK    9  A    between atoms: C_14  and  O_15
REMARK   10  A    between atoms: C_18  and  O_19
REMARK   11  A    between atoms: CB_21  and  CG_23
REMARK                            x       y       z     vdW  Elec       q    Type
REMARK                         _______ _______ _______ _____ _____    ______ ____
ROOT
ATOM      1  CA  UNL     1      34.080 -23.126 -16.270  0.00  0.00    +0.176 C 
ENDROOT
BRANCH   1   3
ATOM      2  O   UNL     1      35.973 -23.079 -14.092  0.00  0.00    -0.275 OA
ATOM      3  N   UNL     1      35.008 -24.170 -15.901  0.00  0.00    -0.297 N 
ATOM      4  C   UNL     1      35.884 -24.055 -14.831  0.00  0.00    +0.223 C 
ATOM      5  H   UNL     1      35.019 -24.999 -16.432  0.00  0.00    +0.150 HD
BRANCH   4   6
ATOM      6  C   UNL     1      36.748 -25.295 -14.680  0.00  0.00    +0.083 C 
BRANCH   6   7
ATOM      7  C   UNL     1      36.802 -25.796 -13.236  0.00  0.00    -0.001 C 
BRANCH   7   8
ATOM      8  CA  UNL     1      38.108 -25.423 -12.525  0.00  0.00    +0.036 C 
BRANCH   8   9
ATOM      9  N   UNL     1      39.116 -25.048 -13.520  0.00  0.00    +0.389 N 
ATOM     10  H1  UNL     1      39.849 -24.499 -13.072  0.00  0.00    -0.088 HD
ATOM     11  H2  UNL     1      38.678 -24.494 -14.256  0.00  0.00    -0.088 HD
ATOM     12  H3  UNL     1      39.523 -25.892 -13.925  0.00  0.00    -0.088 HD
ENDBRANCH   8   9
BRANCH   8  14
ATOM     13  OXT UNL     1      36.971 -24.048 -10.865  0.00  0.00    -0.253 OA
ATOM     14  C   UNL     1      37.919 -24.218 -11.622  0.00  0.00    +0.293 C 
BRANCH  14  15
ATOM     15  O   UNL     1      38.920 -23.310 -11.759  0.00  0.00    -0.482 OA
ATOM     16  H   UNL     1      39.771 -23.588 -12.038  0.00  0.00    +0.295 HD
ENDBRANCH  14  15
ENDBRANCH   8  14
ENDBRANCH   7   8
ENDBRANCH   6   7
ENDBRANCH   4   6
ENDBRANCH   1   3
BRANCH   1  18
ATOM     17  OXT UNL     1      31.762 -23.759 -15.997  0.00  0.00    -0.248 OA
ATOM     18  C   UNL     1      32.771 -23.265 -15.506  0.00  0.00    +0.332 C 
BRANCH  18  19
ATOM     19  O   UNL     1      32.800 -22.793 -14.237  0.00  0.00    -0.479 OA
ATOM     20  H   UNL     1      33.334 -23.215 -13.593  0.00  0.00    +0.295 HD
ENDBRANCH  18  19
ENDBRANCH   1  18
BRANCH   1  21
ATOM     21  CB  UNL     1      33.810 -23.125 -17.781  0.00  0.00    +0.059 C 
BRANCH  21  23
ATOM     22  NE1 UNL     1      36.423 -21.036 -19.243  0.00  0.00    -0.312 N 
ATOM     23  CG  UNL     1      34.669 -22.152 -18.537  0.00  0.00    -0.004 C 
ATOM     24  CD2 UNL     1      34.218 -21.239 -19.510  0.00  0.00    +0.011 C 
ATOM     25  CE2 UNL     1      35.347 -20.541 -19.944  0.00  0.00    +0.048 C 
ATOM     26  CD1 UNL     1      36.015 -22.020 -18.382  0.00  0.00    +0.058 C 
ATOM     27  CE3 UNL     1      32.967 -20.925 -20.076  0.00  0.00    +0.001 C 
ATOM     28  CZ2 UNL     1      35.287 -19.541 -20.920  0.00  0.00    +0.015 C 
ATOM     29  CZ3 UNL     1      32.891 -19.925 -21.053  0.00  0.00    +0.000 C 
ATOM     30  CH2 UNL     1      34.035 -19.246 -21.467  0.00  0.00    +0.001 C 
ATOM     31  HE1 UNL     1      37.352 -20.728 -19.345  0.00  0.00    +0.152 HD
ENDBRANCH  21  23
ENDBRANCH   1  21
TORSDOF 11
ENDMDL
MODEL 6
REMARK VINA RESULT:      -8.3      5.839      9.987
REMARK  Name = 6992140
REMARK  11 active torsions:
REMARK  status: ('A' for Active; 'I' for Inactive)
REMARK    1  A    between atoms: CA_1  and  N_3
REMARK    2  A    between atoms: CA_1  and  C_18
REMARK    3  A    between atoms: CA_1  and  CB_21
REMARK    4  A    between atoms: C_4  and  C_6
REMARK    5  A    between atoms: C_6  and  C_7
REMARK    6  A    between atoms: C_7  and  CA_8
REMARK    7  A    between atoms: CA_8  and  N_9
REMARK    8  A    between atoms: CA_8  and  C_14
REMARK    9  A    between atoms: C_14  and  O_15
REMARK   10  A    between atoms: C_18  and  O_19
REMARK   11  A    between atoms: CB_21  and  CG_23
REMARK                            x       y       z     vdW  Elec       q    Type
REMARK                         _______ _______ _______ _____ _____    ______ ____
ROOT
ATOM      1  CA  UNL     1      34.170 -22.846 -16.606  0.00  0.00    +0.176 C 
ENDROOT
BRANCH   1   3
ATOM      2  O   UNL     1      36.802 -21.755 -16.145  0.00  0.00    -0.275 OA
ATOM      3  N   UNL     1      35.290 -23.511 -15.982  0.00  0.00    -0.297 N 
ATOM      4  C   UNL     1      36.524 -22.900 -15.803  0.00  0.00    +0.223 C 
ATOM      5  H   UNL     1      35.173 -24.437 -15.669  0.00  0.00    +0.150 HD
BRANCH   4   6
ATOM      6  C   UNL     1      37.516 -23.833 -15.131  0.00  0.00    +0.083 C 
BRANCH   6   7
ATOM      7  C   UNL     1      36.975 -24.420 -13.826  0.00  0.00    -0.001 C 
BRANCH   7   8
ATOM      8  CA  UNL     1      36.481 -23.346 -12.850  0.00  0.00    +0.036 C 
BRANCH   8   9
ATOM      9  N   UNL     1      35.076 -23.597 -12.518  0.00  0.00    +0.389 N 
ATOM     10  H1  UNL     1      34.683 -24.264 -13.182  0.00  0.00    -0.088 HD
ATOM     11  H2  UNL     1      34.554 -22.722 -12.566  0.00  0.00    -0.088 HD
ATOM     12  H3  UNL     1      35.013 -23.980 -11.574  0.00  0.00    -0.088 HD
ENDBRANCH   8   9
BRANCH   8  14
ATOM     13  OXT UNL     1      36.854 -23.914 -10.510  0.00  0.00    -0.253 OA
ATOM     14  C   UNL     1      37.251 -23.391 -11.544  0.00  0.00    +0.293 C 
BRANCH  14  15
ATOM     15  O   UNL     1      38.448 -22.754 -11.630  0.00  0.00    -0.482 OA
ATOM     16  H   UNL     1      39.174 -23.174 -12.048  0.00  0.00    +0.295 HD
ENDBRANCH  14  15
ENDBRANCH   8  14
ENDBRANCH   7   8
ENDBRANCH   6   7
ENDBRANCH   4   6
ENDBRANCH   1   3
BRANCH   1  18
ATOM     17  OXT UNL     1      31.875 -23.597 -16.485  0.00  0.00    -0.248 OA
ATOM     18  C   UNL     1      32.869 -23.188 -15.896  0.00  0.00    +0.332 C 
BRANCH  18  19
ATOM     19  O   UNL     1      32.885 -22.999 -14.555  0.00  0.00    -0.479 OA
ATOM     20  H   UNL     1      33.023 -22.141 -14.204  0.00  0.00    +0.295 HD
ENDBRANCH  18  19
ENDBRANCH   1  18
BRANCH   1  21
ATOM     21  CB  UNL     1      34.066 -23.203 -18.096  0.00  0.00    +0.059 C 
BRANCH  21  23
ATOM     22  NE1 UNL     1      32.799 -20.448 -20.128  0.00  0.00    -0.312 N 
ATOM     23  CG  UNL     1      33.824 -22.011 -18.976  0.00  0.00    -0.004 C 
ATOM     24  CD2 UNL     1      34.819 -21.210 -19.569  0.00  0.00    +0.011 C 
ATOM     25  CE2 UNL     1      34.147 -20.225 -20.296  0.00  0.00    +0.048 C 
ATOM     26  CD1 UNL     1      32.596 -21.537 -19.323  0.00  0.00    +0.058 C 
ATOM     27  CE3 UNL     1      36.228 -21.211 -19.570  0.00  0.00    +0.001 C 
ATOM     28  CZ2 UNL     1      34.815 -19.237 -21.026  0.00  0.00    +0.015 C 
ATOM     29  CZ3 UNL     1      36.911 -20.229 -20.297  0.00  0.00    +0.000 C 
ATOM     30  CH2 UNL     1      36.213 -19.258 -21.013  0.00  0.00    +0.001 C 
ATOM     31  HE1 UNL     1      32.084 -19.904 -20.529  0.00  0.00    +0.152 HD
ENDBRANCH  21  23
ENDBRANCH   1  21
TORSDOF 11
ENDMDL
MODEL 7
REMARK VINA RESULT:      -8.2      6.173     10.423
REMARK  Name = 6992140
REMARK  11 active torsions:
REMARK  status: ('A' for Active; 'I' for Inactive)
REMARK    1  A    between atoms: CA_1  and  N_3
REMARK    2  A    between atoms: CA_1  and  C_18
REMARK    3  A    between atoms: CA_1  and  CB_21
REMARK    4  A    between atoms: C_4  and  C_6
REMARK    5  A    between atoms: C_6  and  C_7
REMARK    6  A    between atoms: C_7  and  CA_8
REMARK    7  A    between atoms: CA_8  and  N_9
REMARK    8  A    between atoms: CA_8  and  C_14
REMARK    9  A    between atoms: C_14  and  O_15
REMARK   10  A    between atoms: C_18  and  O_19
REMARK   11  A    between atoms: CB_21  and  CG_23
REMARK                            x       y       z     vdW  Elec       q    Type
REMARK                         _______ _______ _______ _____ _____    ______ ____
ROOT
ATOM      1  CA  UNL     1      34.466 -23.038 -16.132  0.00  0.00    +0.176 C 
ENDROOT
BRANCH   1   3
ATOM      2  O   UNL     1      37.131 -21.972 -15.834  0.00  0.00    -0.275 OA
ATOM      3  N   UNL     1      35.649 -23.757 -15.720  0.00  0.00    -0.297 N 
ATOM      4  C   UNL     1      36.894 -23.154 -15.605  0.00  0.00    +0.223 C 
ATOM      5  H   UNL     1      35.569 -24.716 -15.511  0.00  0.00    +0.150 HD
BRANCH   4   6
ATOM      6  C   UNL     1      37.956 -24.147 -15.165  0.00  0.00    +0.083 C 
BRANCH   6   7
ATOM      7  C   UNL     1      37.973 -24.350 -13.649  0.00  0.00    -0.001 C 
BRANCH   7   8
ATOM      8  CA  UNL     1      37.272 -25.642 -13.214  0.00  0.00    +0.036 C 
BRANCH   8   9
ATOM      9  N   UNL     1      35.867 -25.357 -12.912  0.00  0.00    +0.389 N 
ATOM     10  H1  UNL     1      35.359 -26.234 -12.796  0.00  0.00    -0.088 HD
ATOM     11  H2  UNL     1      35.455 -24.824 -13.678  0.00  0.00    -0.088 HD
ATOM     12  H3  UNL     1      35.809 -24.814 -12.050  0.00  0.00    -0.088 HD
ENDBRANCH   8   9
BRANCH   8  14
ATOM     13  OXT UNL     1      38.258 -27.313 -14.688  0.00  0.00    -0.253 OA
ATOM     14  C   UNL     1      37.278 -26.675 -14.326  0.00  0.00    +0.293 C 
BRANCH  14  15
ATOM     15  O   UNL     1      36.059 -26.806 -14.913  0.00  0.00    -0.482 OA
ATOM     16  H   UNL     1      35.981 -27.243 -15.738  0.00  0.00    +0.295 HD
ENDBRANCH  14  15
ENDBRANCH   8  14
ENDBRANCH   7   8
ENDBRANCH   6   7
ENDBRANCH   4   6
ENDBRANCH   1   3
BRANCH   1  18
ATOM     17  OXT UNL     1      32.161 -23.165 -15.411  0.00  0.00    -0.248 OA
ATOM     18  C   UNL     1      33.349 -23.196 -15.110  0.00  0.00    +0.332 C 
BRANCH  18  19
ATOM     19  O   UNL     1      33.766 -23.369 -13.833  0.00  0.00    -0.479 OA
ATOM     20  H   UNL     1      34.158 -24.180 -13.574  0.00  0.00    +0.295 HD
ENDBRANCH  18  19
ENDBRANCH   1  18
BRANCH   1  21
ATOM     21  CB  UNL     1      33.983 -23.498 -17.514  0.00  0.00    +0.059 C 
BRANCH  21  23
ATOM     22  NE1 UNL     1      32.666 -20.854 -19.660  0.00  0.00    -0.312 N 
ATOM     23  CG  UNL     1      33.719 -22.361 -18.460  0.00  0.00    -0.004 C 
ATOM     24  CD2 UNL     1      34.698 -21.627 -19.156  0.00  0.00    +0.011 C 
ATOM     25  CE2 UNL     1      34.008 -20.676 -19.912  0.00  0.00    +0.048 C 
ATOM     26  CD1 UNL     1      32.484 -21.882 -18.774  0.00  0.00    +0.058 C 
ATOM     27  CE3 UNL     1      36.104 -21.662 -19.230  0.00  0.00    +0.001 C 
ATOM     28  CZ2 UNL     1      34.657 -19.755 -20.741  0.00  0.00    +0.015 C 
ATOM     29  CZ3 UNL     1      36.767 -20.747 -20.057  0.00  0.00    +0.000 C 
ATOM     30  CH2 UNL     1      36.052 -19.809 -20.799  0.00  0.00    +0.001 C 
ATOM     31  HE1 UNL     1      31.942 -20.320 -20.059  0.00  0.00    +0.152 HD
ENDBRANCH  21  23
ENDBRANCH   1  21
TORSDOF 11
ENDMDL
MODEL 8
REMARK VINA RESULT:      -8.1      3.097      5.336
REMARK  Name = 6992140
REMARK  11 active torsions:
REMARK  status: ('A' for Active; 'I' for Inactive)
REMARK    1  A    between atoms: CA_1  and  N_3
REMARK    2  A    between atoms: CA_1  and  C_18
REMARK    3  A    between atoms: CA_1  and  CB_21
REMARK    4  A    between atoms: C_4  and  C_6
REMARK    5  A    between atoms: C_6  and  C_7
REMARK    6  A    between atoms: C_7  and  CA_8
REMARK    7  A    between atoms: CA_8  and  N_9
REMARK    8  A    between atoms: CA_8  and  C_14
REMARK    9  A    between atoms: C_14  and  O_15
REMARK   10  A    between atoms: C_18  and  O_19
REMARK   11  A    between atoms: CB_21  and  CG_23
REMARK                            x       y       z     vdW  Elec       q    Type
REMARK                         _______ _______ _______ _____ _____    ______ ____
ROOT
ATOM      1  CA  UNL     1      33.111 -13.663 -22.834  0.00  0.00    +0.176 C 
ENDROOT
BRANCH   1   3
ATOM      2  O   UNL     1      33.805 -12.066 -25.136  0.00  0.00    -0.275 OA
ATOM      3  N   UNL     1      33.162 -12.222 -22.909  0.00  0.00    -0.297 N 
ATOM      4  C   UNL     1      33.508 -11.540 -24.067  0.00  0.00    +0.223 C 
ATOM      5  H   UNL     1      32.942 -11.700 -22.103  0.00  0.00    +0.150 HD
BRANCH   4   6
ATOM      6  C   UNL     1      33.490 -10.036 -23.857  0.00  0.00    +0.083 C 
BRANCH   6   7
ATOM      7  C   UNL     1      32.190  -9.553 -23.209  0.00  0.00    -0.001 C 
BRANCH   7   8
ATOM      8  CA  UNL     1      32.430  -8.621 -22.017  0.00  0.00    +0.036 C 
BRANCH   8   9
ATOM      9  N   UNL     1      31.540  -7.461 -22.116  0.00  0.00    +0.389 N 
ATOM     10  H1  UNL     1      32.088  -6.630 -22.336  0.00  0.00    -0.088 HD
ATOM     11  H2  UNL     1      31.057  -7.325 -21.228  0.00  0.00    -0.088 HD
ATOM     12  H3  UNL     1      30.854  -7.622 -22.855  0.00  0.00    -0.088 HD
ENDBRANCH   8   9
BRANCH   8  14
ATOM     13  OXT UNL     1      32.378  -8.873 -19.593  0.00  0.00    -0.253 OA
ATOM     14  C   UNL     1      32.103  -9.309 -20.704  0.00  0.00    +0.293 C 
BRANCH  14  15
ATOM     15  O   UNL     1      31.480 -10.502 -20.889  0.00  0.00    -0.482 OA
ATOM     16  H   UNL     1      31.356 -10.836 -21.756  0.00  0.00    +0.295 HD
ENDBRANCH  14  15
ENDBRANCH   8  14
ENDBRANCH   7   8
ENDBRANCH   6   7
ENDBRANCH   4   6
ENDBRANCH   1   3
BRANCH   1  18
ATOM     17  OXT UNL     1      32.025 -15.263 -21.381  0.00  0.00    -0.248 OA
ATOM     18  C   UNL     1      32.431 -14.119 -21.551  0.00  0.00    +0.332 C 
BRANCH  18  19
ATOM     19  O   UNL     1      32.299 -13.158 -20.605  0.00  0.00    -0.479 OA
ATOM     20  H   UNL     1      31.484 -12.705 -20.509  0.00  0.00    +0.295 HD
ENDBRANCH  18  19
ENDBRANCH   1  18
BRANCH   1  21
ATOM     21  CB  UNL     1      34.514 -14.280 -22.933  0.00  0.00    +0.059 C 
BRANCH  21  23
ATOM     22  NE1 UNL     1      34.374 -17.272 -25.019  0.00  0.00    -0.312 N 
ATOM     23  CG  UNL     1      34.518 -15.650 -23.547  0.00  0.00    -0.004 C 
ATOM     24  CD2 UNL     1      34.765 -16.856 -22.863  0.00  0.00    +0.011 C 
ATOM     25  CE2 UNL     1      34.668 -17.873 -23.816  0.00  0.00    +0.048 C 
ATOM     26  CD1 UNL     1      34.281 -15.915 -24.861  0.00  0.00    +0.058 C 
ATOM     27  CE3 UNL     1      35.062 -17.203 -21.530  0.00  0.00    +0.001 C 
ATOM     28  CZ2 UNL     1      34.855 -19.223 -23.502  0.00  0.00    +0.015 C 
ATOM     29  CZ3 UNL     1      35.251 -18.550 -21.201  0.00  0.00    +0.000 C 
ATOM     30  CH2 UNL     1      35.149 -19.542 -22.173  0.00  0.00    +0.001 C 
ATOM     31  HE1 UNL     1      34.249 -17.749 -25.871  0.00  0.00    +0.152 HD
ENDBRANCH  21  23
ENDBRANCH   1  21
TORSDOF 11
ENDMDL
MODEL 9
REMARK VINA RESULT:      -8.1      3.075      5.358
REMARK  Name = 6992140
REMARK  11 active torsions:
REMARK  status: ('A' for Active; 'I' for Inactive)
REMARK    1  A    between atoms: CA_1  and  N_3
REMARK    2  A    between atoms: CA_1  and  C_18
REMARK    3  A    between atoms: CA_1  and  CB_21
REMARK    4  A    between atoms: C_4  and  C_6
REMARK    5  A    between atoms: C_6  and  C_7
REMARK    6  A    between atoms: C_7  and  CA_8
REMARK    7  A    between atoms: CA_8  and  N_9
REMARK    8  A    between atoms: CA_8  and  C_14
REMARK    9  A    between atoms: C_14  and  O_15
REMARK   10  A    between atoms: C_18  and  O_19
REMARK   11  A    between atoms: CB_21  and  CG_23
REMARK                            x       y       z     vdW  Elec       q    Type
REMARK                         _______ _______ _______ _____ _____    ______ ____
ROOT
ATOM      1  CA  UNL     1      33.443 -13.657 -23.403  0.00  0.00    +0.176 C 
ENDROOT
BRANCH   1   3
ATOM      2  O   UNL     1      33.516 -12.695 -26.123  0.00  0.00    -0.275 OA
ATOM      3  N   UNL     1      33.937 -12.379 -23.861  0.00  0.00    -0.297 N 
ATOM      4  C   UNL     1      33.930 -12.004 -25.197  0.00  0.00    +0.223 C 
ATOM      5  H   UNL     1      34.293 -11.746 -23.196  0.00  0.00    +0.150 HD
BRANCH   4   6
ATOM      6  C   UNL     1      34.516 -10.616 -25.391  0.00  0.00    +0.083 C 
BRANCH   6   7
ATOM      7  C   UNL     1      34.646  -9.849 -24.075  0.00  0.00    -0.001 C 
BRANCH   7   8
ATOM      8  CA  UNL     1      33.461  -8.912 -23.813  0.00  0.00    +0.036 C 
BRANCH   8   9
ATOM      9  N   UNL     1      32.536  -9.546 -22.870  0.00  0.00    +0.389 N 
ATOM     10  H1  UNL     1      31.969  -8.831 -22.416  0.00  0.00    -0.088 HD
ATOM     11  H2  UNL     1      33.066 -10.058 -22.165  0.00  0.00    -0.088 HD
ATOM     12  H3  UNL     1      31.928 -10.193 -23.374  0.00  0.00    -0.088 HD
ENDBRANCH   8   9
BRANCH   8  14
ATOM     13  OXT UNL     1      33.172  -6.711 -22.806  0.00  0.00    -0.253 OA
ATOM     14  C   UNL     1      33.915  -7.614 -23.171  0.00  0.00    +0.293 C 
BRANCH  14  15
ATOM     15  O   UNL     1      35.267  -7.539 -23.062  0.00  0.00    -0.482 OA
ATOM     16  H   UNL     1      35.661  -6.835 -22.585  0.00  0.00    +0.295 HD
ENDBRANCH  14  15
ENDBRANCH   8  14
ENDBRANCH   7   8
ENDBRANCH   6   7
ENDBRANCH   4   6
ENDBRANCH   1   3
BRANCH   1  18
ATOM     17  OXT UNL     1      31.768 -12.408 -22.185  0.00  0.00    -0.248 OA
ATOM     18  C   UNL     1      32.341 -13.476 -22.369  0.00  0.00    +0.332 C 
BRANCH  18  19
ATOM     19  O   UNL     1      32.043 -14.588 -21.655  0.00  0.00    -0.479 OA
ATOM     20  H   UNL     1      31.969 -15.416 -22.087  0.00  0.00    +0.295 HD
ENDBRANCH  18  19
ENDBRANCH   1  18
BRANCH   1  21
ATOM     21  CB  UNL     1      34.572 -14.520 -22.824  0.00  0.00    +0.059 C 
BRANCH  21  23
ATOM     22  NE1 UNL     1      34.752 -17.489 -24.940  0.00  0.00    -0.312 N 
ATOM     23  CG  UNL     1      34.654 -15.885 -23.444  0.00  0.00    -0.004 C 
ATOM     24  CD2 UNL     1      34.726 -17.104 -22.743  0.00  0.00    +0.011 C 
ATOM     25  CE2 UNL     1      34.787 -18.108 -23.711  0.00  0.00    +0.048 C 
ATOM     26  CD1 UNL     1      34.671 -16.131 -24.783  0.00  0.00    +0.058 C 
ATOM     27  CE3 UNL     1      34.747 -17.470 -21.383  0.00  0.00    +0.001 C 
ATOM     28  CZ2 UNL     1      34.867 -19.467 -23.386  0.00  0.00    +0.015 C 
ATOM     29  CZ3 UNL     1      34.826 -18.826 -21.042  0.00  0.00    +0.000 C 
ATOM     30  CH2 UNL     1      34.886 -19.806 -22.030  0.00  0.00    +0.001 C 
ATOM     31  HE1 UNL     1      34.781 -17.954 -25.806  0.00  0.00    +0.152 HD
ENDBRANCH  21  23
ENDBRANCH   1  21
TORSDOF 11
ENDMDL
