MODEL 1
REMARK VINA RESULT:      -8.3      0.000      0.000
REMARK  Name = 165879
REMARK  4 active torsions:
REMARK  status: ('A' for Active; 'I' for Inactive)
REMARK    1  A    between atoms: C_1  and  O_12
REMARK    2  A    between atoms: C_3  and  N_9
REMARK    3  A    between atoms: C_4  and  O_10
REMARK    4  A    between atoms: O_12  and  S_13
REMARK                            x       y       z     vdW  Elec       q    Type
REMARK                         _______ _______ _______ _____ _____    ______ ____
ROOT
ATOM      1  C   UNL     1      37.909 -25.878 -13.671  0.00  0.00    +0.211 C 
ATOM      2  C   UNL     1      37.718 -25.288 -12.422  0.00  0.00    +0.067 C 
ATOM      3  C   UNL     1      36.590 -24.501 -12.186  0.00  0.00    +0.146 C 
ATOM      4  C   UNL     1      36.971 -25.680 -14.685  0.00  0.00    +0.171 C 
ATOM      5  C   UNL     1      35.653 -24.305 -13.201  0.00  0.00    +0.027 C 
ATOM      6  C   UNL     1      35.844 -24.895 -14.450  0.00  0.00    +0.042 C 
ENDROOT
BRANCH   3   9
ATOM      7  O   UNL     1      37.048 -22.867 -10.624  0.00  0.00    -0.126 OA
ATOM      8  O   UNL     1      35.579 -24.417 -10.116  0.00  0.00    -0.126 OA
ATOM      9  N   UNL     1      36.397 -23.900 -10.914  0.00  0.00    +0.058 N 
ENDBRANCH   3   9
BRANCH   4  10
ATOM     10  O   UNL     1      37.145 -26.251 -15.910  0.00  0.00    -0.503 OA
ATOM     11  H   UNL     1      37.655 -27.033 -15.994  0.00  0.00    +0.292 HD
ENDBRANCH   4  10
BRANCH   1  12
ATOM     12  O   UNL     1      39.014 -26.643 -13.888  0.00  0.00    -0.319 OA
BRANCH  12  13
ATOM     13  S   UNL     1      40.373 -25.929 -14.476  0.00  0.00    +0.282 S 
ATOM     14  O   UNL     1      41.581 -26.892 -13.947  0.00  0.00    -0.105 OA
ATOM     15  O   UNL     1      40.352 -25.993 -15.926  0.00  0.00    -0.012 OA
ATOM     16  O   UNL     1      40.518 -24.646 -13.811  0.00  0.00    -0.105 OA
ENDBRANCH  12  13
ENDBRANCH   1  12
TORSDOF 4
ENDMDL
MODEL 2
REMARK VINA RESULT:      -8.1      1.274      1.806
REMARK  Name = 165879
REMARK  4 active torsions:
REMARK  status: ('A' for Active; 'I' for Inactive)
REMARK    1  A    between atoms: C_1  and  O_12
REMARK    2  A    between atoms: C_3  and  N_9
REMARK    3  A    between atoms: C_4  and  O_10
REMARK    4  A    between atoms: O_12  and  S_13
REMARK                            x       y       z     vdW  Elec       q    Type
REMARK                         _______ _______ _______ _____ _____    ______ ____
ROOT
ATOM      1  C   UNL     1      38.571 -24.397 -13.557  0.00  0.00    +0.211 C 
ATOM      2  C   UNL     1      37.936 -24.598 -12.333  0.00  0.00    +0.067 C 
ATOM      3  C   UNL     1      36.613 -24.191 -12.156  0.00  0.00    +0.146 C 
ATOM      4  C   UNL     1      37.882 -23.788 -14.608  0.00  0.00    +0.171 C 
ATOM      5  C   UNL     1      35.925 -23.583 -13.207  0.00  0.00    +0.027 C 
ATOM      6  C   UNL     1      36.560 -23.382 -14.432  0.00  0.00    +0.042 C 
ENDROOT
BRANCH   3   9
ATOM      7  O   UNL     1      36.454 -23.871  -9.878  0.00  0.00    -0.126 OA
ATOM      8  O   UNL     1      34.928 -25.096 -10.870  0.00  0.00    -0.126 OA
ATOM      9  N   UNL     1      35.967 -24.396 -10.908  0.00  0.00    +0.058 N 
ENDBRANCH   3   9
BRANCH   4  10
ATOM     10  O   UNL     1      38.491 -23.585 -15.809  0.00  0.00    -0.503 OA
ATOM     11  H   UNL     1      38.276 -24.130 -16.541  0.00  0.00    +0.292 HD
ENDBRANCH   4  10
BRANCH   1  12
ATOM     12  O   UNL     1      39.863 -24.797 -13.716  0.00  0.00    -0.319 OA
BRANCH  12  13
ATOM     13  S   UNL     1      40.165 -26.243 -14.436  0.00  0.00    +0.282 S 
ATOM     14  O   UNL     1      40.602 -25.839 -15.957  0.00  0.00    -0.105 OA
ATOM     15  O   UNL     1      41.309 -26.863 -13.793  0.00  0.00    -0.012 OA
ATOM     16  O   UNL     1      38.906 -26.962 -14.524  0.00  0.00    -0.105 OA
ENDBRANCH  12  13
ENDBRANCH   1  12
TORSDOF 4
ENDMDL
MODEL 3
REMARK VINA RESULT:      -7.7      2.281      3.227
REMARK  Name = 165879
REMARK  4 active torsions:
REMARK  status: ('A' for Active; 'I' for Inactive)
REMARK    1  A    between atoms: C_1  and  O_12
REMARK    2  A    between atoms: C_3  and  N_9
REMARK    3  A    between atoms: C_4  and  O_10
REMARK    4  A    between atoms: O_12  and  S_13
REMARK                            x       y       z     vdW  Elec       q    Type
REMARK                         _______ _______ _______ _____ _____    ______ ____
ROOT
ATOM      1  C   UNL     1      37.872 -25.485 -14.041  0.00  0.00    +0.211 C 
ATOM      2  C   UNL     1      37.692 -24.575 -15.082  0.00  0.00    +0.067 C 
ATOM      3  C   UNL     1      36.676 -23.622 -15.010  0.00  0.00    +0.146 C 
ATOM      4  C   UNL     1      37.034 -25.441 -12.925  0.00  0.00    +0.171 C 
ATOM      5  C   UNL     1      35.840 -23.578 -13.893  0.00  0.00    +0.027 C 
ATOM      6  C   UNL     1      36.020 -24.487 -12.852  0.00  0.00    +0.042 C 
ENDROOT
BRANCH   3   9
ATOM      7  O   UNL     1      35.540 -22.867 -16.869  0.00  0.00    -0.126 OA
ATOM      8  O   UNL     1      37.288 -21.732 -16.180  0.00  0.00    -0.126 OA
ATOM      9  N   UNL     1      36.493 -22.696 -16.071  0.00  0.00    +0.058 N 
ENDBRANCH   3   9
BRANCH   4  10
ATOM     10  O   UNL     1      37.199 -26.323 -11.901  0.00  0.00    -0.503 OA
ATOM     11  H   UNL     1      36.911 -26.099 -11.038  0.00  0.00    +0.292 HD
ENDBRANCH   4  10
BRANCH   1  12
ATOM     12  O   UNL     1      38.866 -26.411 -14.125  0.00  0.00    -0.319 OA
BRANCH  12  13
ATOM     13  S   UNL     1      40.387 -25.914 -14.499  0.00  0.00    +0.282 S 
ATOM     14  O   UNL     1      41.349 -27.003 -13.755  0.00  0.00    -0.105 OA
ATOM     15  O   UNL     1      40.590 -26.043 -15.930  0.00  0.00    -0.012 OA
ATOM     16  O   UNL     1      40.602 -24.632 -13.851  0.00  0.00    -0.105 OA
ENDBRANCH  12  13
ENDBRANCH   1  12
TORSDOF 4
ENDMDL
MODEL 4
REMARK VINA RESULT:      -7.5      6.324      7.616
REMARK  Name = 165879
REMARK  4 active torsions:
REMARK  status: ('A' for Active; 'I' for Inactive)
REMARK    1  A    between atoms: C_1  and  O_12
REMARK    2  A    between atoms: C_3  and  N_9
REMARK    3  A    between atoms: C_4  and  O_10
REMARK    4  A    between atoms: O_12  and  S_13
REMARK                            x       y       z     vdW  Elec       q    Type
REMARK                         _______ _______ _______ _____ _____    ______ ____
ROOT
ATOM      1  C   UNL     1      31.840 -23.584 -15.004  0.00  0.00    +0.211 C 
ATOM      2  C   UNL     1      30.879 -23.098 -15.890  0.00  0.00    +0.067 C 
ATOM      3  C   UNL     1      29.634 -23.722 -15.980  0.00  0.00    +0.146 C 
ATOM      4  C   UNL     1      31.556 -24.695 -14.208  0.00  0.00    +0.171 C 
ATOM      5  C   UNL     1      29.351 -24.832 -15.183  0.00  0.00    +0.027 C 
ATOM      6  C   UNL     1      30.312 -25.317 -14.298  0.00  0.00    +0.042 C 
ENDROOT
BRANCH   3   9
ATOM      7  O   UNL     1      28.578 -21.989 -17.076  0.00  0.00    -0.126 OA
ATOM      8  O   UNL     1      27.895 -24.040 -17.460  0.00  0.00    -0.126 OA
ATOM      9  N   UNL     1      28.655 -23.227 -16.882  0.00  0.00    +0.058 N 
ENDBRANCH   3   9
BRANCH   4  10
ATOM     10  O   UNL     1      32.487 -25.180 -13.339  0.00  0.00    -0.503 OA
ATOM     11  H   UNL     1      32.221 -25.719 -12.621  0.00  0.00    +0.292 HD
ENDBRANCH   4  10
BRANCH   1  12
ATOM     12  O   UNL     1      33.052 -22.967 -14.926  0.00  0.00    -0.319 OA
BRANCH  12  13
ATOM     13  S   UNL     1      34.325 -23.608 -15.745  0.00  0.00    +0.282 S 
ATOM     14  O   UNL     1      35.501 -22.488 -15.579  0.00  0.00    -0.105 OA
ATOM     15  O   UNL     1      34.761 -24.817 -15.070  0.00  0.00    -0.012 OA
ATOM     16  O   UNL     1      33.965 -23.654 -17.151  0.00  0.00    -0.105 OA
ENDBRANCH  12  13
ENDBRANCH   1  12
TORSDOF 4
ENDMDL
MODEL 5
REMARK VINA RESULT:      -7.5     12.651     13.854
REMARK  Name = 165879
REMARK  4 active torsions:
REMARK  status: ('A' for Active; 'I' for Inactive)
REMARK    1  A    between atoms: C_1  and  O_12
REMARK    2  A    between atoms: C_3  and  N_9
REMARK    3  A    between atoms: C_4  and  O_10
REMARK    4  A    between atoms: O_12  and  S_13
REMARK                            x       y       z     vdW  Elec       q    Type
REMARK                         _______ _______ _______ _____ _____    ______ ____
ROOT
ATOM      1  C   UNL     1      34.900 -16.516 -23.533  0.00  0.00    +0.211 C 
ATOM      2  C   UNL     1      35.029 -17.161 -22.303  0.00  0.00    +0.067 C 
ATOM      3  C   UNL     1      35.003 -18.554 -22.239  0.00  0.00    +0.146 C 
ATOM      4  C   UNL     1      34.744 -17.266 -24.699  0.00  0.00    +0.171 C 
ATOM      5  C   UNL     1      34.847 -19.303 -23.406  0.00  0.00    +0.027 C 
ATOM      6  C   UNL     1      34.718 -18.658 -24.635  0.00  0.00    +0.042 C 
ENDROOT
BRANCH   3   9
ATOM      7  O   UNL     1      36.206 -19.088 -20.346  0.00  0.00    -0.126 OA
ATOM      8  O   UNL     1      34.175 -19.893 -20.555  0.00  0.00    -0.126 OA
ATOM      9  N   UNL     1      35.134 -19.210 -20.987  0.00  0.00    +0.058 N 
ENDBRANCH   3   9
BRANCH   4  10
ATOM     10  O   UNL     1      34.616 -16.648 -25.907  0.00  0.00    -0.503 OA
ATOM     11  H   UNL     1      35.377 -16.334 -26.355  0.00  0.00    +0.292 HD
ENDBRANCH   4  10
BRANCH   1  12
ATOM     12  O   UNL     1      34.927 -15.155 -23.581  0.00  0.00    -0.319 OA
BRANCH  12  13
ATOM     13  S   UNL     1      33.506 -14.333 -23.652  0.00  0.00    +0.282 S 
ATOM     14  O   UNL     1      33.946 -12.773 -23.456  0.00  0.00    -0.105 OA
ATOM     15  O   UNL     1      32.942 -14.475 -24.982  0.00  0.00    -0.012 OA
ATOM     16  O   UNL     1      32.722 -14.712 -22.490  0.00  0.00    -0.105 OA
ENDBRANCH  12  13
ENDBRANCH   1  12
TORSDOF 4
ENDMDL
MODEL 6
REMARK VINA RESULT:      -7.4      2.736      4.236
REMARK  Name = 165879
REMARK  4 active torsions:
REMARK  status: ('A' for Active; 'I' for Inactive)
REMARK    1  A    between atoms: C_1  and  O_12
REMARK    2  A    between atoms: C_3  and  N_9
REMARK    3  A    between atoms: C_4  and  O_10
REMARK    4  A    between atoms: O_12  and  S_13
REMARK                            x       y       z     vdW  Elec       q    Type
REMARK                         _______ _______ _______ _____ _____    ______ ____
ROOT
ATOM      1  C   UNL     1      36.139 -25.279 -14.773  0.00  0.00    +0.211 C 
ATOM      2  C   UNL     1      36.364 -24.492 -13.645  0.00  0.00    +0.067 C 
ATOM      3  C   UNL     1      37.479 -24.727 -12.841  0.00  0.00    +0.146 C 
ATOM      4  C   UNL     1      37.031 -26.303 -15.098  0.00  0.00    +0.171 C 
ATOM      5  C   UNL     1      38.371 -25.749 -13.166  0.00  0.00    +0.027 C 
ATOM      6  C   UNL     1      38.146 -26.537 -14.295  0.00  0.00    +0.042 C 
ENDROOT
BRANCH   3   9
ATOM      7  O   UNL     1      36.927 -24.026 -10.714  0.00  0.00    -0.126 OA
ATOM      8  O   UNL     1      38.684 -23.137 -11.684  0.00  0.00    -0.126 OA
ATOM      9  N   UNL     1      37.708 -23.925 -11.691  0.00  0.00    +0.058 N 
ENDBRANCH   3   9
BRANCH   4  10
ATOM     10  O   UNL     1      36.823 -27.079 -16.198  0.00  0.00    -0.503 OA
ATOM     11  H   UNL     1      36.981 -26.732 -17.054  0.00  0.00    +0.292 HD
ENDBRANCH   4  10
BRANCH   1  12
ATOM     12  O   UNL     1      35.046 -25.041 -15.549  0.00  0.00    -0.319 OA
BRANCH  12  13
ATOM     13  S   UNL     1      34.795 -23.523 -16.126  0.00  0.00    +0.282 S 
ATOM     14  O   UNL     1      33.940 -23.761 -17.497  0.00  0.00    -0.105 OA
ATOM     15  O   UNL     1      33.952 -22.795 -15.195  0.00  0.00    -0.012 OA
ATOM     16  O   UNL     1      36.086 -22.980 -16.509  0.00  0.00    -0.105 OA
ENDBRANCH  12  13
ENDBRANCH   1  12
TORSDOF 4
ENDMDL
MODEL 7
REMARK VINA RESULT:      -7.4      3.093      5.048
REMARK  Name = 165879
REMARK  4 active torsions:
REMARK  status: ('A' for Active; 'I' for Inactive)
REMARK    1  A    between atoms: C_1  and  O_12
REMARK    2  A    between atoms: C_3  and  N_9
REMARK    3  A    between atoms: C_4  and  O_10
REMARK    4  A    between atoms: O_12  and  S_13
REMARK                            x       y       z     vdW  Elec       q    Type
REMARK                         _______ _______ _______ _____ _____    ______ ____
ROOT
ATOM      1  C   UNL     1      36.706 -24.993 -14.709  0.00  0.00    +0.211 C 
ATOM      2  C   UNL     1      38.041 -25.168 -15.071  0.00  0.00    +0.067 C 
ATOM      3  C   UNL     1      38.994 -25.476 -14.099  0.00  0.00    +0.146 C 
ATOM      4  C   UNL     1      36.324 -25.126 -13.373  0.00  0.00    +0.171 C 
ATOM      5  C   UNL     1      38.610 -25.609 -12.765  0.00  0.00    +0.027 C 
ATOM      6  C   UNL     1      37.275 -25.434 -12.403  0.00  0.00    +0.042 C 
ENDROOT
BRANCH   3   9
ATOM      7  O   UNL     1      40.773 -26.813 -14.703  0.00  0.00    -0.126 OA
ATOM      8  O   UNL     1      41.098 -24.648 -14.551  0.00  0.00    -0.126 OA
ATOM      9  N   UNL     1      40.354 -25.654 -14.469  0.00  0.00    +0.058 N 
ENDBRANCH   3   9
BRANCH   4  10
ATOM     10  O   UNL     1      35.022 -24.957 -13.007  0.00  0.00    -0.503 OA
ATOM     11  H   UNL     1      34.525 -25.687 -12.694  0.00  0.00    +0.292 HD
ENDBRANCH   4  10
BRANCH   1  12
ATOM     12  O   UNL     1      35.787 -24.692 -15.667  0.00  0.00    -0.319 OA
BRANCH  12  13
ATOM     13  S   UNL     1      35.290 -23.135 -15.832  0.00  0.00    +0.282 S 
ATOM     14  O   UNL     1      34.894 -23.015 -17.411  0.00  0.00    -0.105 OA
ATOM     15  O   UNL     1      34.081 -22.938 -15.052  0.00  0.00    -0.012 OA
ATOM     16  O   UNL     1      36.442 -22.280 -15.608  0.00  0.00    -0.105 OA
ENDBRANCH  12  13
ENDBRANCH   1  12
TORSDOF 4
ENDMDL
MODEL 8
REMARK VINA RESULT:      -7.2     12.719     14.016
REMARK  Name = 165879
REMARK  4 active torsions:
REMARK  status: ('A' for Active; 'I' for Inactive)
REMARK    1  A    between atoms: C_1  and  O_12
REMARK    2  A    between atoms: C_3  and  N_9
REMARK    3  A    between atoms: C_4  and  O_10
REMARK    4  A    between atoms: O_12  and  S_13
REMARK                            x       y       z     vdW  Elec       q    Type
REMARK                         _______ _______ _______ _____ _____    ______ ____
ROOT
ATOM      1  C   UNL     1      34.882 -16.370 -22.299  0.00  0.00    +0.211 C 
ATOM      2  C   UNL     1      34.505 -16.319 -23.640  0.00  0.00    +0.067 C 
ATOM      3  C   UNL     1      33.754 -15.244 -24.114  0.00  0.00    +0.146 C 
ATOM      4  C   UNL     1      34.507 -15.344 -21.430  0.00  0.00    +0.171 C 
ATOM      5  C   UNL     1      33.380 -14.218 -23.245  0.00  0.00    +0.027 C 
ATOM      6  C   UNL     1      33.757 -14.269 -21.904  0.00  0.00    +0.042 C 
ENDROOT
BRANCH   3   9
ATOM      7  O   UNL     1      33.816 -16.060 -26.270  0.00  0.00    -0.126 OA
ATOM      8  O   UNL     1      32.595 -14.283 -25.860  0.00  0.00    -0.126 OA
ATOM      9  N   UNL     1      33.370 -15.193 -25.480  0.00  0.00    +0.058 N 
ENDBRANCH   3   9
BRANCH   4  10
ATOM     10  O   UNL     1      34.869 -15.382 -20.117  0.00  0.00    -0.503 OA
ATOM     11  H   UNL     1      35.068 -14.587 -19.663  0.00  0.00    +0.292 HD
ENDBRANCH   4  10
BRANCH   1  12
ATOM     12  O   UNL     1      35.615 -17.426 -21.848  0.00  0.00    -0.319 OA
BRANCH  12  13
ATOM     13  S   UNL     1      34.855 -18.852 -21.550  0.00  0.00    +0.282 S 
ATOM     14  O   UNL     1      35.785 -19.560 -20.410  0.00  0.00    -0.105 OA
ATOM     15  O   UNL     1      33.556 -18.583 -20.962  0.00  0.00    -0.012 OA
ATOM     16  O   UNL     1      34.952 -19.661 -22.752  0.00  0.00    -0.105 OA
ENDBRANCH  12  13
ENDBRANCH   1  12
TORSDOF 4
ENDMDL
MODEL 9
REMARK VINA RESULT:      -7.1      3.875      6.193
REMARK  Name = 165879
REMARK  4 active torsions:
REMARK  status: ('A' for Active; 'I' for Inactive)
REMARK    1  A    between atoms: C_1  and  O_12
REMARK    2  A    between atoms: C_3  and  N_9
REMARK    3  A    between atoms: C_4  and  O_10
REMARK    4  A    between atoms: O_12  and  S_13
REMARK                            x       y       z     vdW  Elec       q    Type
REMARK                         _______ _______ _______ _____ _____    ______ ____
ROOT
ATOM      1  C   UNL     1      34.760 -24.334 -14.005  0.00  0.00    +0.211 C 
ATOM      2  C   UNL     1      35.488 -25.178 -14.843  0.00  0.00    +0.067 C 
ATOM      3  C   UNL     1      36.553 -25.921 -14.332  0.00  0.00    +0.146 C 
ATOM      4  C   UNL     1      35.097 -24.233 -12.654  0.00  0.00    +0.171 C 
ATOM      5  C   UNL     1      36.888 -25.820 -12.981  0.00  0.00    +0.027 C 
ATOM      6  C   UNL     1      36.160 -24.976 -12.143  0.00  0.00    +0.042 C 
ENDROOT
BRANCH   3   9
ATOM      7  O   UNL     1      36.726 -27.281 -16.186  0.00  0.00    -0.126 OA
ATOM      8  O   UNL     1      38.497 -27.013 -14.917  0.00  0.00    -0.126 OA
ATOM      9  N   UNL     1      37.294 -26.780 -15.186  0.00  0.00    +0.058 N 
ENDBRANCH   3   9
BRANCH   4  10
ATOM     10  O   UNL     1      34.393 -23.413 -11.825  0.00  0.00    -0.503 OA
ATOM     11  H   UNL     1      34.771 -23.129 -11.015  0.00  0.00    +0.292 HD
ENDBRANCH   4  10
BRANCH   1  12
ATOM     12  O   UNL     1      33.724 -23.614 -14.516  0.00  0.00    -0.319 OA
BRANCH  12  13
ATOM     13  S   UNL     1      32.186 -24.040 -14.120  0.00  0.00    +0.282 S 
ATOM     14  O   UNL     1      31.309 -23.598 -15.425  0.00  0.00    -0.105 OA
ATOM     15  O   UNL     1      32.111 -25.484 -14.000  0.00  0.00    -0.012 OA
ATOM     16  O   UNL     1      31.769 -23.199 -13.012  0.00  0.00    -0.105 OA
ENDBRANCH  12  13
ENDBRANCH   1  12
TORSDOF 4
ENDMDL
