MODEL 1
REMARK VINA RESULT:      -6.9      0.000      0.000
REMARK  Name = 24860535
REMARK  10 active torsions:
REMARK  status: ('A' for Active; 'I' for Inactive)
REMARK    1  A    between atoms: N_2  and  CA_5
REMARK    2  A    between atoms: C_3  and  C_14
REMARK    3  A    between atoms: CA_5  and  C_7
REMARK    4  A    between atoms: CA_5  and  C_10
REMARK    5  A    between atoms: C_7  and  O_8
REMARK    6  A    between atoms: C_10  and  C_11
REMARK    7  A    between atoms: C_11  and  O_12
REMARK    8  A    between atoms: C_14  and  C_15
REMARK    9  A    between atoms: C_15  and  C_16
REMARK   10  A    between atoms: C_16  and  C_17
REMARK                            x       y       z     vdW  Elec       q    Type
REMARK                         _______ _______ _______ _____ _____    ______ ____
ROOT
ATOM      1  O   UNL     1      37.432 -22.849 -13.893  0.00  0.00    -0.275 OA
ATOM      2  N   UNL     1      38.142 -24.398 -15.466  0.00  0.00    -0.297 N 
ATOM      3  C   UNL     1      37.533 -23.220 -15.059  0.00  0.00    +0.223 C 
ATOM      4  H   UNL     1      38.173 -24.611 -16.428  0.00  0.00    +0.150 HD
ENDROOT
BRANCH   2   5
ATOM      5  CA  UNL     1      38.730 -25.322 -14.527  0.00  0.00    +0.174 C 
BRANCH   5   7
ATOM      6  OXT UNL     1      41.043 -25.912 -14.124  0.00  0.00    -0.248 OA
ATOM      7  C   UNL     1      40.137 -25.740 -14.931  0.00  0.00    +0.332 C 
BRANCH   7   8
ATOM      8  O   UNL     1      40.326 -25.856 -16.267  0.00  0.00    -0.479 OA
ATOM      9  H   UNL     1      40.647 -25.125 -16.760  0.00  0.00    +0.295 HD
ENDBRANCH   7   8
ENDBRANCH   5   7
BRANCH   5  10
ATOM     10  C   UNL     1      37.821 -26.528 -14.278  0.00  0.00    +0.063 C 
BRANCH  10  11
ATOM     11  C   UNL     1      36.617 -26.609 -15.213  0.00  0.00    +0.139 C 
BRANCH  11  12
ATOM     12  O   UNL     1      36.995 -27.333 -16.378  0.00  0.00    -0.382 OA
ATOM     13  H   UNL     1      37.960 -27.304 -16.477  0.00  0.00    +0.210 HD
ENDBRANCH  11  12
ENDBRANCH  10  11
ENDBRANCH   5  10
ENDBRANCH   2   5
BRANCH   3  14
ATOM     14  C   UNL     1      37.020 -22.415 -16.241  0.00  0.00    +0.085 C 
BRANCH  14  15
ATOM     15  C   UNL     1      35.609 -22.800 -16.682  0.00  0.00    +0.010 C 
BRANCH  15  16
ATOM     16  C   UNL     1      35.237 -22.201 -18.042  0.00  0.00    +0.001 C 
BRANCH  16  17
ATOM     17  C   UNL     1      36.426 -21.474 -18.670  0.00  0.00    +0.000 C 
ATOM     18  C   UNL     1      36.092 -20.958 -20.061  0.00  0.00    +0.000 C 
ENDBRANCH  16  17
ENDBRANCH  15  16
ENDBRANCH  14  15
ENDBRANCH   3  14
TORSDOF 10
ENDMDL
MODEL 2
REMARK VINA RESULT:      -6.5      9.623     12.794
REMARK  Name = 24860535
REMARK  10 active torsions:
REMARK  status: ('A' for Active; 'I' for Inactive)
REMARK    1  A    between atoms: N_2  and  CA_5
REMARK    2  A    between atoms: C_3  and  C_14
REMARK    3  A    between atoms: CA_5  and  C_7
REMARK    4  A    between atoms: CA_5  and  C_10
REMARK    5  A    between atoms: C_7  and  O_8
REMARK    6  A    between atoms: C_10  and  C_11
REMARK    7  A    between atoms: C_11  and  O_12
REMARK    8  A    between atoms: C_14  and  C_15
REMARK    9  A    between atoms: C_15  and  C_16
REMARK   10  A    between atoms: C_16  and  C_17
REMARK                            x       y       z     vdW  Elec       q    Type
REMARK                         _______ _______ _______ _____ _____    ______ ____
ROOT
ATOM      1  O   UNL     1      33.089 -15.752 -21.411  0.00  0.00    -0.275 OA
ATOM      2  N   UNL     1      34.358 -15.649 -23.349  0.00  0.00    -0.297 N 
ATOM      3  C   UNL     1      34.089 -16.060 -22.052  0.00  0.00    +0.223 C 
ATOM      4  H   UNL     1      35.190 -15.949 -23.783  0.00  0.00    +0.150 HD
ENDROOT
BRANCH   2   5
ATOM      5  CA  UNL     1      33.457 -14.794 -24.085  0.00  0.00    +0.174 C 
BRANCH   5   7
ATOM      6  OXT UNL     1      34.049 -16.048 -26.069  0.00  0.00    -0.248 OA
ATOM      7  C   UNL     1      33.322 -15.214 -25.542  0.00  0.00    +0.332 C 
BRANCH   7   8
ATOM      8  O   UNL     1      32.364 -14.549 -26.231  0.00  0.00    -0.479 OA
ATOM      9  H   UNL     1      31.951 -13.796 -25.853  0.00  0.00    +0.295 HD
ENDBRANCH   7   8
ENDBRANCH   5   7
BRANCH   5  10
ATOM     10  C   UNL     1      33.841 -13.319 -23.945  0.00  0.00    +0.063 C 
BRANCH  10  11
ATOM     11  C   UNL     1      32.856 -12.489 -23.125  0.00  0.00    +0.139 C 
BRANCH  11  12
ATOM     12  O   UNL     1      31.893 -13.364 -22.550  0.00  0.00    -0.382 OA
ATOM     13  H   UNL     1      31.795 -13.161 -21.606  0.00  0.00    +0.210 HD
ENDBRANCH  11  12
ENDBRANCH  10  11
ENDBRANCH   5  10
ENDBRANCH   2   5
BRANCH   3  14
ATOM     14  C   UNL     1      35.178 -16.974 -21.516  0.00  0.00    +0.085 C 
BRANCH  14  15
ATOM     15  C   UNL     1      35.497 -18.155 -22.431  0.00  0.00    +0.010 C 
BRANCH  15  16
ATOM     16  C   UNL     1      34.477 -19.290 -22.296  0.00  0.00    +0.001 C 
BRANCH  16  17
ATOM     17  C   UNL     1      34.310 -19.714 -20.837  0.00  0.00    +0.000 C 
ATOM     18  C   UNL     1      32.873 -20.108 -20.533  0.00  0.00    +0.000 C 
ENDBRANCH  16  17
ENDBRANCH  15  16
ENDBRANCH  14  15
ENDBRANCH   3  14
TORSDOF 10
ENDMDL
MODEL 3
REMARK VINA RESULT:      -6.5      2.011      2.743
REMARK  Name = 24860535
REMARK  10 active torsions:
REMARK  status: ('A' for Active; 'I' for Inactive)
REMARK    1  A    between atoms: N_2  and  CA_5
REMARK    2  A    between atoms: C_3  and  C_14
REMARK    3  A    between atoms: CA_5  and  C_7
REMARK    4  A    between atoms: CA_5  and  C_10
REMARK    5  A    between atoms: C_7  and  O_8
REMARK    6  A    between atoms: C_10  and  C_11
REMARK    7  A    between atoms: C_11  and  O_12
REMARK    8  A    between atoms: C_14  and  C_15
REMARK    9  A    between atoms: C_15  and  C_16
REMARK   10  A    between atoms: C_16  and  C_17
REMARK                            x       y       z     vdW  Elec       q    Type
REMARK                         _______ _______ _______ _____ _____    ______ ____
ROOT
ATOM      1  O   UNL     1      38.323 -23.096 -15.809  0.00  0.00    -0.275 OA
ATOM      2  N   UNL     1      36.440 -24.150 -14.961  0.00  0.00    -0.297 N 
ATOM      3  C   UNL     1      37.104 -23.228 -15.757  0.00  0.00    +0.223 C 
ATOM      4  H   UNL     1      35.455 -24.181 -14.987  0.00  0.00    +0.150 HD
ENDROOT
BRANCH   2   5
ATOM      5  CA  UNL     1      37.145 -25.065 -14.095  0.00  0.00    +0.174 C 
BRANCH   5   7
ATOM      6  OXT UNL     1      38.174 -27.168 -14.708  0.00  0.00    -0.248 OA
ATOM      7  C   UNL     1      37.158 -26.485 -14.643  0.00  0.00    +0.332 C 
BRANCH   7   8
ATOM      8  O   UNL     1      35.962 -26.919 -15.108  0.00  0.00    -0.479 OA
ATOM      9  H   UNL     1      35.586 -26.527 -15.872  0.00  0.00    +0.295 HD
ENDBRANCH   7   8
ENDBRANCH   5   7
BRANCH   5  10
ATOM     10  C   UNL     1      36.612 -25.007 -12.662  0.00  0.00    +0.063 C 
BRANCH  10  11
ATOM     11  C   UNL     1      35.282 -24.273 -12.515  0.00  0.00    +0.139 C 
BRANCH  11  12
ATOM     12  O   UNL     1      34.307 -24.937 -13.311  0.00  0.00    -0.382 OA
ATOM     13  H   UNL     1      33.451 -24.918 -12.855  0.00  0.00    +0.210 HD
ENDBRANCH  11  12
ENDBRANCH  10  11
ENDBRANCH   5  10
ENDBRANCH   2   5
BRANCH   3  14
ATOM     14  C   UNL     1      36.136 -22.406 -16.591  0.00  0.00    +0.085 C 
BRANCH  14  15
ATOM     15  C   UNL     1      36.812 -21.590 -17.691  0.00  0.00    +0.010 C 
BRANCH  15  16
ATOM     16  C   UNL     1      36.031 -21.624 -19.008  0.00  0.00    +0.001 C 
BRANCH  16  17
ATOM     17  C   UNL     1      34.628 -22.195 -18.806  0.00  0.00    +0.000 C 
ATOM     18  C   UNL     1      33.584 -21.392 -19.567  0.00  0.00    +0.000 C 
ENDBRANCH  16  17
ENDBRANCH  15  16
ENDBRANCH  14  15
ENDBRANCH   3  14
TORSDOF 10
ENDMDL
MODEL 4
REMARK VINA RESULT:      -6.4      1.739      2.662
REMARK  Name = 24860535
REMARK  10 active torsions:
REMARK  status: ('A' for Active; 'I' for Inactive)
REMARK    1  A    between atoms: N_2  and  CA_5
REMARK    2  A    between atoms: C_3  and  C_14
REMARK    3  A    between atoms: CA_5  and  C_7
REMARK    4  A    between atoms: CA_5  and  C_10
REMARK    5  A    between atoms: C_7  and  O_8
REMARK    6  A    between atoms: C_10  and  C_11
REMARK    7  A    between atoms: C_11  and  O_12
REMARK    8  A    between atoms: C_14  and  C_15
REMARK    9  A    between atoms: C_15  and  C_16
REMARK   10  A    between atoms: C_16  and  C_17
REMARK                            x       y       z     vdW  Elec       q    Type
REMARK                         _______ _______ _______ _____ _____    ______ ____
ROOT
ATOM      1  O   UNL     1      35.596 -24.028 -15.695  0.00  0.00    -0.275 OA
ATOM      2  N   UNL     1      37.512 -23.403 -14.546  0.00  0.00    -0.297 N 
ATOM      3  C   UNL     1      36.579 -23.303 -15.568  0.00  0.00    +0.223 C 
ATOM      4  H   UNL     1      38.270 -22.774 -14.529  0.00  0.00    +0.150 HD
ENDROOT
BRANCH   2   5
ATOM      5  CA  UNL     1      37.408 -24.401 -13.508  0.00  0.00    +0.174 C 
BRANCH   5   7
ATOM      6  OXT UNL     1      37.425 -24.433 -11.088  0.00  0.00    -0.248 OA
ATOM      7  C   UNL     1      37.662 -23.822 -12.123  0.00  0.00    +0.332 C 
BRANCH   7   8
ATOM      8  O   UNL     1      38.122 -22.548 -12.123  0.00  0.00    -0.479 OA
ATOM      9  H   UNL     1      38.773 -22.285 -11.501  0.00  0.00    +0.295 HD
ENDBRANCH   7   8
ENDBRANCH   5   7
BRANCH   5  10
ATOM     10  C   UNL     1      38.300 -25.610 -13.798  0.00  0.00    +0.063 C 
BRANCH  10  11
ATOM     11  C   UNL     1      37.561 -26.808 -14.390  0.00  0.00    +0.139 C 
BRANCH  11  12
ATOM     12  O   UNL     1      37.323 -26.557 -15.770  0.00  0.00    -0.382 OA
ATOM     13  H   UNL     1      38.125 -26.759 -16.278  0.00  0.00    +0.210 HD
ENDBRANCH  11  12
ENDBRANCH  10  11
ENDBRANCH   5  10
ENDBRANCH   2   5
BRANCH   3  14
ATOM     14  C   UNL     1      36.901 -22.158 -16.513  0.00  0.00    +0.085 C 
BRANCH  14  15
ATOM     15  C   UNL     1      35.965 -22.071 -17.716  0.00  0.00    +0.010 C 
BRANCH  15  16
ATOM     16  C   UNL     1      36.593 -21.316 -18.892  0.00  0.00    +0.001 C 
BRANCH  16  17
ATOM     17  C   UNL     1      35.566 -21.053 -19.993  0.00  0.00    +0.000 C 
ATOM     18  C   UNL     1      34.167 -21.461 -19.561  0.00  0.00    +0.000 C 
ENDBRANCH  16  17
ENDBRANCH  15  16
ENDBRANCH  14  15
ENDBRANCH   3  14
TORSDOF 10
ENDMDL
MODEL 5
REMARK VINA RESULT:      -6.4      7.226     10.639
REMARK  Name = 24860535
REMARK  10 active torsions:
REMARK  status: ('A' for Active; 'I' for Inactive)
REMARK    1  A    between atoms: N_2  and  CA_5
REMARK    2  A    between atoms: C_3  and  C_14
REMARK    3  A    between atoms: CA_5  and  C_7
REMARK    4  A    between atoms: CA_5  and  C_10
REMARK    5  A    between atoms: C_7  and  O_8
REMARK    6  A    between atoms: C_10  and  C_11
REMARK    7  A    between atoms: C_11  and  O_12
REMARK    8  A    between atoms: C_14  and  C_15
REMARK    9  A    between atoms: C_15  and  C_16
REMARK   10  A    between atoms: C_16  and  C_17
REMARK                            x       y       z     vdW  Elec       q    Type
REMARK                         _______ _______ _______ _____ _____    ______ ____
ROOT
ATOM      1  O   UNL     1      35.715 -17.986 -20.571  0.00  0.00    -0.275 OA
ATOM      2  N   UNL     1      34.287 -17.334 -22.278  0.00  0.00    -0.297 N 
ATOM      3  C   UNL     1      34.862 -18.253 -21.413  0.00  0.00    +0.223 C 
ATOM      4  H   UNL     1      33.608 -17.645 -22.921  0.00  0.00    +0.150 HD
ENDROOT
BRANCH   2   5
ATOM      5  CA  UNL     1      34.651 -15.938 -22.267  0.00  0.00    +0.174 C 
BRANCH   5   7
ATOM      6  OXT UNL     1      32.957 -14.753 -21.008  0.00  0.00    -0.248 OA
ATOM      7  C   UNL     1      34.096 -15.205 -21.054  0.00  0.00    +0.332 C 
BRANCH   7   8
ATOM      8  O   UNL     1      34.982 -15.041 -20.043  0.00  0.00    -0.479 OA
ATOM      9  H   UNL     1      34.680 -14.794 -19.190  0.00  0.00    +0.295 HD
ENDBRANCH   7   8
ENDBRANCH   5   7
BRANCH   5  10
ATOM     10  C   UNL     1      34.273 -15.247 -23.579  0.00  0.00    +0.063 C 
BRANCH  10  11
ATOM     11  C   UNL     1      34.137 -16.193 -24.770  0.00  0.00    +0.139 C 
BRANCH  11  12
ATOM     12  O   UNL     1      35.332 -16.957 -24.881  0.00  0.00    -0.382 OA
ATOM     13  H   UNL     1      36.063 -16.377 -25.146  0.00  0.00    +0.210 HD
ENDBRANCH  11  12
ENDBRANCH  10  11
ENDBRANCH   5  10
ENDBRANCH   2   5
BRANCH   3  14
ATOM     14  C   UNL     1      34.286 -19.646 -21.608  0.00  0.00    +0.085 C 
BRANCH  14  15
ATOM     15  C   UNL     1      33.314 -20.070 -20.509  0.00  0.00    +0.010 C 
BRANCH  15  16
ATOM     16  C   UNL     1      33.875 -21.196 -19.635  0.00  0.00    +0.001 C 
BRANCH  16  17
ATOM     17  C   UNL     1      35.331 -21.499 -19.989  0.00  0.00    +0.000 C 
ATOM     18  C   UNL     1      36.215 -21.507 -18.751  0.00  0.00    +0.000 C 
ENDBRANCH  16  17
ENDBRANCH  15  16
ENDBRANCH  14  15
ENDBRANCH   3  14
TORSDOF 10
ENDMDL
MODEL 6
REMARK VINA RESULT:      -6.3      2.350      3.224
REMARK  Name = 24860535
REMARK  10 active torsions:
REMARK  status: ('A' for Active; 'I' for Inactive)
REMARK    1  A    between atoms: N_2  and  CA_5
REMARK    2  A    between atoms: C_3  and  C_14
REMARK    3  A    between atoms: CA_5  and  C_7
REMARK    4  A    between atoms: CA_5  and  C_10
REMARK    5  A    between atoms: C_7  and  O_8
REMARK    6  A    between atoms: C_10  and  C_11
REMARK    7  A    between atoms: C_11  and  O_12
REMARK    8  A    between atoms: C_14  and  C_15
REMARK    9  A    between atoms: C_15  and  C_16
REMARK   10  A    between atoms: C_16  and  C_17
REMARK                            x       y       z     vdW  Elec       q    Type
REMARK                         _______ _______ _______ _____ _____    ______ ____
ROOT
ATOM      1  O   UNL     1      36.343 -23.116 -16.308  0.00  0.00    -0.275 OA
ATOM      2  N   UNL     1      35.449 -24.656 -14.822  0.00  0.00    -0.297 N 
ATOM      3  C   UNL     1      35.376 -23.637 -15.759  0.00  0.00    +0.223 C 
ATOM      4  H   UNL     1      34.615 -25.010 -14.435  0.00  0.00    +0.150 HD
ENDROOT
BRANCH   2   5
ATOM      5  CA  UNL     1      36.709 -25.214 -14.392  0.00  0.00    +0.174 C 
BRANCH   5   7
ATOM      6  OXT UNL     1      36.349 -26.975 -16.014  0.00  0.00    -0.248 OA
ATOM      7  C   UNL     1      37.045 -26.509 -15.118  0.00  0.00    +0.332 C 
BRANCH   7   8
ATOM      8  O   UNL     1      38.150 -27.142 -14.656  0.00  0.00    -0.479 OA
ATOM      9  H   UNL     1      38.611 -26.798 -13.915  0.00  0.00    +0.295 HD
ENDBRANCH   7   8
ENDBRANCH   5   7
BRANCH   5  10
ATOM     10  C   UNL     1      36.765 -25.375 -12.872  0.00  0.00    +0.063 C 
BRANCH  10  11
ATOM     11  C   UNL     1      35.870 -24.405 -12.104  0.00  0.00    +0.139 C 
BRANCH  11  12
ATOM     12  O   UNL     1      34.550 -24.935 -12.069  0.00  0.00    -0.382 OA
ATOM     13  H   UNL     1      34.259 -25.016 -11.146  0.00  0.00    +0.210 HD
ENDBRANCH  11  12
ENDBRANCH  10  11
ENDBRANCH   5  10
ENDBRANCH   2   5
BRANCH   3  14
ATOM     14  C   UNL     1      33.937 -23.250 -16.056  0.00  0.00    +0.085 C 
BRANCH  14  15
ATOM     15  C   UNL     1      33.490 -23.586 -17.478  0.00  0.00    +0.010 C 
BRANCH  15  16
ATOM     16  C   UNL     1      32.927 -22.368 -18.217  0.00  0.00    +0.001 C 
BRANCH  16  17
ATOM     17  C   UNL     1      33.898 -21.873 -19.288  0.00  0.00    +0.000 C 
ATOM     18  C   UNL     1      33.331 -20.684 -20.048  0.00  0.00    +0.000 C 
ENDBRANCH  16  17
ENDBRANCH  15  16
ENDBRANCH  14  15
ENDBRANCH   3  14
TORSDOF 10
ENDMDL
MODEL 7
REMARK VINA RESULT:      -6.3      3.464      4.527
REMARK  Name = 24860535
REMARK  10 active torsions:
REMARK  status: ('A' for Active; 'I' for Inactive)
REMARK    1  A    between atoms: N_2  and  CA_5
REMARK    2  A    between atoms: C_3  and  C_14
REMARK    3  A    between atoms: CA_5  and  C_7
REMARK    4  A    between atoms: CA_5  and  C_10
REMARK    5  A    between atoms: C_7  and  O_8
REMARK    6  A    between atoms: C_10  and  C_11
REMARK    7  A    between atoms: C_11  and  O_12
REMARK    8  A    between atoms: C_14  and  C_15
REMARK    9  A    between atoms: C_15  and  C_16
REMARK   10  A    between atoms: C_16  and  C_17
REMARK                            x       y       z     vdW  Elec       q    Type
REMARK                         _______ _______ _______ _____ _____    ______ ____
ROOT
ATOM      1  O   UNL     1      35.143 -23.762 -16.147  0.00  0.00    -0.275 OA
ATOM      2  N   UNL     1      35.708 -25.096 -14.335  0.00  0.00    -0.297 N 
ATOM      3  C   UNL     1      34.840 -24.335 -15.104  0.00  0.00    +0.223 C 
ATOM      4  H   UNL     1      35.371 -25.517 -13.511  0.00  0.00    +0.150 HD
ENDROOT
BRANCH   2   5
ATOM      5  CA  UNL     1      37.090 -25.289 -14.703  0.00  0.00    +0.174 C 
BRANCH   5   7
ATOM      6  OXT UNL     1      38.207 -27.433 -14.589  0.00  0.00    -0.248 OA
ATOM      7  C   UNL     1      37.377 -26.718 -15.140  0.00  0.00    +0.332 C 
BRANCH   7   8
ATOM      8  O   UNL     1      36.680 -27.124 -16.228  0.00  0.00    -0.479 OA
ATOM      9  H   UNL     1      37.053 -27.038 -17.083  0.00  0.00    +0.295 HD
ENDBRANCH   7   8
ENDBRANCH   5   7
BRANCH   5  10
ATOM     10  C   UNL     1      38.038 -24.824 -13.595  0.00  0.00    +0.063 C 
BRANCH  10  11
ATOM     11  C   UNL     1      37.446 -24.902 -12.190  0.00  0.00    +0.139 C 
BRANCH  11  12
ATOM     12  O   UNL     1      37.139 -26.261 -11.901  0.00  0.00    -0.382 OA
ATOM     13  H   UNL     1      37.735 -26.587 -11.207  0.00  0.00    +0.210 HD
ENDBRANCH  11  12
ENDBRANCH  10  11
ENDBRANCH   5  10
ENDBRANCH   2   5
BRANCH   3  14
ATOM     14  C   UNL     1      33.440 -24.312 -14.514  0.00  0.00    +0.085 C 
BRANCH  14  15
ATOM     15  C   UNL     1      32.430 -23.534 -15.355  0.00  0.00    +0.010 C 
BRANCH  15  16
ATOM     16  C   UNL     1      31.306 -22.928 -14.508  0.00  0.00    +0.001 C 
BRANCH  16  17
ATOM     17  C   UNL     1      30.421 -24.016 -13.902  0.00  0.00    +0.000 C 
ATOM     18  C   UNL     1      29.908 -24.975 -14.965  0.00  0.00    +0.000 C 
ENDBRANCH  16  17
ENDBRANCH  15  16
ENDBRANCH  14  15
ENDBRANCH   3  14
TORSDOF 10
ENDMDL
MODEL 8
REMARK VINA RESULT:      -6.3      6.982     10.061
REMARK  Name = 24860535
REMARK  10 active torsions:
REMARK  status: ('A' for Active; 'I' for Inactive)
REMARK    1  A    between atoms: N_2  and  CA_5
REMARK    2  A    between atoms: C_3  and  C_14
REMARK    3  A    between atoms: CA_5  and  C_7
REMARK    4  A    between atoms: CA_5  and  C_10
REMARK    5  A    between atoms: C_7  and  O_8
REMARK    6  A    between atoms: C_10  and  C_11
REMARK    7  A    between atoms: C_11  and  O_12
REMARK    8  A    between atoms: C_14  and  C_15
REMARK    9  A    between atoms: C_15  and  C_16
REMARK   10  A    between atoms: C_16  and  C_17
REMARK                            x       y       z     vdW  Elec       q    Type
REMARK                         _______ _______ _______ _____ _____    ______ ____
ROOT
ATOM      1  O   UNL     1      34.527 -19.777 -21.770  0.00  0.00    -0.275 OA
ATOM      2  N   UNL     1      35.481 -17.834 -20.938  0.00  0.00    -0.297 N 
ATOM      3  C   UNL     1      35.366 -19.209 -21.076  0.00  0.00    +0.223 C 
ATOM      4  H   UNL     1      36.188 -17.470 -20.356  0.00  0.00    +0.150 HD
ENDROOT
BRANCH   2   5
ATOM      5  CA  UNL     1      34.598 -16.918 -21.620  0.00  0.00    +0.174 C 
BRANCH   5   7
ATOM      6  OXT UNL     1      35.088 -15.328 -23.379  0.00  0.00    -0.248 OA
ATOM      7  C   UNL     1      35.148 -16.483 -22.971  0.00  0.00    +0.332 C 
BRANCH   7   8
ATOM      8  O   UNL     1      35.664 -17.488 -23.718  0.00  0.00    -0.479 OA
ATOM      9  H   UNL     1      35.275 -18.341 -23.688  0.00  0.00    +0.295 HD
ENDBRANCH   7   8
ENDBRANCH   5   7
BRANCH   5  10
ATOM     10  C   UNL     1      34.235 -15.723 -20.736  0.00  0.00    +0.063 C 
BRANCH  10  11
ATOM     11  C   UNL     1      32.736 -15.444 -20.642  0.00  0.00    +0.139 C 
BRANCH  11  12
ATOM     12  O   UNL     1      32.298 -14.898 -21.880  0.00  0.00    -0.382 OA
ATOM     13  H   UNL     1      31.523 -15.391 -22.194  0.00  0.00    +0.210 HD
ENDBRANCH  11  12
ENDBRANCH  10  11
ENDBRANCH   5  10
ENDBRANCH   2   5
BRANCH   3  14
ATOM     14  C   UNL     1      36.429 -19.945 -20.278  0.00  0.00    +0.085 C 
BRANCH  14  15
ATOM     15  C   UNL     1      36.176 -21.446 -20.152  0.00  0.00    +0.010 C 
BRANCH  15  16
ATOM     16  C   UNL     1      35.446 -21.808 -18.855  0.00  0.00    +0.001 C 
BRANCH  16  17
ATOM     17  C   UNL     1      33.979 -22.146 -19.120  0.00  0.00    +0.000 C 
ATOM     18  C   UNL     1      33.377 -22.948 -17.976  0.00  0.00    +0.000 C 
ENDBRANCH  16  17
ENDBRANCH  15  16
ENDBRANCH  14  15
ENDBRANCH   3  14
TORSDOF 10
ENDMDL
MODEL 9
REMARK VINA RESULT:      -6.2     10.228     13.398
REMARK  Name = 24860535
REMARK  10 active torsions:
REMARK  status: ('A' for Active; 'I' for Inactive)
REMARK    1  A    between atoms: N_2  and  CA_5
REMARK    2  A    between atoms: C_3  and  C_14
REMARK    3  A    between atoms: CA_5  and  C_7
REMARK    4  A    between atoms: CA_5  and  C_10
REMARK    5  A    between atoms: C_7  and  O_8
REMARK    6  A    between atoms: C_10  and  C_11
REMARK    7  A    between atoms: C_11  and  O_12
REMARK    8  A    between atoms: C_14  and  C_15
REMARK    9  A    between atoms: C_15  and  C_16
REMARK   10  A    between atoms: C_16  and  C_17
REMARK                            x       y       z     vdW  Elec       q    Type
REMARK                         _______ _______ _______ _____ _____    ______ ____
ROOT
ATOM      1  O   UNL     1      35.383 -15.830 -23.496  0.00  0.00    -0.275 OA
ATOM      2  N   UNL     1      33.794 -14.250 -22.899  0.00  0.00    -0.297 N 
ATOM      3  C   UNL     1      34.600 -15.357 -22.677  0.00  0.00    +0.223 C 
ATOM      4  H   UNL     1      33.195 -13.944 -22.178  0.00  0.00    +0.150 HD
ENDROOT
BRANCH   2   5
ATOM      5  CA  UNL     1      33.803 -13.533 -24.151  0.00  0.00    +0.174 C 
BRANCH   5   7
ATOM      6  OXT UNL     1      32.850 -11.492 -23.265  0.00  0.00    -0.248 OA
ATOM      7  C   UNL     1      33.711 -12.026 -23.955  0.00  0.00    +0.332 C 
BRANCH   7   8
ATOM      8  O   UNL     1      34.627 -11.312 -24.651  0.00  0.00    -0.479 OA
ATOM      9  H   UNL     1      35.446 -11.704 -24.887  0.00  0.00    +0.295 HD
ENDBRANCH   7   8
ENDBRANCH   5   7
BRANCH   5  10
ATOM     10  C   UNL     1      32.728 -14.055 -25.107  0.00  0.00    +0.063 C 
BRANCH  10  11
ATOM     11  C   UNL     1      33.274 -14.630 -26.412  0.00  0.00    +0.139 C 
BRANCH  11  12
ATOM     12  O   UNL     1      33.880 -15.887 -26.136  0.00  0.00    -0.382 OA
ATOM     13  H   UNL     1      33.757 -16.106 -25.198  0.00  0.00    +0.210 HD
ENDBRANCH  11  12
ENDBRANCH  10  11
ENDBRANCH   5  10
ENDBRANCH   2   5
BRANCH   3  14
ATOM     14  C   UNL     1      34.421 -15.910 -21.273  0.00  0.00    +0.085 C 
BRANCH  14  15
ATOM     15  C   UNL     1      35.122 -17.248 -21.045  0.00  0.00    +0.010 C 
BRANCH  15  16
ATOM     16  C   UNL     1      34.208 -18.443 -21.334  0.00  0.00    +0.001 C 
BRANCH  16  17
ATOM     17  C   UNL     1      34.920 -19.490 -22.191  0.00  0.00    +0.000 C 
ATOM     18  C   UNL     1      34.804 -19.171 -23.673  0.00  0.00    +0.000 C 
ENDBRANCH  16  17
ENDBRANCH  15  16
ENDBRANCH  14  15
ENDBRANCH   3  14
TORSDOF 10
ENDMDL
