MODEL 1
REMARK VINA RESULT:     -10.3      0.000      0.000
REMARK  Name = 15991577
REMARK  8 active torsions:
REMARK  status: ('A' for Active; 'I' for Inactive)
REMARK    1  A    between atoms: C_1  and  N_3
REMARK    2  A    between atoms: C_1  and  C_16
REMARK    3  A    between atoms: N_3  and  C_6
REMARK    4  A    between atoms: C_6  and  C_8
REMARK    5  A    between atoms: C_8  and  C_10
REMARK    6  A    between atoms: C_16  and  C_17
REMARK    7  A    between atoms: C_17  and  C_18
REMARK    8  A    between atoms: C_23  and  C_26
REMARK                            x       y       z     vdW  Elec       q    Type
REMARK                         _______ _______ _______ _____ _____    ______ ____
ROOT
ATOM      1  C   UNL     1      35.271 -18.057 -23.999  0.00  0.00    -0.061 C 
ATOM      2  C   UNL     1      34.457 -19.151 -24.691  0.00  0.00    -0.023 C 
ENDROOT
BRANCH   1   3
ATOM      3  N   UNL     1      35.045 -16.778 -24.674  0.00  0.00    +0.390 N 
ATOM      4  H   UNL     1      34.172 -16.827 -25.199  0.00  0.00    -0.084 HD
ATOM      5  H   UNL     1      35.827 -16.595 -25.302  0.00  0.00    -0.084 HD
BRANCH   3   6
ATOM      6  C   UNL     1      34.959 -15.695 -23.707  0.00  0.00    -0.011 C 
BRANCH   6   8
ATOM      7  O   UNL     1      33.117 -14.889 -25.041  0.00  0.00    -0.294 OA
ATOM      8  C   UNL     1      33.681 -14.915 -23.950  0.00  0.00    +0.152 C 
BRANCH   8  10
ATOM      9  F   UNL     1      31.471 -12.051 -19.695  0.00  0.00    -0.204 F 
ATOM     10  C   UNL     1      33.088 -14.150 -22.812  0.00  0.00    +0.033 C 
ATOM     11  C   UNL     1      33.162 -14.687 -21.548  0.00  0.00    +0.005 C 
ATOM     12  C   UNL     1      32.494 -12.937 -23.073  0.00  0.00    +0.005 C 
ATOM     13  C   UNL     1      32.610 -13.971 -20.485  0.00  0.00    +0.030 C 
ATOM     14  C   UNL     1      31.942 -12.221 -22.009  0.00  0.00    +0.030 C 
ATOM     15  C   UNL     1      32.000 -12.738 -20.716  0.00  0.00    +0.140 C 
ENDBRANCH   8  10
ENDBRANCH   6   8
ENDBRANCH   3   6
ENDBRANCH   1   3
BRANCH   1  16
ATOM     16  C   UNL     1      34.893 -17.967 -22.509  0.00  0.00    -0.017 C 
BRANCH  16  17
ATOM     17  C   UNL     1      35.849 -18.695 -21.552  0.00  0.00    +0.024 C 
BRANCH  17  18
ATOM     18  C   UNL     1      35.197 -19.800 -20.760  0.00  0.00    -0.022 C 
ATOM     19  C   UNL     1      35.990 -20.728 -20.104  0.00  0.00    -0.004 C 
ATOM     20  C   UNL     1      33.813 -19.869 -20.700  0.00  0.00    -0.004 C 
ATOM     21  C   UNL     1      35.386 -21.750 -19.370  0.00  0.00    +0.004 C 
ATOM     22  C   UNL     1      33.209 -20.889 -19.967  0.00  0.00    +0.004 C 
ATOM     23  C   UNL     1      33.995 -21.831 -19.302  0.00  0.00    +0.053 C 
BRANCH  23  26
ATOM     24  O   UNL     1      33.784 -24.066 -18.592  0.00  0.00    -0.270 OA
ATOM     25  N   UNL     1      32.284 -22.561 -17.730  0.00  0.00    -0.325 N 
ATOM     26  C   UNL     1      33.366 -22.897 -18.540  0.00  0.00    +0.243 C 
ATOM     27  H   UNL     1      31.832 -23.257 -17.200  0.00  0.00    +0.145 HD
ATOM     28  H   UNL     1      31.971 -21.629 -17.688  0.00  0.00    +0.145 HD
ENDBRANCH  23  26
ENDBRANCH  17  18
ENDBRANCH  16  17
ENDBRANCH   1  16
TORSDOF 8
ENDMDL
MODEL 2
REMARK VINA RESULT:     -10.1      1.138      1.894
REMARK  Name = 15991577
REMARK  8 active torsions:
REMARK  status: ('A' for Active; 'I' for Inactive)
REMARK    1  A    between atoms: C_1  and  N_3
REMARK    2  A    between atoms: C_1  and  C_16
REMARK    3  A    between atoms: N_3  and  C_6
REMARK    4  A    between atoms: C_6  and  C_8
REMARK    5  A    between atoms: C_8  and  C_10
REMARK    6  A    between atoms: C_16  and  C_17
REMARK    7  A    between atoms: C_17  and  C_18
REMARK    8  A    between atoms: C_23  and  C_26
REMARK                            x       y       z     vdW  Elec       q    Type
REMARK                         _______ _______ _______ _____ _____    ______ ____
ROOT
ATOM      1  C   UNL     1      35.331 -17.803 -23.911  0.00  0.00    -0.061 C 
ATOM      2  C   UNL     1      34.463 -18.889 -24.549  0.00  0.00    -0.023 C 
ENDROOT
BRANCH   1   3
ATOM      3  N   UNL     1      35.029 -16.511 -24.529  0.00  0.00    +0.390 N 
ATOM      4  H   UNL     1      34.563 -16.667 -25.422  0.00  0.00    -0.084 HD
ATOM      5  H   UNL     1      35.901 -16.002 -24.668  0.00  0.00    -0.084 HD
BRANCH   3   6
ATOM      6  C   UNL     1      34.159 -15.722 -23.669  0.00  0.00    -0.011 C 
BRANCH   6   8
ATOM      7  O   UNL     1      33.032 -14.950 -25.659  0.00  0.00    -0.294 OA
ATOM      8  C   UNL     1      33.415 -14.708 -24.516  0.00  0.00    +0.152 C 
BRANCH   8  10
ATOM      9  F   UNL     1      32.370  -9.672 -22.340  0.00  0.00    -0.204 F 
ATOM     10  C   UNL     1      33.137 -13.361 -23.933  0.00  0.00    +0.033 C 
ATOM     11  C   UNL     1      33.741 -12.262 -24.498  0.00  0.00    +0.005 C 
ATOM     12  C   UNL     1      32.286 -13.273 -22.856  0.00  0.00    +0.005 C 
ATOM     13  C   UNL     1      33.480 -11.003 -23.954  0.00  0.00    +0.030 C 
ATOM     14  C   UNL     1      32.024 -12.014 -22.312  0.00  0.00    +0.030 C 
ATOM     15  C   UNL     1      32.622 -10.880 -22.861  0.00  0.00    +0.140 C 
ENDBRANCH   8  10
ENDBRANCH   6   8
ENDBRANCH   3   6
ENDBRANCH   1   3
BRANCH   1  16
ATOM     16  C   UNL     1      35.098 -17.754 -22.390  0.00  0.00    -0.017 C 
BRANCH  16  17
ATOM     17  C   UNL     1      36.043 -18.636 -21.560  0.00  0.00    +0.024 C 
BRANCH  17  18
ATOM     18  C   UNL     1      35.341 -19.725 -20.789  0.00  0.00    -0.022 C 
ATOM     19  C   UNL     1      33.956 -19.784 -20.799  0.00  0.00    -0.004 C 
ATOM     20  C   UNL     1      36.093 -20.652 -20.082  0.00  0.00    -0.004 C 
ATOM     21  C   UNL     1      33.307 -20.792 -20.086  0.00  0.00    +0.004 C 
ATOM     22  C   UNL     1      35.445 -21.660 -19.369  0.00  0.00    +0.004 C 
ATOM     23  C   UNL     1      34.051 -21.730 -19.371  0.00  0.00    +0.053 C 
BRANCH  23  26
ATOM     24  O   UNL     1      33.818 -23.941 -18.595  0.00  0.00    -0.270 OA
ATOM     25  N   UNL     1      32.220 -22.437 -17.929  0.00  0.00    -0.325 N 
ATOM     26  C   UNL     1      33.375 -22.780 -18.626  0.00  0.00    +0.243 C 
ATOM     27  H   UNL     1      31.735 -23.122 -17.414  0.00  0.00    +0.145 HD
ATOM     28  H   UNL     1      31.888 -21.510 -17.952  0.00  0.00    +0.145 HD
ENDBRANCH  23  26
ENDBRANCH  17  18
ENDBRANCH  16  17
ENDBRANCH   1  16
TORSDOF 8
ENDMDL
MODEL 3
REMARK VINA RESULT:     -10.0      4.622      9.714
REMARK  Name = 15991577
REMARK  8 active torsions:
REMARK  status: ('A' for Active; 'I' for Inactive)
REMARK    1  A    between atoms: C_1  and  N_3
REMARK    2  A    between atoms: C_1  and  C_16
REMARK    3  A    between atoms: N_3  and  C_6
REMARK    4  A    between atoms: C_6  and  C_8
REMARK    5  A    between atoms: C_8  and  C_10
REMARK    6  A    between atoms: C_16  and  C_17
REMARK    7  A    between atoms: C_17  and  C_18
REMARK    8  A    between atoms: C_23  and  C_26
REMARK                            x       y       z     vdW  Elec       q    Type
REMARK                         _______ _______ _______ _____ _____    ______ ____
ROOT
ATOM      1  C   UNL     1      33.921 -23.568 -15.734  0.00  0.00    -0.061 C 
ATOM      2  C   UNL     1      35.294 -22.895 -15.710  0.00  0.00    -0.023 C 
ENDROOT
BRANCH   1   3
ATOM      3  N   UNL     1      33.236 -23.327 -14.464  0.00  0.00    +0.390 N 
ATOM      4  H   UNL     1      32.585 -22.550 -14.577  0.00  0.00    -0.084 HD
ATOM      5  H   UNL     1      33.932 -23.106 -13.752  0.00  0.00    -0.084 HD
BRANCH   3   6
ATOM      6  C   UNL     1      32.498 -24.509 -14.046  0.00  0.00    -0.011 C 
BRANCH   6   8
ATOM      7  O   UNL     1      30.708 -23.991 -12.511  0.00  0.00    -0.294 OA
ATOM      8  C   UNL     1      31.084 -24.105 -13.676  0.00  0.00    +0.152 C 
BRANCH   8  10
ATOM      9  F   UNL     1      27.442 -23.092 -17.788  0.00  0.00    -0.204 F 
ATOM     10  C   UNL     1      30.111 -23.833 -14.778  0.00  0.00    +0.033 C 
ATOM     11  C   UNL     1      29.673 -24.889 -15.543  0.00  0.00    +0.005 C 
ATOM     12  C   UNL     1      29.690 -22.540 -14.981  0.00  0.00    +0.005 C 
ATOM     13  C   UNL     1      28.763 -24.636 -16.570  0.00  0.00    +0.030 C 
ATOM     14  C   UNL     1      28.779 -22.287 -16.008  0.00  0.00    +0.030 C 
ATOM     15  C   UNL     1      28.317 -23.335 -16.802  0.00  0.00    +0.140 C 
ENDBRANCH   8  10
ENDBRANCH   6   8
ENDBRANCH   3   6
ENDBRANCH   1   3
BRANCH   1  16
ATOM     16  C   UNL     1      33.087 -23.044 -16.918  0.00  0.00    -0.017 C 
BRANCH  16  17
ATOM     17  C   UNL     1      33.657 -23.369 -18.307  0.00  0.00    +0.024 C 
BRANCH  17  18
ATOM     18  C   UNL     1      33.993 -22.151 -19.129  0.00  0.00    -0.022 C 
ATOM     19  C   UNL     1      35.320 -21.862 -19.409  0.00  0.00    -0.004 C 
ATOM     20  C   UNL     1      32.969 -21.339 -19.593  0.00  0.00    -0.004 C 
ATOM     21  C   UNL     1      35.630 -20.735 -20.171  0.00  0.00    +0.004 C 
ATOM     22  C   UNL     1      33.278 -20.212 -20.354  0.00  0.00    +0.004 C 
ATOM     23  C   UNL     1      34.610 -19.910 -20.643  0.00  0.00    +0.053 C 
BRANCH  23  26
ATOM     24  O   UNL     1      34.760 -18.713 -22.665  0.00  0.00    -0.270 OA
ATOM     25  N   UNL     1      35.429 -17.619 -20.764  0.00  0.00    -0.325 N 
ATOM     26  C   UNL     1      34.933 -18.734 -21.435  0.00  0.00    +0.243 C 
ATOM     27  H   UNL     1      35.660 -16.805 -21.268  0.00  0.00    +0.145 HD
ATOM     28  H   UNL     1      35.550 -17.646 -19.787  0.00  0.00    +0.145 HD
ENDBRANCH  23  26
ENDBRANCH  17  18
ENDBRANCH  16  17
ENDBRANCH   1  16
TORSDOF 8
ENDMDL
MODEL 4
REMARK VINA RESULT:     -10.0      2.571      3.307
REMARK  Name = 15991577
REMARK  8 active torsions:
REMARK  status: ('A' for Active; 'I' for Inactive)
REMARK    1  A    between atoms: C_1  and  N_3
REMARK    2  A    between atoms: C_1  and  C_16
REMARK    3  A    between atoms: N_3  and  C_6
REMARK    4  A    between atoms: C_6  and  C_8
REMARK    5  A    between atoms: C_8  and  C_10
REMARK    6  A    between atoms: C_16  and  C_17
REMARK    7  A    between atoms: C_17  and  C_18
REMARK    8  A    between atoms: C_23  and  C_26
REMARK                            x       y       z     vdW  Elec       q    Type
REMARK                         _______ _______ _______ _____ _____    ______ ____
ROOT
ATOM      1  C   UNL     1      34.560 -15.661 -23.799  0.00  0.00    -0.061 C 
ATOM      2  C   UNL     1      34.499 -16.573 -25.025  0.00  0.00    -0.023 C 
ENDROOT
BRANCH   1   3
ATOM      3  N   UNL     1      33.443 -14.716 -23.837  0.00  0.00    +0.390 N 
ATOM      4  H   UNL     1      32.679 -15.078 -23.266  0.00  0.00    -0.084 HD
ATOM      5  H   UNL     1      33.141 -14.603 -24.804  0.00  0.00    -0.084 HD
BRANCH   3   6
ATOM      6  C   UNL     1      33.850 -13.419 -23.320  0.00  0.00    -0.011 C 
BRANCH   6   8
ATOM      7  O   UNL     1      33.554 -12.685 -25.600  0.00  0.00    -0.294 OA
ATOM      8  C   UNL     1      33.713 -12.383 -24.420  0.00  0.00    +0.152 C 
BRANCH   8  10
ATOM      9  F   UNL     1      33.939  -6.978 -23.033  0.00  0.00    -0.204 F 
ATOM     10  C   UNL     1      33.775 -10.938 -24.047  0.00  0.00    +0.033 C 
ATOM     11  C   UNL     1      34.798 -10.170 -24.555  0.00  0.00    +0.005 C 
ATOM     12  C   UNL     1      32.805 -10.430 -23.214  0.00  0.00    +0.005 C 
ATOM     13  C   UNL     1      34.854  -8.820 -24.208  0.00  0.00    +0.030 C 
ATOM     14  C   UNL     1      32.861  -9.080 -22.867  0.00  0.00    +0.030 C 
ATOM     15  C   UNL     1      33.886  -8.275 -23.364  0.00  0.00    +0.140 C 
ENDBRANCH   8  10
ENDBRANCH   6   8
ENDBRANCH   3   6
ENDBRANCH   1   3
BRANCH   1  16
ATOM     16  C   UNL     1      34.532 -16.496 -22.506  0.00  0.00    -0.017 C 
BRANCH  16  17
ATOM     17  C   UNL     1      35.564 -17.631 -22.444  0.00  0.00    +0.024 C 
BRANCH  17  18
ATOM     18  C   UNL     1      35.153 -18.784 -21.563  0.00  0.00    -0.022 C 
ATOM     19  C   UNL     1      33.810 -19.112 -21.454  0.00  0.00    -0.004 C 
ATOM     20  C   UNL     1      36.124 -19.496 -20.876  0.00  0.00    -0.004 C 
ATOM     21  C   UNL     1      33.430 -20.179 -20.639  0.00  0.00    +0.004 C 
ATOM     22  C   UNL     1      35.745 -20.562 -20.062  0.00  0.00    +0.004 C 
ATOM     23  C   UNL     1      34.397 -20.904 -19.943  0.00  0.00    +0.053 C 
BRANCH  23  26
ATOM     24  O   UNL     1      34.834 -22.823 -18.650  0.00  0.00    -0.270 OA
ATOM     25  N   UNL     1      32.650 -22.133 -18.770  0.00  0.00    -0.325 N 
ATOM     26  C   UNL     1      34.000 -22.014 -19.091  0.00  0.00    +0.243 C 
ATOM     27  H   UNL     1      32.345 -22.873 -18.196  0.00  0.00    +0.145 HD
ATOM     28  H   UNL     1      32.002 -21.477 -19.116  0.00  0.00    +0.145 HD
ENDBRANCH  23  26
ENDBRANCH  17  18
ENDBRANCH  16  17
ENDBRANCH   1  16
TORSDOF 8
ENDMDL
MODEL 5
REMARK VINA RESULT:      -9.9      1.204      1.883
REMARK  Name = 15991577
REMARK  8 active torsions:
REMARK  status: ('A' for Active; 'I' for Inactive)
REMARK    1  A    between atoms: C_1  and  N_3
REMARK    2  A    between atoms: C_1  and  C_16
REMARK    3  A    between atoms: N_3  and  C_6
REMARK    4  A    between atoms: C_6  and  C_8
REMARK    5  A    between atoms: C_8  and  C_10
REMARK    6  A    between atoms: C_16  and  C_17
REMARK    7  A    between atoms: C_17  and  C_18
REMARK    8  A    between atoms: C_23  and  C_26
REMARK                            x       y       z     vdW  Elec       q    Type
REMARK                         _______ _______ _______ _____ _____    ______ ____
ROOT
ATOM      1  C   UNL     1      35.319 -17.590 -24.115  0.00  0.00    -0.061 C 
ATOM      2  C   UNL     1      34.203 -17.482 -25.155  0.00  0.00    -0.023 C 
ENDROOT
BRANCH   1   3
ATOM      3  N   UNL     1      35.313 -16.398 -23.266  0.00  0.00    +0.390 N 
ATOM      4  H   UNL     1      36.081 -15.786 -23.543  0.00  0.00    -0.084 HD
ATOM      5  H   UNL     1      35.422 -16.686 -22.294  0.00  0.00    -0.084 HD
BRANCH   3   6
ATOM      6  C   UNL     1      34.057 -15.676 -23.402  0.00  0.00    -0.011 C 
BRANCH   6   8
ATOM      7  O   UNL     1      33.610 -16.116 -21.072  0.00  0.00    -0.294 OA
ATOM      8  C   UNL     1      33.527 -15.340 -22.021  0.00  0.00    +0.152 C 
BRANCH   8  10
ATOM      9  F   UNL     1      31.104 -10.370 -21.241  0.00  0.00    -0.204 F 
ATOM     10  C   UNL     1      32.881 -14.010 -21.812  0.00  0.00    +0.033 C 
ATOM     11  C   UNL     1      32.755 -13.163 -22.889  0.00  0.00    +0.005 C 
ATOM     12  C   UNL     1      32.434 -13.685 -20.552  0.00  0.00    +0.005 C 
ATOM     13  C   UNL     1      32.149 -11.921 -22.694  0.00  0.00    +0.030 C 
ATOM     14  C   UNL     1      31.828 -12.443 -20.357  0.00  0.00    +0.030 C 
ATOM     15  C   UNL     1      31.687 -11.562 -21.428  0.00  0.00    +0.140 C 
ENDBRANCH   8  10
ENDBRANCH   6   8
ENDBRANCH   3   6
ENDBRANCH   1   3
BRANCH   1  16
ATOM     16  C   UNL     1      35.145 -18.867 -23.272  0.00  0.00    -0.017 C 
BRANCH  16  17
ATOM     17  C   UNL     1      35.597 -18.744 -21.809  0.00  0.00    +0.024 C 
BRANCH  17  18
ATOM     18  C   UNL     1      35.013 -19.796 -20.900  0.00  0.00    -0.022 C 
ATOM     19  C   UNL     1      33.636 -19.925 -20.803  0.00  0.00    -0.004 C 
ATOM     20  C   UNL     1      35.863 -20.618 -20.175  0.00  0.00    -0.004 C 
ATOM     21  C   UNL     1      33.096 -20.898 -19.962  0.00  0.00    +0.004 C 
ATOM     22  C   UNL     1      35.324 -21.591 -19.334  0.00  0.00    +0.004 C 
ATOM     23  C   UNL     1      33.940 -21.731 -19.228  0.00  0.00    +0.053 C 
BRANCH  23  26
ATOM     24  O   UNL     1      33.994 -23.790 -18.087  0.00  0.00    -0.270 OA
ATOM     25  N   UNL     1      32.125 -22.495 -17.794  0.00  0.00    -0.325 N 
ATOM     26  C   UNL     1      33.377 -22.744 -18.349  0.00  0.00    +0.243 C 
ATOM     27  H   UNL     1      31.712 -23.159 -17.194  0.00  0.00    +0.145 HD
ATOM     28  H   UNL     1      31.652 -21.656 -18.000  0.00  0.00    +0.145 HD
ENDBRANCH  23  26
ENDBRANCH  17  18
ENDBRANCH  16  17
ENDBRANCH   1  16
TORSDOF 8
ENDMDL
MODEL 6
REMARK VINA RESULT:      -9.7      5.034      8.375
REMARK  Name = 15991577
REMARK  8 active torsions:
REMARK  status: ('A' for Active; 'I' for Inactive)
REMARK    1  A    between atoms: C_1  and  N_3
REMARK    2  A    between atoms: C_1  and  C_16
REMARK    3  A    between atoms: N_3  and  C_6
REMARK    4  A    between atoms: C_6  and  C_8
REMARK    5  A    between atoms: C_8  and  C_10
REMARK    6  A    between atoms: C_16  and  C_17
REMARK    7  A    between atoms: C_17  and  C_18
REMARK    8  A    between atoms: C_23  and  C_26
REMARK                            x       y       z     vdW  Elec       q    Type
REMARK                         _______ _______ _______ _____ _____    ______ ____
ROOT
ATOM      1  C   UNL     1      34.946 -23.734 -15.102  0.00  0.00    -0.061 C 
ATOM      2  C   UNL     1      35.720 -24.995 -14.714  0.00  0.00    -0.023 C 
ENDROOT
BRANCH   1   3
ATOM      3  N   UNL     1      34.494 -23.845 -16.490  0.00  0.00    +0.390 N 
ATOM      4  H   UNL     1      33.483 -23.974 -16.503  0.00  0.00    -0.084 HD
ATOM      5  H   UNL     1      34.959 -24.642 -16.924  0.00  0.00    -0.084 HD
BRANCH   3   6
ATOM      6  C   UNL     1      34.831 -22.643 -17.237  0.00  0.00    -0.011 C 
BRANCH   6   8
ATOM      7  O   UNL     1      33.770 -23.790 -19.077  0.00  0.00    -0.294 OA
ATOM      8  C   UNL     1      34.244 -22.747 -18.632  0.00  0.00    +0.152 C 
BRANCH   8  10
ATOM      9  F   UNL     1      34.241 -18.194 -21.866  0.00  0.00    -0.204 F 
ATOM     10  C   UNL     1      34.244 -21.528 -19.495  0.00  0.00    +0.033 C 
ATOM     11  C   UNL     1      35.449 -21.032 -19.934  0.00  0.00    +0.005 C 
ATOM     12  C   UNL     1      33.038 -20.951 -19.820  0.00  0.00    +0.005 C 
ATOM     13  C   UNL     1      35.449 -19.894 -20.742  0.00  0.00    +0.030 C 
ATOM     14  C   UNL     1      33.037 -19.814 -20.628  0.00  0.00    +0.030 C 
ATOM     15  C   UNL     1      34.242 -19.286 -21.089  0.00  0.00    +0.140 C 
ENDBRANCH   8  10
ENDBRANCH   6   8
ENDBRANCH   3   6
ENDBRANCH   1   3
BRANCH   1  16
ATOM     16  C   UNL     1      33.754 -23.523 -14.151  0.00  0.00    -0.017 C 
BRANCH  16  17
ATOM     17  C   UNL     1      32.690 -24.630 -14.187  0.00  0.00    +0.024 C 
BRANCH  17  18
ATOM     18  C   UNL     1      31.394 -24.211 -14.834  0.00  0.00    -0.022 C 
ATOM     19  C   UNL     1      30.241 -24.940 -14.586  0.00  0.00    -0.004 C 
ATOM     20  C   UNL     1      31.376 -23.101 -15.666  0.00  0.00    -0.004 C 
ATOM     21  C   UNL     1      29.042 -24.551 -15.185  0.00  0.00    +0.004 C 
ATOM     22  C   UNL     1      30.178 -22.712 -16.264  0.00  0.00    +0.004 C 
ATOM     23  C   UNL     1      29.010 -23.437 -16.024  0.00  0.00    +0.053 C 
BRANCH  23  26
ATOM     24  O   UNL     1      27.464 -23.400 -17.798  0.00  0.00    -0.270 OA
ATOM     25  N   UNL     1      26.897 -22.232 -15.908  0.00  0.00    -0.325 N 
ATOM     26  C   UNL     1      27.762 -23.033 -16.649  0.00  0.00    +0.243 C 
ATOM     27  H   UNL     1      26.042 -21.939 -16.300  0.00  0.00    +0.145 HD
ATOM     28  H   UNL     1      27.140 -21.959 -14.994  0.00  0.00    +0.145 HD
ENDBRANCH  23  26
ENDBRANCH  17  18
ENDBRANCH  16  17
ENDBRANCH   1  16
TORSDOF 8
ENDMDL
MODEL 7
REMARK VINA RESULT:      -9.7      3.621      5.086
REMARK  Name = 15991577
REMARK  8 active torsions:
REMARK  status: ('A' for Active; 'I' for Inactive)
REMARK    1  A    between atoms: C_1  and  N_3
REMARK    2  A    between atoms: C_1  and  C_16
REMARK    3  A    between atoms: N_3  and  C_6
REMARK    4  A    between atoms: C_6  and  C_8
REMARK    5  A    between atoms: C_8  and  C_10
REMARK    6  A    between atoms: C_16  and  C_17
REMARK    7  A    between atoms: C_17  and  C_18
REMARK    8  A    between atoms: C_23  and  C_26
REMARK                            x       y       z     vdW  Elec       q    Type
REMARK                         _______ _______ _______ _____ _____    ______ ____
ROOT
ATOM      1  C   UNL     1      34.709 -20.519 -20.532  0.00  0.00    -0.061 C 
ATOM      2  C   UNL     1      33.283 -19.973 -20.619  0.00  0.00    -0.023 C 
ENDROOT
BRANCH   1   3
ATOM      3  N   UNL     1      35.637 -19.422 -20.254  0.00  0.00    +0.390 N 
ATOM      4  H   UNL     1      36.477 -19.798 -19.815  0.00  0.00    -0.084 HD
ATOM      5  H   UNL     1      35.180 -18.755 -19.634  0.00  0.00    -0.084 HD
BRANCH   3   6
ATOM      6  C   UNL     1      36.007 -18.739 -21.484  0.00  0.00    -0.011 C 
BRANCH   6   8
ATOM      7  O   UNL     1      35.212 -16.681 -20.506  0.00  0.00    -0.294 OA
ATOM      8  C   UNL     1      35.344 -17.375 -21.512  0.00  0.00    +0.152 C 
BRANCH   8  10
ATOM      9  F   UNL     1      33.445 -15.442 -26.395  0.00  0.00    -0.204 F 
ATOM     10  C   UNL     1      34.834 -16.859 -22.817  0.00  0.00    +0.033 C 
ATOM     11  C   UNL     1      34.251 -15.613 -22.850  0.00  0.00    +0.005 C 
ATOM     12  C   UNL     1      34.971 -17.648 -23.936  0.00  0.00    +0.005 C 
ATOM     13  C   UNL     1      33.777 -15.130 -24.070  0.00  0.00    +0.030 C 
ATOM     14  C   UNL     1      34.497 -17.165 -25.157  0.00  0.00    +0.030 C 
ATOM     15  C   UNL     1      33.899 -15.906 -25.223  0.00  0.00    +0.140 C 
ENDBRANCH   8  10
ENDBRANCH   6   8
ENDBRANCH   3   6
ENDBRANCH   1   3
BRANCH   1  16
ATOM     16  C   UNL     1      34.801 -21.607 -19.447  0.00  0.00    -0.017 C 
BRANCH  16  17
ATOM     17  C   UNL     1      36.159 -21.700 -18.736  0.00  0.00    +0.024 C 
BRANCH  17  18
ATOM     18  C   UNL     1      36.075 -22.223 -17.324  0.00  0.00    -0.022 C 
ATOM     19  C   UNL     1      34.885 -22.773 -16.871  0.00  0.00    -0.004 C 
ATOM     20  C   UNL     1      37.188 -22.144 -16.501  0.00  0.00    -0.004 C 
ATOM     21  C   UNL     1      34.807 -23.257 -15.565  0.00  0.00    +0.004 C 
ATOM     22  C   UNL     1      37.111 -22.628 -15.195  0.00  0.00    +0.004 C 
ATOM     23  C   UNL     1      35.920 -23.185 -14.727  0.00  0.00    +0.053 C 
BRANCH  23  26
ATOM     24  O   UNL     1      36.604 -23.277 -12.476  0.00  0.00    -0.270 OA
ATOM     25  N   UNL     1      34.857 -24.634 -13.082  0.00  0.00    -0.325 N 
ATOM     26  C   UNL     1      35.838 -23.687 -13.365  0.00  0.00    +0.243 C 
ATOM     27  H   UNL     1      34.772 -24.997 -12.170  0.00  0.00    +0.145 HD
ATOM     28  H   UNL     1      34.249 -24.940 -13.793  0.00  0.00    +0.145 HD
ENDBRANCH  23  26
ENDBRANCH  17  18
ENDBRANCH  16  17
ENDBRANCH   1  16
TORSDOF 8
ENDMDL
MODEL 8
REMARK VINA RESULT:      -9.6      3.702      9.086
REMARK  Name = 15991577
REMARK  8 active torsions:
REMARK  status: ('A' for Active; 'I' for Inactive)
REMARK    1  A    between atoms: C_1  and  N_3
REMARK    2  A    between atoms: C_1  and  C_16
REMARK    3  A    between atoms: N_3  and  C_6
REMARK    4  A    between atoms: C_6  and  C_8
REMARK    5  A    between atoms: C_8  and  C_10
REMARK    6  A    between atoms: C_16  and  C_17
REMARK    7  A    between atoms: C_17  and  C_18
REMARK    8  A    between atoms: C_23  and  C_26
REMARK                            x       y       z     vdW  Elec       q    Type
REMARK                         _______ _______ _______ _____ _____    ______ ____
ROOT
ATOM      1  C   UNL     1      34.587 -16.561 -23.762  0.00  0.00    -0.061 C 
ATOM      2  C   UNL     1      34.541 -16.664 -25.287  0.00  0.00    -0.023 C 
ENDROOT
BRANCH   1   3
ATOM      3  N   UNL     1      35.808 -17.199 -23.266  0.00  0.00    +0.390 N 
ATOM      4  H   UNL     1      36.177 -16.654 -22.488  0.00  0.00    -0.084 HD
ATOM      5  H   UNL     1      36.488 -17.241 -24.024  0.00  0.00    -0.084 HD
BRANCH   3   6
ATOM      6  C   UNL     1      35.531 -18.552 -22.810  0.00  0.00    -0.011 C 
BRANCH   6   8
ATOM      7  O   UNL     1      35.470 -17.523 -20.627  0.00  0.00    -0.294 OA
ATOM      8  C   UNL     1      35.313 -18.534 -21.309  0.00  0.00    +0.152 C 
BRANCH   8  10
ATOM      9  F   UNL     1      33.731 -23.259 -18.788  0.00  0.00    -0.204 F 
ATOM     10  C   UNL     1      34.890 -19.799 -20.636  0.00  0.00    +0.033 C 
ATOM     11  C   UNL     1      35.862 -20.661 -20.183  0.00  0.00    +0.005 C 
ATOM     12  C   UNL     1      33.545 -20.052 -20.494  0.00  0.00    +0.005 C 
ATOM     13  C   UNL     1      35.467 -21.841 -19.553  0.00  0.00    +0.030 C 
ATOM     14  C   UNL     1      33.150 -21.232 -19.864  0.00  0.00    +0.030 C 
ATOM     15  C   UNL     1      34.111 -22.127 -19.394  0.00  0.00    +0.140 C 
ENDBRANCH   8  10
ENDBRANCH   6   8
ENDBRANCH   3   6
ENDBRANCH   1   3
BRANCH   1  16
ATOM     16  C   UNL     1      34.517 -15.088 -23.320  0.00  0.00    -0.017 C 
BRANCH  16  17
ATOM     17  C   UNL     1      33.116 -14.595 -22.928  0.00  0.00    +0.024 C 
BRANCH  17  18
ATOM     18  C   UNL     1      32.947 -13.099 -23.023  0.00  0.00    -0.022 C 
ATOM     19  C   UNL     1      32.034 -12.463 -22.195  0.00  0.00    -0.004 C 
ATOM     20  C   UNL     1      33.707 -12.385 -23.937  0.00  0.00    -0.004 C 
ATOM     21  C   UNL     1      31.878 -11.079 -22.282  0.00  0.00    +0.004 C 
ATOM     22  C   UNL     1      33.551 -11.002 -24.024  0.00  0.00    +0.004 C 
ATOM     23  C   UNL     1      32.637 -10.348 -23.197  0.00  0.00    +0.053 C 
BRANCH  23  26
ATOM     24  O   UNL     1      31.349  -8.377 -23.237  0.00  0.00    -0.270 OA
ATOM     25  N   UNL     1      33.622  -8.132 -23.424  0.00  0.00    -0.325 N 
ATOM     26  C   UNL     1      32.472  -8.907 -23.290  0.00  0.00    +0.243 C 
ATOM     27  H   UNL     1      33.549  -7.152 -23.491  0.00  0.00    +0.145 HD
ATOM     28  H   UNL     1      34.506  -8.564 -23.452  0.00  0.00    +0.145 HD
ENDBRANCH  23  26
ENDBRANCH  17  18
ENDBRANCH  16  17
ENDBRANCH   1  16
TORSDOF 8
ENDMDL
MODEL 9
REMARK VINA RESULT:      -9.6      4.031      9.387
REMARK  Name = 15991577
REMARK  8 active torsions:
REMARK  status: ('A' for Active; 'I' for Inactive)
REMARK    1  A    between atoms: C_1  and  N_3
REMARK    2  A    between atoms: C_1  and  C_16
REMARK    3  A    between atoms: N_3  and  C_6
REMARK    4  A    between atoms: C_6  and  C_8
REMARK    5  A    between atoms: C_8  and  C_10
REMARK    6  A    between atoms: C_16  and  C_17
REMARK    7  A    between atoms: C_17  and  C_18
REMARK    8  A    between atoms: C_23  and  C_26
REMARK                            x       y       z     vdW  Elec       q    Type
REMARK                         _______ _______ _______ _____ _____    ______ ____
ROOT
ATOM      1  C   UNL     1      34.258 -14.785 -21.909  0.00  0.00    -0.061 C 
ATOM      2  C   UNL     1      33.214 -15.070 -20.828  0.00  0.00    -0.023 C 
ENDROOT
BRANCH   1   3
ATOM      3  N   UNL     1      34.769 -16.049 -22.440  0.00  0.00    +0.390 N 
ATOM      4  H   UNL     1      35.683 -15.890 -22.862  0.00  0.00    -0.084 HD
ATOM      5  H   UNL     1      34.114 -16.402 -23.136  0.00  0.00    -0.084 HD
BRANCH   3   6
ATOM      6  C   UNL     1      34.900 -17.036 -21.379  0.00  0.00    -0.011 C 
BRANCH   6   8
ATOM      7  O   UNL     1      34.738 -18.634 -23.181  0.00  0.00    -0.294 OA
ATOM      8  C   UNL     1      34.733 -18.423 -21.970  0.00  0.00    +0.152 C 
BRANCH   8  10
ATOM      9  F   UNL     1      34.075 -22.730 -18.477  0.00  0.00    -0.204 F 
ATOM     10  C   UNL     1      34.557 -19.577 -21.037  0.00  0.00    +0.033 C 
ATOM     11  C   UNL     1      35.678 -20.235 -20.586  0.00  0.00    +0.005 C 
ATOM     12  C   UNL     1      33.282 -19.933 -20.664  0.00  0.00    +0.005 C 
ATOM     13  C   UNL     1      35.513 -21.311 -19.713  0.00  0.00    +0.030 C 
ATOM     14  C   UNL     1      33.117 -21.009 -19.791  0.00  0.00    +0.030 C 
ATOM     15  C   UNL     1      34.233 -21.698 -19.316  0.00  0.00    +0.140 C 
ENDBRANCH   8  10
ENDBRANCH   6   8
ENDBRANCH   3   6
ENDBRANCH   1   3
BRANCH   1  16
ATOM     16  C   UNL     1      33.647 -13.924 -23.030  0.00  0.00    -0.017 C 
BRANCH  16  17
ATOM     17  C   UNL     1      32.235 -13.392 -22.743  0.00  0.00    +0.024 C 
BRANCH  17  18
ATOM     18  C   UNL     1      32.206 -11.955 -22.286  0.00  0.00    -0.022 C 
ATOM     19  C   UNL     1      31.664 -11.644 -21.048  0.00  0.00    -0.004 C 
ATOM     20  C   UNL     1      32.721 -10.967 -23.112  0.00  0.00    -0.004 C 
ATOM     21  C   UNL     1      31.637 -10.315 -20.626  0.00  0.00    +0.004 C 
ATOM     22  C   UNL     1      32.695  -9.638 -22.690  0.00  0.00    +0.004 C 
ATOM     23  C   UNL     1      32.153  -9.312 -21.446  0.00  0.00    +0.053 C 
BRANCH  23  26
ATOM     24  O   UNL     1      31.513  -7.055 -21.651  0.00  0.00    -0.270 OA
ATOM     25  N   UNL     1      32.788  -7.607 -19.826  0.00  0.00    -0.325 N 
ATOM     26  C   UNL     1      32.123  -7.926 -21.007  0.00  0.00    +0.243 C 
ATOM     27  H   UNL     1      32.789  -6.679 -19.498  0.00  0.00    +0.145 HD
ATOM     28  H   UNL     1      33.256  -8.310 -19.319  0.00  0.00    +0.145 HD
ENDBRANCH  23  26
ENDBRANCH  17  18
ENDBRANCH  16  17
ENDBRANCH   1  16
TORSDOF 8
ENDMDL
