MODEL 1
REMARK VINA RESULT:      -6.2      0.000      0.000
REMARK  Name = 449225
REMARK  10 active torsions:
REMARK  status: ('A' for Active; 'I' for Inactive)
REMARK    1  A    between atoms: C_1  and  O_2
REMARK    2  A    between atoms: C_1  and  C_4
REMARK    3  A    between atoms: C_1  and  C_12
REMARK    4  A    between atoms: C_4  and  O_5
REMARK    5  A    between atoms: C_4  and  C_8
REMARK    6  A    between atoms: C_8  and  C_9
REMARK    7  A    between atoms: C_9  and  O_10
REMARK    8  A    between atoms: C_12  and  O_13
REMARK    9  A    between atoms: C_12  and  C_15
REMARK   10  A    between atoms: C_15  and  O_16
REMARK                            x       y       z     vdW  Elec       q    Type
REMARK                         _______ _______ _______ _____ _____    ______ ____
ROOT
ATOM      1  C   UNL     1      37.714 -25.757 -14.819  0.00  0.00    +0.174 C 
ENDROOT
BRANCH   1   2
ATOM      2  O   UNL     1      38.103 -27.108 -14.588  0.00  0.00    -0.379 OA
ATOM      3  H   UNL     1      39.069 -27.159 -14.519  0.00  0.00    +0.211 HD
ENDBRANCH   1   2
BRANCH   1   4
ATOM      4  C   UNL     1      36.470 -25.406 -13.989  0.00  0.00    +0.204 C 
BRANCH   4   5
ATOM      5  O   UNL     1      36.105 -24.064 -14.281  0.00  0.00    -0.344 OA
ATOM      6  C   UNL     1      35.206 -23.996 -15.380  0.00  0.00    +0.175 C 
ENDBRANCH   4   5
BRANCH   4   8
ATOM      7  O   UNL     1      37.262 -26.470 -11.973  0.00  0.00    -0.291 OA
ATOM      8  C   UNL     1      36.632 -25.537 -12.475  0.00  0.00    +0.209 C 
BRANCH   8   9
ATOM      9  C   UNL     1      36.012 -24.451 -11.618  0.00  0.00    +0.205 C 
BRANCH   9  10
ATOM     10  O   UNL     1      35.318 -25.021 -10.526  0.00  0.00    -0.375 OA
ATOM     11  H   UNL     1      34.752 -24.348 -10.116  0.00  0.00    +0.211 HD
ENDBRANCH   9  10
ENDBRANCH   8   9
ENDBRANCH   4   8
ENDBRANCH   1   4
BRANCH   1  12
ATOM     12  C   UNL     1      38.924 -24.824 -14.628  0.00  0.00    +0.169 C 
BRANCH  12  13
ATOM     13  O   UNL     1      38.930 -23.820 -15.642  0.00  0.00    -0.379 OA
ATOM     14  H   UNL     1      39.811 -23.418 -15.694  0.00  0.00    +0.211 HD
ENDBRANCH  12  13
BRANCH  12  15
ATOM     15  C   UNL     1      40.248 -25.584 -14.708  0.00  0.00    +0.169 C 
BRANCH  15  16
ATOM     16  O   UNL     1      40.469 -25.980 -16.059  0.00  0.00    -0.379 OA
ATOM     17  H   UNL     1      39.867 -25.490 -16.641  0.00  0.00    +0.211 HD
ENDBRANCH  15  16
ENDBRANCH  12  15
ENDBRANCH   1  12
TORSDOF 10
ENDMDL
MODEL 2
REMARK VINA RESULT:      -6.1      1.653      4.213
REMARK  Name = 449225
REMARK  10 active torsions:
REMARK  status: ('A' for Active; 'I' for Inactive)
REMARK    1  A    between atoms: C_1  and  O_2
REMARK    2  A    between atoms: C_1  and  C_4
REMARK    3  A    between atoms: C_1  and  C_12
REMARK    4  A    between atoms: C_4  and  O_5
REMARK    5  A    between atoms: C_4  and  C_8
REMARK    6  A    between atoms: C_8  and  C_9
REMARK    7  A    between atoms: C_9  and  O_10
REMARK    8  A    between atoms: C_12  and  O_13
REMARK    9  A    between atoms: C_12  and  C_15
REMARK   10  A    between atoms: C_15  and  O_16
REMARK                            x       y       z     vdW  Elec       q    Type
REMARK                         _______ _______ _______ _____ _____    ______ ____
ROOT
ATOM      1  C   UNL     1      37.923 -24.410 -12.533  0.00  0.00    +0.174 C 
ENDROOT
BRANCH   1   2
ATOM      2  O   UNL     1      37.766 -25.683 -11.911  0.00  0.00    -0.379 OA
ATOM      3  H   UNL     1      36.887 -26.037 -12.118  0.00  0.00    +0.211 HD
ENDBRANCH   1   2
BRANCH   1   4
ATOM      4  C   UNL     1      38.032 -24.567 -14.058  0.00  0.00    +0.204 C 
BRANCH   4   5
ATOM      5  O   UNL     1      36.980 -23.823 -14.658  0.00  0.00    -0.344 OA
ATOM      6  C   UNL     1      37.468 -22.955 -15.671  0.00  0.00    +0.175 C 
ENDBRANCH   4   5
BRANCH   4   8
ATOM      7  O   UNL     1      38.930 -26.757 -14.527  0.00  0.00    -0.291 OA
ATOM      8  C   UNL     1      37.958 -26.001 -14.578  0.00  0.00    +0.209 C 
BRANCH   8   9
ATOM      9  C   UNL     1      36.625 -26.468 -15.130  0.00  0.00    +0.205 C 
BRANCH   9  10
ATOM     10  O   UNL     1      36.820 -27.263 -16.283  0.00  0.00    -0.375 OA
ATOM     11  H   UNL     1      37.126 -26.704 -17.014  0.00  0.00    +0.211 HD
ENDBRANCH   9  10
ENDBRANCH   8   9
ENDBRANCH   4   8
ENDBRANCH   1   4
BRANCH   1  12
ATOM     12  C   UNL     1      36.826 -23.448 -12.043  0.00  0.00    +0.169 C 
BRANCH  12  13
ATOM     13  O   UNL     1      37.407 -22.408 -11.257  0.00  0.00    -0.379 OA
ATOM     14  H   UNL     1      36.734 -22.035 -10.666  0.00  0.00    +0.211 HD
ENDBRANCH  12  13
BRANCH  12  15
ATOM     15  C   UNL     1      35.785 -24.164 -11.182  0.00  0.00    +0.169 C 
BRANCH  15  16
ATOM     16  O   UNL     1      36.228 -24.164  -9.828  0.00  0.00    -0.379 OA
ATOM     17  H   UNL     1      35.460 -24.175  -9.237  0.00  0.00    +0.211 HD
ENDBRANCH  15  16
ENDBRANCH  12  15
ENDBRANCH   1  12
TORSDOF 10
ENDMDL
MODEL 3
REMARK VINA RESULT:      -6.1      1.300      4.397
REMARK  Name = 449225
REMARK  10 active torsions:
REMARK  status: ('A' for Active; 'I' for Inactive)
REMARK    1  A    between atoms: C_1  and  O_2
REMARK    2  A    between atoms: C_1  and  C_4
REMARK    3  A    between atoms: C_1  and  C_12
REMARK    4  A    between atoms: C_4  and  O_5
REMARK    5  A    between atoms: C_4  and  C_8
REMARK    6  A    between atoms: C_8  and  C_9
REMARK    7  A    between atoms: C_9  and  O_10
REMARK    8  A    between atoms: C_12  and  O_13
REMARK    9  A    between atoms: C_12  and  C_15
REMARK   10  A    between atoms: C_15  and  O_16
REMARK                            x       y       z     vdW  Elec       q    Type
REMARK                         _______ _______ _______ _____ _____    ______ ____
ROOT
ATOM      1  C   UNL     1      37.827 -24.591 -12.376  0.00  0.00    +0.174 C 
ENDROOT
BRANCH   1   2
ATOM      2  O   UNL     1      37.621 -25.876 -11.794  0.00  0.00    -0.379 OA
ATOM      3  H   UNL     1      37.393 -25.774 -10.857  0.00  0.00    +0.211 HD
ENDBRANCH   1   2
BRANCH   1   4
ATOM      4  C   UNL     1      37.910 -24.700 -13.906  0.00  0.00    +0.204 C 
BRANCH   4   5
ATOM      5  O   UNL     1      36.594 -24.879 -14.412  0.00  0.00    -0.344 OA
ATOM      6  C   UNL     1      36.279 -23.906 -15.399  0.00  0.00    +0.175 C 
ENDBRANCH   4   5
BRANCH   4   8
ATOM      7  O   UNL     1      38.334 -26.974 -14.596  0.00  0.00    -0.291 OA
ATOM      8  C   UNL     1      38.782 -25.837 -14.437  0.00  0.00    +0.209 C 
BRANCH   8   9
ATOM      9  C   UNL     1      40.216 -25.498 -14.794  0.00  0.00    +0.205 C 
BRANCH   9  10
ATOM     10  O   UNL     1      40.536 -25.997 -16.078  0.00  0.00    -0.375 OA
ATOM     11  H   UNL     1      41.253 -25.468 -16.461  0.00  0.00    +0.211 HD
ENDBRANCH   9  10
ENDBRANCH   8   9
ENDBRANCH   4   8
ENDBRANCH   1   4
BRANCH   1  12
ATOM     12  C   UNL     1      36.780 -23.599 -11.838  0.00  0.00    +0.169 C 
BRANCH  12  13
ATOM     13  O   UNL     1      37.406 -22.649 -10.977  0.00  0.00    -0.379 OA
ATOM     14  H   UNL     1      38.282 -22.423 -11.327  0.00  0.00    +0.211 HD
ENDBRANCH  12  13
BRANCH  12  15
ATOM     15  C   UNL     1      35.682 -24.305 -11.043  0.00  0.00    +0.169 C 
BRANCH  15  16
ATOM     16  O   UNL     1      34.814 -24.976 -11.952  0.00  0.00    -0.379 OA
ATOM     17  H   UNL     1      34.779 -25.919 -11.729  0.00  0.00    +0.211 HD
ENDBRANCH  15  16
ENDBRANCH  12  15
ENDBRANCH   1  12
TORSDOF 10
ENDMDL
MODEL 4
REMARK VINA RESULT:      -5.9      1.695      4.470
REMARK  Name = 449225
REMARK  10 active torsions:
REMARK  status: ('A' for Active; 'I' for Inactive)
REMARK    1  A    between atoms: C_1  and  O_2
REMARK    2  A    between atoms: C_1  and  C_4
REMARK    3  A    between atoms: C_1  and  C_12
REMARK    4  A    between atoms: C_4  and  O_5
REMARK    5  A    between atoms: C_4  and  C_8
REMARK    6  A    between atoms: C_8  and  C_9
REMARK    7  A    between atoms: C_9  and  O_10
REMARK    8  A    between atoms: C_12  and  O_13
REMARK    9  A    between atoms: C_12  and  C_15
REMARK   10  A    between atoms: C_15  and  O_16
REMARK                            x       y       z     vdW  Elec       q    Type
REMARK                         _______ _______ _______ _____ _____    ______ ____
ROOT
ATOM      1  C   UNL     1      37.849 -25.218 -12.329  0.00  0.00    +0.174 C 
ENDROOT
BRANCH   1   2
ATOM      2  O   UNL     1      36.825 -26.104 -11.884  0.00  0.00    -0.379 OA
ATOM      3  H   UNL     1      36.859 -26.923 -12.402  0.00  0.00    +0.211 HD
ENDBRANCH   1   2
BRANCH   1   4
ATOM      4  C   UNL     1      38.340 -25.622 -13.727  0.00  0.00    +0.204 C 
BRANCH   4   5
ATOM      5  O   UNL     1      39.343 -24.700 -14.130  0.00  0.00    -0.344 OA
ATOM      6  C   UNL     1      40.369 -25.340 -14.877  0.00  0.00    +0.175 C 
ENDBRANCH   4   5
BRANCH   4   8
ATOM      7  O   UNL     1      36.930 -24.647 -15.426  0.00  0.00    -0.291 OA
ATOM      8  C   UNL     1      37.266 -25.662 -14.814  0.00  0.00    +0.209 C 
BRANCH   8   9
ATOM      9  C   UNL     1      36.656 -27.013 -15.131  0.00  0.00    +0.205 C 
BRANCH   9  10
ATOM     10  O   UNL     1      36.865 -27.343 -16.490  0.00  0.00    -0.375 OA
ATOM     11  H   UNL     1      36.209 -28.000 -16.768  0.00  0.00    +0.211 HD
ENDBRANCH   9  10
ENDBRANCH   8   9
ENDBRANCH   4   8
ENDBRANCH   1   4
BRANCH   1  12
ATOM     12  C   UNL     1      37.377 -23.759 -12.188  0.00  0.00    +0.169 C 
BRANCH  12  13
ATOM     13  O   UNL     1      38.409 -22.968 -11.600  0.00  0.00    -0.379 OA
ATOM     14  H   UNL     1      39.266 -23.404 -11.731  0.00  0.00    +0.211 HD
ENDBRANCH  12  13
BRANCH  12  15
ATOM     15  C   UNL     1      36.135 -23.645 -11.304  0.00  0.00    +0.169 C 
BRANCH  15  16
ATOM     16  O   UNL     1      36.494 -23.963  -9.963  0.00  0.00    -0.379 OA
ATOM     17  H   UNL     1      36.398 -23.174  -9.407  0.00  0.00    +0.211 HD
ENDBRANCH  15  16
ENDBRANCH  12  15
ENDBRANCH   1  12
TORSDOF 10
ENDMDL
MODEL 5
REMARK VINA RESULT:      -5.9      1.836      2.484
REMARK  Name = 449225
REMARK  10 active torsions:
REMARK  status: ('A' for Active; 'I' for Inactive)
REMARK    1  A    between atoms: C_1  and  O_2
REMARK    2  A    between atoms: C_1  and  C_4
REMARK    3  A    between atoms: C_1  and  C_12
REMARK    4  A    between atoms: C_4  and  O_5
REMARK    5  A    between atoms: C_4  and  C_8
REMARK    6  A    between atoms: C_8  and  C_9
REMARK    7  A    between atoms: C_9  and  O_10
REMARK    8  A    between atoms: C_12  and  O_13
REMARK    9  A    between atoms: C_12  and  C_15
REMARK   10  A    between atoms: C_15  and  O_16
REMARK                            x       y       z     vdW  Elec       q    Type
REMARK                         _______ _______ _______ _____ _____    ______ ____
ROOT
ATOM      1  C   UNL     1      38.272 -25.221 -13.310  0.00  0.00    +0.174 C 
ENDROOT
BRANCH   1   2
ATOM      2  O   UNL     1      39.584 -24.676 -13.194  0.00  0.00    -0.379 OA
ATOM      3  H   UNL     1      40.235 -25.396 -13.199  0.00  0.00    +0.211 HD
ENDBRANCH   1   2
BRANCH   1   4
ATOM      4  C   UNL     1      37.227 -24.097 -13.368  0.00  0.00    +0.204 C 
BRANCH   4   5
ATOM      5  O   UNL     1      37.726 -23.067 -14.211  0.00  0.00    -0.344 OA
ATOM      6  C   UNL     1      36.862 -22.833 -15.315  0.00  0.00    +0.175 C 
ENDBRANCH   4   5
BRANCH   4   8
ATOM      7  O   UNL     1      37.364 -22.419 -11.640  0.00  0.00    -0.291 OA
ATOM      8  C   UNL     1      36.856 -23.474 -12.024  0.00  0.00    +0.209 C 
BRANCH   8   9
ATOM      9  C   UNL     1      35.810 -24.192 -11.194  0.00  0.00    +0.205 C 
BRANCH   9  10
ATOM     10  O   UNL     1      36.166 -24.175  -9.827  0.00  0.00    -0.375 OA
ATOM     11  H   UNL     1      35.907 -25.013  -9.414  0.00  0.00    +0.211 HD
ENDBRANCH   9  10
ENDBRANCH   8   9
ENDBRANCH   4   8
ENDBRANCH   1   4
BRANCH   1  12
ATOM     12  C   UNL     1      38.225 -26.231 -14.471  0.00  0.00    +0.169 C 
BRANCH  12  13
ATOM     13  O   UNL     1      38.973 -25.735 -15.580  0.00  0.00    -0.379 OA
ATOM     14  H   UNL     1      39.878 -26.081 -15.540  0.00  0.00    +0.211 HD
ENDBRANCH  12  13
BRANCH  12  15
ATOM     15  C   UNL     1      36.793 -26.487 -14.945  0.00  0.00    +0.169 C 
BRANCH  15  16
ATOM     16  O   UNL     1      36.838 -27.193 -16.181  0.00  0.00    -0.379 OA
ATOM     17  H   UNL     1      37.229 -26.625 -16.863  0.00  0.00    +0.211 HD
ENDBRANCH  15  16
ENDBRANCH  12  15
ENDBRANCH   1  12
TORSDOF 10
ENDMDL
MODEL 6
REMARK VINA RESULT:      -5.8      1.717      2.374
REMARK  Name = 449225
REMARK  10 active torsions:
REMARK  status: ('A' for Active; 'I' for Inactive)
REMARK    1  A    between atoms: C_1  and  O_2
REMARK    2  A    between atoms: C_1  and  C_4
REMARK    3  A    between atoms: C_1  and  C_12
REMARK    4  A    between atoms: C_4  and  O_5
REMARK    5  A    between atoms: C_4  and  C_8
REMARK    6  A    between atoms: C_8  and  C_9
REMARK    7  A    between atoms: C_9  and  O_10
REMARK    8  A    between atoms: C_12  and  O_13
REMARK    9  A    between atoms: C_12  and  C_15
REMARK   10  A    between atoms: C_15  and  O_16
REMARK                            x       y       z     vdW  Elec       q    Type
REMARK                         _______ _______ _______ _____ _____    ______ ____
ROOT
ATOM      1  C   UNL     1      36.920 -25.751 -13.033  0.00  0.00    +0.174 C 
ENDROOT
BRANCH   1   2
ATOM      2  O   UNL     1      37.922 -26.100 -12.083  0.00  0.00    -0.379 OA
ATOM      3  H   UNL     1      37.514 -26.574 -11.342  0.00  0.00    +0.211 HD
ENDBRANCH   1   2
BRANCH   1   4
ATOM      4  C   UNL     1      35.889 -24.802 -12.404  0.00  0.00    +0.204 C 
BRANCH   4   5
ATOM      5  O   UNL     1      35.406 -23.932 -13.419  0.00  0.00    -0.344 OA
ATOM      6  C   UNL     1      34.021 -24.135 -13.662  0.00  0.00    +0.175 C 
ENDBRANCH   4   5
BRANCH   4   8
ATOM      7  O   UNL     1      36.160 -24.232 -10.075  0.00  0.00    -0.291 OA
ATOM      8  C   UNL     1      36.404 -23.945 -11.248  0.00  0.00    +0.209 C 
BRANCH   8   9
ATOM      9  C   UNL     1      37.257 -22.744 -11.606  0.00  0.00    +0.205 C 
BRANCH   9  10
ATOM     10  O   UNL     1      38.625 -23.101 -11.631  0.00  0.00    -0.375 OA
ATOM     11  H   UNL     1      39.147 -22.411 -11.193  0.00  0.00    +0.211 HD
ENDBRANCH   9  10
ENDBRANCH   8   9
ENDBRANCH   4   8
ENDBRANCH   1   4
BRANCH   1  12
ATOM     12  C   UNL     1      37.580 -25.246 -14.329  0.00  0.00    +0.169 C 
BRANCH  12  13
ATOM     13  O   UNL     1      36.881 -25.758 -15.463  0.00  0.00    -0.379 OA
ATOM     14  H   UNL     1      35.944 -25.870 -15.242  0.00  0.00    +0.211 HD
ENDBRANCH  12  13
BRANCH  12  15
ATOM     15  C   UNL     1      39.039 -25.689 -14.435  0.00  0.00    +0.169 C 
BRANCH  15  16
ATOM     16  O   UNL     1      39.848 -24.792 -13.680  0.00  0.00    -0.379 OA
ATOM     17  H   UNL     1      40.780 -24.924 -13.913  0.00  0.00    +0.211 HD
ENDBRANCH  15  16
ENDBRANCH  12  15
ENDBRANCH   1  12
TORSDOF 10
ENDMDL
MODEL 7
REMARK VINA RESULT:      -5.7      1.873      3.981
REMARK  Name = 449225
REMARK  10 active torsions:
REMARK  status: ('A' for Active; 'I' for Inactive)
REMARK    1  A    between atoms: C_1  and  O_2
REMARK    2  A    between atoms: C_1  and  C_4
REMARK    3  A    between atoms: C_1  and  C_12
REMARK    4  A    between atoms: C_4  and  O_5
REMARK    5  A    between atoms: C_4  and  C_8
REMARK    6  A    between atoms: C_8  and  C_9
REMARK    7  A    between atoms: C_9  and  O_10
REMARK    8  A    between atoms: C_12  and  O_13
REMARK    9  A    between atoms: C_12  and  C_15
REMARK   10  A    between atoms: C_15  and  O_16
REMARK                            x       y       z     vdW  Elec       q    Type
REMARK                         _______ _______ _______ _____ _____    ______ ____
ROOT
ATOM      1  C   UNL     1      36.404 -24.693 -14.501  0.00  0.00    +0.174 C 
ENDROOT
BRANCH   1   2
ATOM      2  O   UNL     1      36.388 -25.353 -15.764  0.00  0.00    -0.379 OA
ATOM      3  H   UNL     1      35.672 -26.008 -15.778  0.00  0.00    +0.211 HD
ENDBRANCH   1   2
BRANCH   1   4
ATOM      4  C   UNL     1      37.624 -25.134 -13.679  0.00  0.00    +0.204 C 
BRANCH   4   5
ATOM      5  O   UNL     1      38.325 -23.970 -13.263  0.00  0.00    -0.344 OA
ATOM      6  C   UNL     1      38.277 -23.809 -11.852  0.00  0.00    +0.175 C 
ENDBRANCH   4   5
BRANCH   4   8
ATOM      7  O   UNL     1      38.306 -27.200 -14.723  0.00  0.00    -0.291 OA
ATOM      8  C   UNL     1      38.610 -26.049 -14.405  0.00  0.00    +0.209 C 
BRANCH   8   9
ATOM      9  C   UNL     1      39.968 -25.469 -14.746  0.00  0.00    +0.205 C 
BRANCH   9  10
ATOM     10  O   UNL     1      40.381 -25.900 -16.027  0.00  0.00    -0.375 OA
ATOM     11  H   UNL     1      40.304 -25.165 -16.656  0.00  0.00    +0.211 HD
ENDBRANCH   9  10
ENDBRANCH   8   9
ENDBRANCH   4   8
ENDBRANCH   1   4
BRANCH   1  12
ATOM     12  C   UNL     1      36.254 -23.174 -14.702  0.00  0.00    +0.169 C 
BRANCH  12  13
ATOM     13  O   UNL     1      34.892 -22.790 -14.517  0.00  0.00    -0.379 OA
ATOM     14  H   UNL     1      34.758 -21.896 -14.866  0.00  0.00    +0.211 HD
ENDBRANCH  12  13
BRANCH  12  15
ATOM     15  C   UNL     1      36.679 -22.741 -16.105  0.00  0.00    +0.169 C 
BRANCH  15  16
ATOM     16  O   UNL     1      38.078 -22.969 -16.252  0.00  0.00    -0.379 OA
ATOM     17  H   UNL     1      38.223 -23.845 -16.641  0.00  0.00    +0.211 HD
ENDBRANCH  15  16
ENDBRANCH  12  15
ENDBRANCH   1  12
TORSDOF 10
ENDMDL
MODEL 8
REMARK VINA RESULT:      -5.4      1.910      4.471
REMARK  Name = 449225
REMARK  10 active torsions:
REMARK  status: ('A' for Active; 'I' for Inactive)
REMARK    1  A    between atoms: C_1  and  O_2
REMARK    2  A    between atoms: C_1  and  C_4
REMARK    3  A    between atoms: C_1  and  C_12
REMARK    4  A    between atoms: C_4  and  O_5
REMARK    5  A    between atoms: C_4  and  C_8
REMARK    6  A    between atoms: C_8  and  C_9
REMARK    7  A    between atoms: C_9  and  O_10
REMARK    8  A    between atoms: C_12  and  O_13
REMARK    9  A    between atoms: C_12  and  C_15
REMARK   10  A    between atoms: C_15  and  O_16
REMARK                            x       y       z     vdW  Elec       q    Type
REMARK                         _______ _______ _______ _____ _____    ______ ____
ROOT
ATOM      1  C   UNL     1      35.370 -24.524 -12.915  0.00  0.00    +0.174 C 
ENDROOT
BRANCH   1   2
ATOM      2  O   UNL     1      34.898 -23.196 -13.124  0.00  0.00    -0.379 OA
ATOM      3  H   UNL     1      34.122 -23.037 -12.564  0.00  0.00    +0.211 HD
ENDBRANCH   1   2
BRANCH   1   4
ATOM      4  C   UNL     1      36.045 -25.062 -14.186  0.00  0.00    +0.204 C 
BRANCH   4   5
ATOM      5  O   UNL     1      37.403 -25.350 -13.881  0.00  0.00    -0.344 OA
ATOM      6  C   UNL     1      37.777 -26.643 -14.338  0.00  0.00    +0.175 C 
ENDBRANCH   4   5
BRANCH   4   8
ATOM      7  O   UNL     1      35.011 -24.010 -16.095  0.00  0.00    -0.291 OA
ATOM      8  C   UNL     1      36.016 -24.125 -15.392  0.00  0.00    +0.209 C 
BRANCH   8   9
ATOM      9  C   UNL     1      37.268 -23.315 -15.667  0.00  0.00    +0.205 C 
BRANCH   9  10
ATOM     10  O   UNL     1      37.653 -22.595 -14.513  0.00  0.00    -0.375 OA
ATOM     11  H   UNL     1      36.869 -22.404 -13.974  0.00  0.00    +0.211 HD
ENDBRANCH   9  10
ENDBRANCH   8   9
ENDBRANCH   4   8
ENDBRANCH   1   4
BRANCH   1  12
ATOM     12  C   UNL     1      36.226 -24.581 -11.636  0.00  0.00    +0.169 C 
BRANCH  12  13
ATOM     13  O   UNL     1      35.427 -25.013 -10.535  0.00  0.00    -0.379 OA
ATOM     14  H   UNL     1      34.515 -24.708 -10.657  0.00  0.00    +0.211 HD
ENDBRANCH  12  13
BRANCH  12  15
ATOM     15  C   UNL     1      36.815 -23.215 -11.284  0.00  0.00    +0.169 C 
BRANCH  15  16
ATOM     16  O   UNL     1      38.187 -23.194 -11.668  0.00  0.00    -0.379 OA
ATOM     17  H   UNL     1      38.707 -22.747 -10.983  0.00  0.00    +0.211 HD
ENDBRANCH  15  16
ENDBRANCH  12  15
ENDBRANCH   1  12
TORSDOF 10
ENDMDL
MODEL 9
REMARK VINA RESULT:      -5.3      1.532      4.363
REMARK  Name = 449225
REMARK  10 active torsions:
REMARK  status: ('A' for Active; 'I' for Inactive)
REMARK    1  A    between atoms: C_1  and  O_2
REMARK    2  A    between atoms: C_1  and  C_4
REMARK    3  A    between atoms: C_1  and  C_12
REMARK    4  A    between atoms: C_4  and  O_5
REMARK    5  A    between atoms: C_4  and  C_8
REMARK    6  A    between atoms: C_8  and  C_9
REMARK    7  A    between atoms: C_9  and  O_10
REMARK    8  A    between atoms: C_12  and  O_13
REMARK    9  A    between atoms: C_12  and  C_15
REMARK   10  A    between atoms: C_15  and  O_16
REMARK                            x       y       z     vdW  Elec       q    Type
REMARK                         _______ _______ _______ _____ _____    ______ ____
ROOT
ATOM      1  C   UNL     1      36.194 -23.715 -13.687  0.00  0.00    +0.174 C 
ENDROOT
BRANCH   1   2
ATOM      2  O   UNL     1      37.395 -23.106 -13.221  0.00  0.00    -0.379 OA
ATOM      3  H   UNL     1      38.113 -23.758 -13.232  0.00  0.00    +0.211 HD
ENDBRANCH   1   2
BRANCH   1   4
ATOM      4  C   UNL     1      36.416 -24.357 -15.065  0.00  0.00    +0.204 C 
BRANCH   4   5
ATOM      5  O   UNL     1      35.157 -24.457 -15.718  0.00  0.00    -0.344 OA
ATOM      6  C   UNL     1      34.583 -23.177 -15.942  0.00  0.00    +0.175 C 
ENDBRANCH   4   5
BRANCH   4   8
ATOM      7  O   UNL     1      36.401 -26.759 -15.295  0.00  0.00    -0.291 OA
ATOM      8  C   UNL     1      37.056 -25.744 -15.048  0.00  0.00    +0.209 C 
BRANCH   8   9
ATOM      9  C   UNL     1      38.540 -25.817 -14.749  0.00  0.00    +0.205 C 
BRANCH   9  10
ATOM     10  O   UNL     1      39.189 -24.637 -15.180  0.00  0.00    -0.375 OA
ATOM     11  H   UNL     1      38.936 -24.445 -16.097  0.00  0.00    +0.211 HD
ENDBRANCH   9  10
ENDBRANCH   8   9
ENDBRANCH   4   8
ENDBRANCH   1   4
BRANCH   1  12
ATOM     12  C   UNL     1      35.625 -24.651 -12.605  0.00  0.00    +0.169 C 
BRANCH  12  13
ATOM     13  O   UNL     1      34.207 -24.742 -12.736  0.00  0.00    -0.379 OA
ATOM     14  H   UNL     1      33.850 -23.879 -12.994  0.00  0.00    +0.211 HD
ENDBRANCH  12  13
BRANCH  12  15
ATOM     15  C   UNL     1      35.937 -24.146 -11.195  0.00  0.00    +0.169 C 
BRANCH  15  16
ATOM     16  O   UNL     1      35.301 -25.001 -10.250  0.00  0.00    -0.379 OA
ATOM     17  H   UNL     1      34.340 -24.966 -10.379  0.00  0.00    +0.211 HD
ENDBRANCH  15  16
ENDBRANCH  12  15
ENDBRANCH   1  12
TORSDOF 10
ENDMDL
