MODEL 1
REMARK VINA RESULT:      -8.6      0.000      0.000
REMARK  Name = 55652
REMARK  4 active torsions:
REMARK  status: ('A' for Active; 'I' for Inactive)
REMARK    1  A    between atoms: C_3  and  N_11
REMARK    2  A    between atoms: C_5  and  N_18
REMARK    3  A    between atoms: C_20  and  C_21
REMARK    4  A    between atoms: C_21  and  C_24
REMARK                            x       y       z     vdW  Elec       q    Type
REMARK                         _______ _______ _______ _____ _____    ______ ____
ROOT
ATOM      1  O   UNL     1      30.772  -9.118 -22.901  0.00  0.00    -0.359 OA
ATOM      2  C   UNL     1      31.743 -10.054 -22.380  0.00  0.00    +0.091 C 
ATOM      3  C   UNL     1      33.173 -12.044 -23.143  0.00  0.00    -0.037 C 
ATOM      4  C   UNL     1      32.283 -10.869 -23.571  0.00  0.00    +0.008 C 
ATOM      5  C   UNL     1      32.460 -12.945 -22.118  0.00  0.00    +0.057 C 
ATOM      6  C   UNL     1      31.032 -10.988 -21.395  0.00  0.00    +0.029 C 
ATOM      7  C   UNL     1      31.927 -12.133 -20.933  0.00  0.00    +0.020 C 
ATOM      8  C   UNL     1      32.819  -9.196 -21.704  0.00  0.00    +0.030 C 
ATOM      9  C   UNL     1      32.766  -7.912 -22.495  0.00  0.00    +0.034 C 
ATOM     10  C   UNL     1      31.288  -7.787 -22.782  0.00  0.00    +0.142 C 
ENDROOT
BRANCH   3  11
ATOM     11  N   UNL     1      33.545 -12.810 -24.323  0.00  0.00    +0.389 N 
ATOM     12  C   UNL     1      32.562 -13.842 -24.651  0.00  0.00    -0.077 C 
ATOM     13  C   UNL     1      33.636 -11.978 -25.522  0.00  0.00    -0.077 C 
ATOM     14  C   UNL     1      32.933 -14.227 -26.075  0.00  0.00    -0.025 C 
ATOM     15  C   UNL     1      33.642 -13.003 -26.647  0.00  0.00    -0.025 C 
ATOM     16  H   UNL     1      34.448 -13.217 -24.079  0.00  0.00    -0.080 HD
ENDBRANCH   3  11
BRANCH   5  18
ATOM     17  O   UNL     1      31.649 -15.520 -21.150  0.00  0.00    -0.275 OA
ATOM     18  N   UNL     1      33.337 -13.991 -21.640  0.00  0.00    -0.281 N 
ATOM     19  C   UNL     1      34.766 -13.678 -21.663  0.00  0.00    +0.115 C 
ATOM     20  C   UNL     1      32.848 -15.228 -21.182  0.00  0.00    +0.230 C 
BRANCH  20  21
ATOM     21  C   UNL     1      33.901 -16.221 -20.712  0.00  0.00    +0.112 C 
BRANCH  21  24
ATOM     22 CL   UNL     1      34.866 -17.332 -25.672  0.00  0.00    -0.081 Cl
ATOM     23 CL   UNL     1      35.280 -20.417 -24.784  0.00  0.00    -0.081 Cl
ATOM     24  C   UNL     1      34.246 -17.263 -21.747  0.00  0.00    -0.012 C 
ATOM     25  C   UNL     1      34.385 -16.885 -23.073  0.00  0.00    +0.008 C 
ATOM     26  C   UNL     1      34.420 -18.580 -21.353  0.00  0.00    -0.003 C 
ATOM     27  C   UNL     1      34.706 -17.847 -24.029  0.00  0.00    +0.068 C 
ATOM     28  C   UNL     1      34.741 -19.544 -22.309  0.00  0.00    +0.012 C 
ATOM     29  C   UNL     1      34.883 -19.177 -23.647  0.00  0.00    +0.068 C 
ENDBRANCH  21  24
ENDBRANCH  20  21
ENDBRANCH   5  18
TORSDOF 4
ENDMDL
MODEL 2
REMARK VINA RESULT:      -8.5      4.845      9.186
REMARK  Name = 55652
REMARK  4 active torsions:
REMARK  status: ('A' for Active; 'I' for Inactive)
REMARK    1  A    between atoms: C_3  and  N_11
REMARK    2  A    between atoms: C_5  and  N_18
REMARK    3  A    between atoms: C_20  and  C_21
REMARK    4  A    between atoms: C_21  and  C_24
REMARK                            x       y       z     vdW  Elec       q    Type
REMARK                         _______ _______ _______ _____ _____    ______ ____
ROOT
ATOM      1  O   UNL     1      32.303 -15.359 -21.889  0.00  0.00    -0.359 OA
ATOM      2  C   UNL     1      32.968 -14.110 -22.187  0.00  0.00    +0.091 C 
ATOM      3  C   UNL     1      32.695 -11.587 -21.803  0.00  0.00    -0.037 C 
ATOM      4  C   UNL     1      32.226 -12.998 -21.420  0.00  0.00    +0.008 C 
ATOM      5  C   UNL     1      32.628 -11.366 -23.325  0.00  0.00    +0.057 C 
ATOM      6  C   UNL     1      32.864 -13.856 -23.694  0.00  0.00    +0.029 C 
ATOM      7  C   UNL     1      33.369 -12.472 -24.085  0.00  0.00    +0.020 C 
ATOM      8  C   UNL     1      34.417 -14.295 -21.721  0.00  0.00    +0.030 C 
ATOM      9  C   UNL     1      34.279 -15.286 -20.591  0.00  0.00    +0.034 C 
ATOM     10  C   UNL     1      33.170 -16.179 -21.096  0.00  0.00    +0.142 C 
ENDROOT
BRANCH   3  11
ATOM     11  N   UNL     1      31.869 -10.610 -21.109  0.00  0.00    +0.389 N 
ATOM     12  C   UNL     1      31.131 -11.198 -19.991  0.00  0.00    -0.077 C 
ATOM     13  C   UNL     1      32.658  -9.531 -20.517  0.00  0.00    -0.077 C 
ATOM     14  C   UNL     1      30.675  -9.978 -19.204  0.00  0.00    -0.025 C 
ATOM     15  C   UNL     1      31.676  -8.881 -19.553  0.00  0.00    -0.025 C 
ATOM     16  H   UNL     1      31.238 -10.262 -21.831  0.00  0.00    -0.080 HD
ENDBRANCH   3  11
BRANCH   5  18
ATOM     17  O   UNL     1      31.164  -8.903 -23.461  0.00  0.00    -0.275 OA
ATOM     18  N   UNL     1      33.166 -10.075 -23.691  0.00  0.00    -0.281 N 
ATOM     19  C   UNL     1      34.591 -10.053 -24.018  0.00  0.00    +0.115 C 
ATOM     20  C   UNL     1      32.369  -8.915 -23.731  0.00  0.00    +0.230 C 
BRANCH  20  21
ATOM     21  C   UNL     1      33.086  -7.635 -24.135  0.00  0.00    +0.112 C 
BRANCH  21  24
ATOM     22 CL   UNL     1      31.011  -3.094 -25.487  0.00  0.00    -0.081 Cl
ATOM     23 CL   UNL     1      30.193  -2.670 -22.384  0.00  0.00    -0.081 Cl
ATOM     24  C   UNL     1      32.361  -6.383 -23.712  0.00  0.00    -0.012 C 
ATOM     25  C   UNL     1      32.049  -5.423 -24.661  0.00  0.00    +0.008 C 
ATOM     26  C   UNL     1      32.018  -6.214 -22.379  0.00  0.00    -0.003 C 
ATOM     27  C   UNL     1      31.377  -4.266 -24.270  0.00  0.00    +0.068 C 
ATOM     28  C   UNL     1      31.345  -5.057 -21.987  0.00  0.00    +0.012 C 
ATOM     29  C   UNL     1      31.025  -4.082 -22.933  0.00  0.00    +0.068 C 
ENDBRANCH  21  24
ENDBRANCH  20  21
ENDBRANCH   5  18
TORSDOF 4
ENDMDL
MODEL 3
REMARK VINA RESULT:      -8.4      2.040      3.962
REMARK  Name = 55652
REMARK  4 active torsions:
REMARK  status: ('A' for Active; 'I' for Inactive)
REMARK    1  A    between atoms: C_3  and  N_11
REMARK    2  A    between atoms: C_5  and  N_18
REMARK    3  A    between atoms: C_20  and  C_21
REMARK    4  A    between atoms: C_21  and  C_24
REMARK                            x       y       z     vdW  Elec       q    Type
REMARK                         _______ _______ _______ _____ _____    ______ ____
ROOT
ATOM      1  O   UNL     1      33.075  -6.088 -22.823  0.00  0.00    -0.359 OA
ATOM      2  C   UNL     1      32.952  -7.344 -23.529  0.00  0.00    +0.091 C 
ATOM      3  C   UNL     1      32.415  -9.815 -23.083  0.00  0.00    -0.037 C 
ATOM      4  C   UNL     1      32.404  -8.382 -22.530  0.00  0.00    +0.008 C 
ATOM      5  C   UNL     1      33.813 -10.207 -23.599  0.00  0.00    +0.057 C 
ATOM      6  C   UNL     1      34.345  -7.769 -24.004  0.00  0.00    +0.029 C 
ATOM      7  C   UNL     1      34.352  -9.174 -24.595  0.00  0.00    +0.020 C 
ATOM      8  C   UNL     1      31.992  -7.069 -24.693  0.00  0.00    +0.030 C 
ATOM      9  C   UNL     1      31.121  -5.962 -24.152  0.00  0.00    +0.034 C 
ATOM     10  C   UNL     1      32.110  -5.161 -23.336  0.00  0.00    +0.142 C 
ENDROOT
BRANCH   3  11
ATOM     11  N   UNL     1      31.983 -10.729 -22.036  0.00  0.00    +0.389 N 
ATOM     12  C   UNL     1      32.195 -10.183 -20.696  0.00  0.00    -0.077 C 
ATOM     13  C   UNL     1      30.552 -11.019 -22.105  0.00  0.00    -0.077 C 
ATOM     14  C   UNL     1      31.344 -11.088 -19.820  0.00  0.00    -0.025 C 
ATOM     15  C   UNL     1      30.266 -11.641 -20.746  0.00  0.00    -0.025 C 
ATOM     16  H   UNL     1      32.544 -11.566 -22.193  0.00  0.00    -0.080 HD
ENDBRANCH   3  11
BRANCH   5  18
ATOM     17  O   UNL     1      33.766 -12.719 -22.216  0.00  0.00    -0.275 OA
ATOM     18  N   UNL     1      33.795 -11.516 -24.212  0.00  0.00    -0.281 N 
ATOM     19  C   UNL     1      33.804 -11.531 -25.675  0.00  0.00    +0.115 C 
ATOM     20  C   UNL     1      33.773 -12.700 -23.451  0.00  0.00    +0.230 C 
BRANCH  20  21
ATOM     21  C   UNL     1      33.757 -13.997 -24.247  0.00  0.00    +0.112 C 
BRANCH  21  24
ATOM     22 CL   UNL     1      35.068 -19.001 -24.201  0.00  0.00    -0.081 Cl
ATOM     23 CL   UNL     1      35.548 -18.732 -21.012  0.00  0.00    -0.081 Cl
ATOM     24  C   UNL     1      34.206 -15.195 -23.449  0.00  0.00    -0.012 C 
ATOM     25  C   UNL     1      34.411 -16.404 -24.094  0.00  0.00    +0.008 C 
ATOM     26  C   UNL     1      34.406 -15.066 -22.084  0.00  0.00    -0.003 C 
ATOM     27  C   UNL     1      34.827 -17.512 -23.356  0.00  0.00    +0.068 C 
ATOM     28  C   UNL     1      34.823 -16.173 -21.345  0.00  0.00    +0.012 C 
ATOM     29  C   UNL     1      35.033 -17.397 -21.982  0.00  0.00    +0.068 C 
ENDBRANCH  21  24
ENDBRANCH  20  21
ENDBRANCH   5  18
TORSDOF 4
ENDMDL
MODEL 4
REMARK VINA RESULT:      -8.3      3.297      7.833
REMARK  Name = 55652
REMARK  4 active torsions:
REMARK  status: ('A' for Active; 'I' for Inactive)
REMARK    1  A    between atoms: C_3  and  N_11
REMARK    2  A    between atoms: C_5  and  N_18
REMARK    3  A    between atoms: C_20  and  C_21
REMARK    4  A    between atoms: C_21  and  C_24
REMARK                            x       y       z     vdW  Elec       q    Type
REMARK                         _______ _______ _______ _____ _____    ______ ____
ROOT
ATOM      1  O   UNL     1      34.646 -19.931 -21.334  0.00  0.00    -0.359 OA
ATOM      2  C   UNL     1      34.985 -18.811 -22.183  0.00  0.00    +0.091 C 
ATOM      3  C   UNL     1      34.336 -16.357 -22.566  0.00  0.00    -0.037 C 
ATOM      4  C   UNL     1      34.234 -17.579 -21.641  0.00  0.00    +0.008 C 
ATOM      5  C   UNL     1      33.898 -16.701 -24.002  0.00  0.00    +0.057 C 
ATOM      6  C   UNL     1      34.509 -19.123 -23.606  0.00  0.00    +0.029 C 
ATOM      7  C   UNL     1      34.649 -17.925 -24.539  0.00  0.00    +0.020 C 
ATOM      8  C   UNL     1      36.509 -18.672 -22.090  0.00  0.00    +0.030 C 
ATOM      9  C   UNL     1      36.809 -19.203 -20.710  0.00  0.00    +0.034 C 
ATOM     10  C   UNL     1      35.803 -20.325 -20.586  0.00  0.00    +0.142 C 
ENDROOT
BRANCH   3  11
ATOM     11  N   UNL     1      33.513 -15.286 -22.025  0.00  0.00    +0.389 N 
ATOM     12  C   UNL     1      32.684 -15.730 -20.905  0.00  0.00    -0.077 C 
ATOM     13  C   UNL     1      34.313 -14.184 -21.491  0.00  0.00    -0.077 C 
ATOM     14  C   UNL     1      32.236 -14.422 -20.272  0.00  0.00    -0.025 C 
ATOM     15  C   UNL     1      33.304 -13.404 -20.660  0.00  0.00    -0.025 C 
ATOM     16  H   UNL     1      32.944 -14.988 -22.817  0.00  0.00    -0.080 HD
ENDBRANCH   3  11
BRANCH   5  18
ATOM     17  O   UNL     1      32.195 -14.404 -24.219  0.00  0.00    -0.275 OA
ATOM     18  N   UNL     1      34.093 -15.578 -24.891  0.00  0.00    -0.281 N 
ATOM     19  C   UNL     1      35.275 -15.647 -25.749  0.00  0.00    +0.115 C 
ATOM     20  C   UNL     1      33.201 -14.490 -24.930  0.00  0.00    +0.230 C 
BRANCH  20  21
ATOM     21  C   UNL     1      33.547 -13.388 -25.921  0.00  0.00    +0.112 C 
BRANCH  21  24
ATOM     22 CL   UNL     1      32.419 -10.025 -22.155  0.00  0.00    -0.081 Cl
ATOM     23 CL   UNL     1      34.714  -8.083 -23.354  0.00  0.00    -0.081 Cl
ATOM     24  C   UNL     1      33.827 -12.059 -25.266  0.00  0.00    -0.012 C 
ATOM     25  C   UNL     1      33.096 -11.683 -24.150  0.00  0.00    +0.008 C 
ATOM     26  C   UNL     1      34.812 -11.237 -25.790  0.00  0.00    -0.003 C 
ATOM     27  C   UNL     1      33.357 -10.455 -23.543  0.00  0.00    +0.068 C 
ATOM     28  C   UNL     1      35.073 -10.008 -25.183  0.00  0.00    +0.012 C 
ATOM     29  C   UNL     1      34.345  -9.617 -24.060  0.00  0.00    +0.068 C 
ENDBRANCH  21  24
ENDBRANCH  20  21
ENDBRANCH   5  18
TORSDOF 4
ENDMDL
MODEL 5
REMARK VINA RESULT:      -8.3      1.693      2.333
REMARK  Name = 55652
REMARK  4 active torsions:
REMARK  status: ('A' for Active; 'I' for Inactive)
REMARK    1  A    between atoms: C_3  and  N_11
REMARK    2  A    between atoms: C_5  and  N_18
REMARK    3  A    between atoms: C_20  and  C_21
REMARK    4  A    between atoms: C_21  and  C_24
REMARK                            x       y       z     vdW  Elec       q    Type
REMARK                         _______ _______ _______ _____ _____    ______ ____
ROOT
ATOM      1  O   UNL     1      30.626  -7.945 -23.531  0.00  0.00    -0.359 OA
ATOM      2  C   UNL     1      31.413  -8.931 -22.826  0.00  0.00    +0.091 C 
ATOM      3  C   UNL     1      33.344 -10.574 -23.230  0.00  0.00    -0.037 C 
ATOM      4  C   UNL     1      32.547  -9.376 -23.769  0.00  0.00    +0.008 C 
ATOM      5  C   UNL     1      32.417 -11.748 -22.866  0.00  0.00    +0.057 C 
ATOM      6  C   UNL     1      30.511 -10.127 -22.502  0.00  0.00    +0.029 C 
ATOM      7  C   UNL     1      31.292 -11.303 -21.925  0.00  0.00    +0.020 C 
ATOM      8  C   UNL     1      31.926  -8.223 -21.566  0.00  0.00    +0.030 C 
ATOM      9  C   UNL     1      32.010  -6.782 -22.005  0.00  0.00    +0.034 C 
ATOM     10  C   UNL     1      30.807  -6.665 -22.913  0.00  0.00    +0.142 C 
ENDROOT
BRANCH   3  11
ATOM     11  N   UNL     1      34.317 -10.984 -24.233  0.00  0.00    +0.389 N 
ATOM     12  C   UNL     1      33.689 -11.355 -25.500  0.00  0.00    -0.077 C 
ATOM     13  C   UNL     1      35.253  -9.913 -24.572  0.00  0.00    -0.077 C 
ATOM     14  C   UNL     1      34.858 -11.358 -26.473  0.00  0.00    -0.025 C 
ATOM     15  C   UNL     1      35.888 -10.414 -25.861  0.00  0.00    -0.025 C 
ATOM     16  H   UNL     1      34.793 -11.777 -23.804  0.00  0.00    -0.080 HD
ENDBRANCH   3  11
BRANCH   5  18
ATOM     17  O   UNL     1      33.825 -13.815 -24.270  0.00  0.00    -0.275 OA
ATOM     18  N   UNL     1      33.159 -12.833 -22.264  0.00  0.00    -0.281 N 
ATOM     19  C   UNL     1      33.174 -12.854 -20.802  0.00  0.00    +0.115 C 
ATOM     20  C   UNL     1      33.821 -13.807 -23.035  0.00  0.00    +0.230 C 
BRANCH  20  21
ATOM     21  C   UNL     1      34.557 -14.883 -22.249  0.00  0.00    +0.112 C 
BRANCH  21  24
ATOM     22 CL   UNL     1      34.851 -20.037 -21.910  0.00  0.00    -0.081 Cl
ATOM     23 CL   UNL     1      34.768 -20.143 -25.143  0.00  0.00    -0.081 Cl
ATOM     24  C   UNL     1      34.611 -16.211 -22.961  0.00  0.00    -0.012 C 
ATOM     25  C   UNL     1      34.695 -17.378 -22.218  0.00  0.00    +0.008 C 
ATOM     26  C   UNL     1      34.576 -16.242 -24.346  0.00  0.00    -0.003 C 
ATOM     27  C   UNL     1      34.744 -18.607 -22.876  0.00  0.00    +0.068 C 
ATOM     28  C   UNL     1      34.624 -17.471 -25.005  0.00  0.00    +0.012 C 
ATOM     29  C   UNL     1      34.709 -18.653 -24.269  0.00  0.00    +0.068 C 
ENDBRANCH  21  24
ENDBRANCH  20  21
ENDBRANCH   5  18
TORSDOF 4
ENDMDL
MODEL 6
REMARK VINA RESULT:      -8.2      4.922      9.376
REMARK  Name = 55652
REMARK  4 active torsions:
REMARK  status: ('A' for Active; 'I' for Inactive)
REMARK    1  A    between atoms: C_3  and  N_11
REMARK    2  A    between atoms: C_5  and  N_18
REMARK    3  A    between atoms: C_20  and  C_21
REMARK    4  A    between atoms: C_21  and  C_24
REMARK                            x       y       z     vdW  Elec       q    Type
REMARK                         _______ _______ _______ _____ _____    ______ ____
ROOT
ATOM      1  O   UNL     1      32.635 -14.601 -23.853  0.00  0.00    -0.359 OA
ATOM      2  C   UNL     1      33.216 -13.295 -23.641  0.00  0.00    +0.091 C 
ATOM      3  C   UNL     1      32.726 -11.090 -22.421  0.00  0.00    -0.037 C 
ATOM      4  C   UNL     1      32.348 -12.568 -22.595  0.00  0.00    +0.008 C 
ATOM      5  C   UNL     1      32.726 -10.348 -23.771  0.00  0.00    +0.057 C 
ATOM      6  C   UNL     1      33.177 -12.529 -24.967  0.00  0.00    +0.029 C 
ATOM      7  C   UNL     1      33.594 -11.071 -24.807  0.00  0.00    +0.020 C 
ATOM      8  C   UNL     1      34.647 -13.555 -23.155  0.00  0.00    +0.030 C 
ATOM      9  C   UNL     1      34.524 -14.888 -22.457  0.00  0.00    +0.034 C 
ATOM     10  C   UNL     1      33.518 -15.602 -23.331  0.00  0.00    +0.142 C 
ENDROOT
BRANCH   3  11
ATOM     11  N   UNL     1      31.788 -10.468 -21.498  0.00  0.00    +0.389 N 
ATOM     12  C   UNL     1      31.024 -11.453 -20.732  0.00  0.00    -0.077 C 
ATOM     13  C   UNL     1      32.457  -9.643 -20.494  0.00  0.00    -0.077 C 
ATOM     14  C   UNL     1      30.431 -10.622 -19.604  0.00  0.00    -0.025 C 
ATOM     15  C   UNL     1      31.371  -9.431 -19.450  0.00  0.00    -0.025 C 
ATOM     16  H   UNL     1      31.182  -9.911 -22.100  0.00  0.00    -0.080 HD
ENDBRANCH   3  11
BRANCH   5  18
ATOM     17  O   UNL     1      31.064  -8.049 -23.350  0.00  0.00    -0.275 OA
ATOM     18  N   UNL     1      33.181  -8.984 -23.617  0.00  0.00    -0.281 N 
ATOM     19  C   UNL     1      34.629  -8.788 -23.688  0.00  0.00    +0.115 C 
ATOM     20  C   UNL     1      32.289  -7.915 -23.414  0.00  0.00    +0.230 C 
BRANCH  20  21
ATOM     21  C   UNL     1      32.927  -6.540 -23.272  0.00  0.00    +0.112 C 
BRANCH  21  24
ATOM     22 CL   UNL     1      30.263  -2.628 -25.359  0.00  0.00    -0.081 Cl
ATOM     23 CL   UNL     1      32.034  -3.000 -28.042  0.00  0.00    -0.081 Cl
ATOM     24  C   UNL     1      32.690  -5.644 -24.461  0.00  0.00    -0.012 C 
ATOM     25  C   UNL     1      31.713  -4.664 -24.391  0.00  0.00    +0.008 C 
ATOM     26  C   UNL     1      33.455  -5.815 -25.604  0.00  0.00    -0.003 C 
ATOM     27  C   UNL     1      31.494  -3.834 -25.490  0.00  0.00    +0.068 C 
ATOM     28  C   UNL     1      33.238  -4.985 -26.704  0.00  0.00    +0.012 C 
ATOM     29  C   UNL     1      32.257  -3.995 -26.647  0.00  0.00    +0.068 C 
ENDBRANCH  21  24
ENDBRANCH  20  21
ENDBRANCH   5  18
TORSDOF 4
ENDMDL
MODEL 7
REMARK VINA RESULT:      -8.1      3.918      7.813
REMARK  Name = 55652
REMARK  4 active torsions:
REMARK  status: ('A' for Active; 'I' for Inactive)
REMARK    1  A    between atoms: C_3  and  N_11
REMARK    2  A    between atoms: C_5  and  N_18
REMARK    3  A    between atoms: C_20  and  C_21
REMARK    4  A    between atoms: C_21  and  C_24
REMARK                            x       y       z     vdW  Elec       q    Type
REMARK                         _______ _______ _______ _____ _____    ______ ____
ROOT
ATOM      1  O   UNL     1      35.968 -17.999 -21.339  0.00  0.00    -0.359 OA
ATOM      2  C   UNL     1      34.812 -17.132 -21.383  0.00  0.00    +0.091 C 
ATOM      3  C   UNL     1      33.644 -15.477 -22.960  0.00  0.00    -0.037 C 
ATOM      4  C   UNL     1      34.707 -16.576 -22.816  0.00  0.00    +0.008 C 
ATOM      5  C   UNL     1      33.856 -14.352 -21.930  0.00  0.00    +0.057 C 
ATOM      6  C   UNL     1      35.034 -15.981 -20.397  0.00  0.00    +0.029 C 
ATOM      7  C   UNL     1      33.956 -14.908 -20.506  0.00  0.00    +0.020 C 
ATOM      8  C   UNL     1      33.620 -18.016 -20.996  0.00  0.00    +0.030 C 
ATOM      9  C   UNL     1      34.053 -19.383 -21.466  0.00  0.00    +0.034 C 
ATOM     10  C   UNL     1      35.536 -19.355 -21.173  0.00  0.00    +0.142 C 
ENDROOT
BRANCH   3  11
ATOM     11  N   UNL     1      33.695 -14.945 -24.314  0.00  0.00    +0.389 N 
ATOM     12  C   UNL     1      34.059 -15.962 -25.300  0.00  0.00    -0.077 C 
ATOM     13  C   UNL     1      32.400 -14.431 -24.761  0.00  0.00    -0.077 C 
ATOM     14  C   UNL     1      33.674 -15.312 -26.620  0.00  0.00    -0.025 C 
ATOM     15  C   UNL     1      32.587 -14.303 -26.265  0.00  0.00    -0.025 C 
ATOM     16  H   UNL     1      34.395 -14.206 -24.263  0.00  0.00    -0.080 HD
ENDBRANCH   3  11
BRANCH   5  18
ATOM     17  O   UNL     1      33.837 -11.997 -23.567  0.00  0.00    -0.275 OA
ATOM     18  N   UNL     1      32.795 -13.372 -22.001  0.00  0.00    -0.281 N 
ATOM     19  C   UNL     1      31.637 -13.631 -21.146  0.00  0.00    +0.115 C 
ATOM     20  C   UNL     1      32.873 -12.242 -22.836  0.00  0.00    +0.230 C 
BRANCH  20  21
ATOM     21  C   UNL     1      31.673 -11.306 -22.794  0.00  0.00    +0.112 C 
BRANCH  21  24
ATOM     22 CL   UNL     1      32.748  -6.247 -22.915  0.00  0.00    -0.081 Cl
ATOM     23 CL   UNL     1      32.696  -6.272 -19.679  0.00  0.00    -0.081 Cl
ATOM     24  C   UNL     1      31.933 -10.034 -22.027  0.00  0.00    -0.012 C 
ATOM     25  C   UNL     1      32.190  -8.862 -22.719  0.00  0.00    +0.008 C 
ATOM     26  C   UNL     1      31.908 -10.059 -20.641  0.00  0.00    -0.003 C 
ATOM     27  C   UNL     1      32.429  -7.685 -22.010  0.00  0.00    +0.068 C 
ATOM     28  C   UNL     1      32.146  -8.883 -19.930  0.00  0.00    +0.012 C 
ATOM     29  C   UNL     1      32.407  -7.696 -20.615  0.00  0.00    +0.068 C 
ENDBRANCH  21  24
ENDBRANCH  20  21
ENDBRANCH   5  18
TORSDOF 4
ENDMDL
MODEL 8
REMARK VINA RESULT:      -8.1      3.821      7.908
REMARK  Name = 55652
REMARK  4 active torsions:
REMARK  status: ('A' for Active; 'I' for Inactive)
REMARK    1  A    between atoms: C_3  and  N_11
REMARK    2  A    between atoms: C_5  and  N_18
REMARK    3  A    between atoms: C_20  and  C_21
REMARK    4  A    between atoms: C_21  and  C_24
REMARK                            x       y       z     vdW  Elec       q    Type
REMARK                         _______ _______ _______ _____ _____    ______ ____
ROOT
ATOM      1  O   UNL     1      36.100 -17.478 -23.166  0.00  0.00    -0.359 OA
ATOM      2  C   UNL     1      34.931 -16.746 -22.734  0.00  0.00    +0.091 C 
ATOM      3  C   UNL     1      33.320 -14.928 -23.566  0.00  0.00    -0.037 C 
ATOM      4  C   UNL     1      34.436 -15.917 -23.935  0.00  0.00    +0.008 C 
ATOM      5  C   UNL     1      33.734 -14.027 -22.388  0.00  0.00    +0.057 C 
ATOM      6  C   UNL     1      35.343 -15.809 -21.593  0.00  0.00    +0.029 C 
ATOM      7  C   UNL     1      34.222 -14.855 -21.194  0.00  0.00    +0.020 C 
ATOM      8  C   UNL     1      33.922 -17.810 -22.285  0.00  0.00    +0.030 C 
ATOM      9  C   UNL     1      34.286 -18.996 -23.144  0.00  0.00    +0.034 C 
ATOM     10  C   UNL     1      35.791 -18.876 -23.216  0.00  0.00    +0.142 C 
ENDROOT
BRANCH   3  11
ATOM     11  N   UNL     1      32.996 -14.123 -24.734  0.00  0.00    +0.389 N 
ATOM     12  C   UNL     1      34.091 -13.234 -25.120  0.00  0.00    -0.077 C 
ATOM     13  C   UNL     1      32.735 -14.939 -25.919  0.00  0.00    -0.077 C 
ATOM     14  C   UNL     1      33.706 -12.808 -26.528  0.00  0.00    -0.025 C 
ATOM     15  C   UNL     1      32.811 -13.927 -27.052  0.00  0.00    -0.025 C 
ATOM     16  H   UNL     1      32.169 -13.598 -24.450  0.00  0.00    -0.080 HD
ENDBRANCH   3  11
BRANCH   5  18
ATOM     17  O   UNL     1      33.193 -11.391 -23.378  0.00  0.00    -0.275 OA
ATOM     18  N   UNL     1      32.645 -13.170 -21.977  0.00  0.00    -0.281 N 
ATOM     19  C   UNL     1      31.752 -13.724 -20.959  0.00  0.00    +0.115 C 
ATOM     20  C   UNL     1      32.456 -11.885 -22.520  0.00  0.00    +0.230 C 
BRANCH  20  21
ATOM     21  C   UNL     1      31.263 -11.109 -21.981  0.00  0.00    +0.112 C 
BRANCH  21  24
ATOM     22 CL   UNL     1      30.980  -6.624 -24.543  0.00  0.00    -0.081 Cl
ATOM     23 CL   UNL     1      32.120  -5.163 -21.890  0.00  0.00    -0.081 Cl
ATOM     24  C   UNL     1      31.474  -9.616 -21.974  0.00  0.00    -0.012 C 
ATOM     25  C   UNL     1      31.173  -8.881 -23.110  0.00  0.00    +0.008 C 
ATOM     26  C   UNL     1      31.963  -9.003 -20.831  0.00  0.00    -0.003 C 
ATOM     27  C   UNL     1      31.366  -7.500 -23.104  0.00  0.00    +0.068 C 
ATOM     28  C   UNL     1      32.156  -7.622 -20.824  0.00  0.00    +0.012 C 
ATOM     29  C   UNL     1      31.858  -6.871 -21.961  0.00  0.00    +0.068 C 
ENDBRANCH  21  24
ENDBRANCH  20  21
ENDBRANCH   5  18
TORSDOF 4
ENDMDL
MODEL 9
REMARK VINA RESULT:      -8.1      2.059      2.391
REMARK  Name = 55652
REMARK  4 active torsions:
REMARK  status: ('A' for Active; 'I' for Inactive)
REMARK    1  A    between atoms: C_3  and  N_11
REMARK    2  A    between atoms: C_5  and  N_18
REMARK    3  A    between atoms: C_20  and  C_21
REMARK    4  A    between atoms: C_21  and  C_24
REMARK                            x       y       z     vdW  Elec       q    Type
REMARK                         _______ _______ _______ _____ _____    ______ ____
ROOT
ATOM      1  O   UNL     1      30.680 -10.107 -22.653  0.00  0.00    -0.359 OA
ATOM      2  C   UNL     1      31.816 -10.936 -22.319  0.00  0.00    +0.091 C 
ATOM      3  C   UNL     1      33.402 -12.640 -23.400  0.00  0.00    -0.037 C 
ATOM      4  C   UNL     1      32.324 -11.570 -23.628  0.00  0.00    +0.008 C 
ATOM      5  C   UNL     1      32.930 -13.710 -22.399  0.00  0.00    +0.057 C 
ATOM      6  C   UNL     1      31.345 -12.035 -21.361  0.00  0.00    +0.029 C 
ATOM      7  C   UNL     1      32.428 -13.076 -21.097  0.00  0.00    +0.020 C 
ATOM      8  C   UNL     1      32.838  -9.992 -21.675  0.00  0.00    +0.030 C 
ATOM      9  C   UNL     1      32.531  -8.670 -22.334  0.00  0.00    +0.034 C 
ATOM     10  C   UNL     1      31.027  -8.730 -22.462  0.00  0.00    +0.142 C 
ENDROOT
BRANCH   3  11
ATOM     11  N   UNL     1      33.740 -13.251 -24.678  0.00  0.00    +0.389 N 
ATOM     12  C   UNL     1      32.613 -13.977 -25.263  0.00  0.00    -0.077 C 
ATOM     13  C   UNL     1      34.119 -12.262 -25.686  0.00  0.00    -0.077 C 
ATOM     14  C   UNL     1      33.050 -14.178 -26.706  0.00  0.00    -0.025 C 
ATOM     15  C   UNL     1      34.043 -13.053 -26.983  0.00  0.00    -0.025 C 
ATOM     16  H   UNL     1      34.514 -13.877 -24.455  0.00  0.00    -0.080 HD
ENDBRANCH   3  11
BRANCH   5  18
ATOM     17  O   UNL     1      33.492 -16.113 -23.861  0.00  0.00    -0.275 OA
ATOM     18  N   UNL     1      33.983 -14.657 -22.109  0.00  0.00    -0.281 N 
ATOM     19  C   UNL     1      34.824 -14.334 -20.956  0.00  0.00    +0.115 C 
ATOM     20  C   UNL     1      34.185 -15.814 -22.884  0.00  0.00    +0.230 C 
BRANCH  20  21
ATOM     21  C   UNL     1      35.336 -16.709 -22.446  0.00  0.00    +0.112 C 
BRANCH  21  24
ATOM     22 CL   UNL     1      36.628 -21.136 -20.103  0.00  0.00    -0.081 Cl
ATOM     23 CL   UNL     1      33.480 -21.621 -19.529  0.00  0.00    -0.081 Cl
ATOM     24  C   UNL     1      34.886 -17.947 -21.713  0.00  0.00    -0.012 C 
ATOM     25  C   UNL     1      35.831 -18.868 -21.290  0.00  0.00    +0.008 C 
ATOM     26  C   UNL     1      33.535 -18.143 -21.475  0.00  0.00    -0.003 C 
ATOM     27  C   UNL     1      35.416 -20.013 -20.610  0.00  0.00    +0.068 C 
ATOM     28  C   UNL     1      33.118 -19.288 -20.795  0.00  0.00    +0.012 C 
ATOM     29  C   UNL     1      34.059 -20.223 -20.364  0.00  0.00    +0.068 C 
ENDBRANCH  21  24
ENDBRANCH  20  21
ENDBRANCH   5  18
TORSDOF 4
ENDMDL
