MODEL 1
REMARK VINA RESULT:      -8.4      0.000      0.000
REMARK  Name = 9873754
REMARK  12 active torsions:
REMARK  status: ('A' for Active; 'I' for Inactive)
REMARK    1  A    between atoms: O_1  and  C_3
REMARK    2  A    between atoms: O_1  and  C_13
REMARK    3  A    between atoms: C_3  and  C_4
REMARK    4  A    between atoms: C_4  and  C_5
REMARK    5  A    between atoms: C_5  and  C_6
REMARK    6  A    between atoms: C_6  and  C_7
REMARK    7  A    between atoms: C_7  and  C_8
REMARK    8  A    between atoms: C_8  and  C_9
REMARK    9  A    between atoms: C_9  and  C_10
REMARK   10  A    between atoms: C_13  and  C_14
REMARK   11  A    between atoms: C_17  and  O_20
REMARK   12  A    between atoms: C_19  and  O_22
REMARK                            x       y       z     vdW  Elec       q    Type
REMARK                         _______ _______ _______ _____ _____    ______ ____
ROOT
ATOM      1  O   UNL     1      34.590 -18.085 -22.862  0.00  0.00    -0.443 OA
ENDROOT
BRANCH   1   3
ATOM      2  O   UNL     1      34.927 -19.665 -24.508  0.00  0.00    -0.250 OA
ATOM      3  C   UNL     1      34.772 -18.507 -24.148  0.00  0.00    +0.317 C 
BRANCH   3   4
ATOM      4  C   UNL     1      34.716 -17.307 -25.069  0.00  0.00    +0.110 C 
BRANCH   4   5
ATOM      5  C   UNL     1      34.590 -15.980 -24.322  0.00  0.00    +0.012 C 
BRANCH   5   6
ATOM      6  C   UNL     1      33.446 -15.113 -24.857  0.00  0.00    +0.001 C 
BRANCH   6   7
ATOM      7  C   UNL     1      33.513 -13.695 -24.287  0.00  0.00    +0.000 C 
BRANCH   7   8
ATOM      8  C   UNL     1      33.912 -13.709 -22.808  0.00  0.00    +0.000 C 
BRANCH   8   9
ATOM      9  C   UNL     1      32.700 -13.973 -21.910  0.00  0.00    +0.000 C 
BRANCH   9  10
ATOM     10  C   UNL     1      33.026 -14.839 -20.679  0.00  0.00    +0.000 C 
ATOM     11  C   UNL     1      32.164 -16.104 -20.691  0.00  0.00    +0.000 C 
ATOM     12  C   UNL     1      34.504 -15.224 -20.609  0.00  0.00    +0.000 C 
ENDBRANCH   9  10
ENDBRANCH   8   9
ENDBRANCH   7   8
ENDBRANCH   6   7
ENDBRANCH   5   6
ENDBRANCH   4   5
ENDBRANCH   3   4
ENDBRANCH   1   3
BRANCH   1  13
ATOM     13  C   UNL     1      35.523 -18.602 -21.907  0.00  0.00    +0.235 C 
BRANCH  13  14
ATOM     14  C   UNL     1      34.822 -19.596 -21.026  0.00  0.00    +0.024 C 
ATOM     15  C   UNL     1      35.560 -20.534 -20.307  0.00  0.00    +0.039 C 
ATOM     16  C   UNL     1      33.430 -19.579 -20.927  0.00  0.00    +0.003 C 
ATOM     17  C   UNL     1      34.909 -21.456 -19.488  0.00  0.00    +0.172 C 
ATOM     18  C   UNL     1      32.778 -20.501 -20.110  0.00  0.00    +0.040 C 
ATOM     19  C   UNL     1      33.518 -21.440 -19.390  0.00  0.00    +0.168 C 
BRANCH  17  20
ATOM     20  O   UNL     1      35.642 -22.368 -18.790  0.00  0.00    -0.468 OA
ATOM     21  C   UNL     1      36.515 -21.863 -17.782  0.00  0.00    +0.253 C 
ENDBRANCH  17  20
BRANCH  19  22
ATOM     22  O   UNL     1      32.869 -22.336 -18.594  0.00  0.00    -0.503 OA
ATOM     23  H   UNL     1      33.190 -22.515 -17.733  0.00  0.00    +0.292 HD
ENDBRANCH  19  22
ENDBRANCH  13  14
ENDBRANCH   1  13
TORSDOF 12
ENDMDL
MODEL 2
REMARK VINA RESULT:      -8.2      1.607      2.349
REMARK  Name = 9873754
REMARK  12 active torsions:
REMARK  status: ('A' for Active; 'I' for Inactive)
REMARK    1  A    between atoms: O_1  and  C_3
REMARK    2  A    between atoms: O_1  and  C_13
REMARK    3  A    between atoms: C_3  and  C_4
REMARK    4  A    between atoms: C_4  and  C_5
REMARK    5  A    between atoms: C_5  and  C_6
REMARK    6  A    between atoms: C_6  and  C_7
REMARK    7  A    between atoms: C_7  and  C_8
REMARK    8  A    between atoms: C_8  and  C_9
REMARK    9  A    between atoms: C_9  and  C_10
REMARK   10  A    between atoms: C_13  and  C_14
REMARK   11  A    between atoms: C_17  and  O_20
REMARK   12  A    between atoms: C_19  and  O_22
REMARK                            x       y       z     vdW  Elec       q    Type
REMARK                         _______ _______ _______ _____ _____    ______ ____
ROOT
ATOM      1  O   UNL     1      35.022 -18.763 -23.598  0.00  0.00    -0.443 OA
ENDROOT
BRANCH   1   3
ATOM      2  O   UNL     1      34.778 -17.492 -25.508  0.00  0.00    -0.250 OA
ATOM      3  C   UNL     1      34.968 -17.595 -24.304  0.00  0.00    +0.317 C 
BRANCH   3   4
ATOM      4  C   UNL     1      35.148 -16.436 -23.347  0.00  0.00    +0.110 C 
BRANCH   4   5
ATOM      5  C   UNL     1      33.847 -15.686 -23.060  0.00  0.00    +0.012 C 
BRANCH   5   6
ATOM      6  C   UNL     1      33.443 -15.760 -21.584  0.00  0.00    +0.001 C 
BRANCH   6   7
ATOM      7  C   UNL     1      33.705 -14.431 -20.872  0.00  0.00    +0.000 C 
BRANCH   7   8
ATOM      8  C   UNL     1      32.395 -13.721 -20.521  0.00  0.00    +0.000 C 
BRANCH   8   9
ATOM      9  C   UNL     1      31.999 -12.719 -21.609  0.00  0.00    +0.000 C 
BRANCH   9  10
ATOM     10  C   UNL     1      31.292 -11.465 -21.063  0.00  0.00    +0.000 C 
ATOM     11  C   UNL     1      31.558 -11.332 -19.562  0.00  0.00    +0.000 C 
ATOM     12  C   UNL     1      31.730 -10.187 -21.780  0.00  0.00    +0.000 C 
ENDBRANCH   9  10
ENDBRANCH   8   9
ENDBRANCH   7   8
ENDBRANCH   6   7
ENDBRANCH   5   6
ENDBRANCH   4   5
ENDBRANCH   3   4
ENDBRANCH   1   3
BRANCH   1  13
ATOM     13  C   UNL     1      35.619 -18.671 -22.300  0.00  0.00    +0.235 C 
BRANCH  13  14
ATOM     14  C   UNL     1      34.883 -19.577 -21.357  0.00  0.00    +0.024 C 
ATOM     15  C   UNL     1      35.588 -20.479 -20.562  0.00  0.00    +0.039 C 
ATOM     16  C   UNL     1      33.491 -19.515 -21.276  0.00  0.00    +0.003 C 
ATOM     17  C   UNL     1      34.904 -21.319 -19.685  0.00  0.00    +0.172 C 
ATOM     18  C   UNL     1      32.806 -20.356 -20.400  0.00  0.00    +0.040 C 
ATOM     19  C   UNL     1      33.513 -21.259 -19.604  0.00  0.00    +0.168 C 
BRANCH  17  20
ATOM     20  O   UNL     1      35.605 -22.197 -18.912  0.00  0.00    -0.468 OA
ATOM     21  C   UNL     1      36.614 -21.651 -18.065  0.00  0.00    +0.253 C 
ENDBRANCH  17  20
BRANCH  19  22
ATOM     22  O   UNL     1      32.832 -22.075 -18.751  0.00  0.00    -0.503 OA
ATOM     23  H   UNL     1      32.393 -21.713 -18.007  0.00  0.00    +0.292 HD
ENDBRANCH  19  22
ENDBRANCH  13  14
ENDBRANCH   1  13
TORSDOF 12
ENDMDL
MODEL 3
REMARK VINA RESULT:      -8.1      1.859      3.231
REMARK  Name = 9873754
REMARK  12 active torsions:
REMARK  status: ('A' for Active; 'I' for Inactive)
REMARK    1  A    between atoms: O_1  and  C_3
REMARK    2  A    between atoms: O_1  and  C_13
REMARK    3  A    between atoms: C_3  and  C_4
REMARK    4  A    between atoms: C_4  and  C_5
REMARK    5  A    between atoms: C_5  and  C_6
REMARK    6  A    between atoms: C_6  and  C_7
REMARK    7  A    between atoms: C_7  and  C_8
REMARK    8  A    between atoms: C_8  and  C_9
REMARK    9  A    between atoms: C_9  and  C_10
REMARK   10  A    between atoms: C_13  and  C_14
REMARK   11  A    between atoms: C_17  and  O_20
REMARK   12  A    between atoms: C_19  and  O_22
REMARK                            x       y       z     vdW  Elec       q    Type
REMARK                         _______ _______ _______ _____ _____    ______ ____
ROOT
ATOM      1  O   UNL     1      34.712 -17.791 -22.625  0.00  0.00    -0.443 OA
ENDROOT
BRANCH   1   3
ATOM      2  O   UNL     1      35.420 -15.851 -23.651  0.00  0.00    -0.250 OA
ATOM      3  C   UNL     1      34.935 -16.446 -22.699  0.00  0.00    +0.317 C 
BRANCH   3   4
ATOM      4  C   UNL     1      34.450 -15.798 -21.421  0.00  0.00    +0.110 C 
BRANCH   4   5
ATOM      5  C   UNL     1      33.997 -14.351 -21.614  0.00  0.00    +0.012 C 
BRANCH   5   6
ATOM      6  C   UNL     1      32.598 -14.253 -22.231  0.00  0.00    +0.001 C 
BRANCH   6   7
ATOM      7  C   UNL     1      32.629 -13.477 -23.550  0.00  0.00    +0.000 C 
BRANCH   7   8
ATOM      8  C   UNL     1      33.892 -12.618 -23.660  0.00  0.00    +0.000 C 
BRANCH   8   9
ATOM      9  C   UNL     1      33.555 -11.195 -24.113  0.00  0.00    +0.000 C 
BRANCH   9  10
ATOM     10  C   UNL     1      34.794 -10.295 -24.283  0.00  0.00    +0.000 C 
ATOM     11  C   UNL     1      35.326 -10.410 -25.713  0.00  0.00    +0.000 C 
ATOM     12  C   UNL     1      34.500  -8.830 -23.959  0.00  0.00    +0.000 C 
ENDBRANCH   9  10
ENDBRANCH   8   9
ENDBRANCH   7   8
ENDBRANCH   6   7
ENDBRANCH   5   6
ENDBRANCH   4   5
ENDBRANCH   3   4
ENDBRANCH   1   3
BRANCH   1  13
ATOM     13  C   UNL     1      35.653 -18.528 -21.837  0.00  0.00    +0.235 C 
BRANCH  13  14
ATOM     14  C   UNL     1      34.915 -19.548 -21.019  0.00  0.00    +0.024 C 
ATOM     15  C   UNL     1      35.622 -20.477 -20.257  0.00  0.00    +0.039 C 
ATOM     16  C   UNL     1      33.519 -19.564 -21.021  0.00  0.00    +0.003 C 
ATOM     17  C   UNL     1      34.936 -21.423 -19.497  0.00  0.00    +0.172 C 
ATOM     18  C   UNL     1      32.833 -20.511 -20.261  0.00  0.00    +0.040 C 
ATOM     19  C   UNL     1      33.541 -21.441 -19.500  0.00  0.00    +0.168 C 
BRANCH  17  20
ATOM     20  O   UNL     1      35.638 -22.326 -18.757  0.00  0.00    -0.468 OA
ATOM     21  C   UNL     1      36.553 -21.804 -17.795  0.00  0.00    +0.253 C 
ENDBRANCH  17  20
BRANCH  19  22
ATOM     22  O   UNL     1      32.858 -22.360 -18.761  0.00  0.00    -0.503 OA
ATOM     23  H   UNL     1      33.318 -22.916 -18.163  0.00  0.00    +0.292 HD
ENDBRANCH  19  22
ENDBRANCH  13  14
ENDBRANCH   1  13
TORSDOF 12
ENDMDL
MODEL 4
REMARK VINA RESULT:      -7.9      3.470      6.005
REMARK  Name = 9873754
REMARK  12 active torsions:
REMARK  status: ('A' for Active; 'I' for Inactive)
REMARK    1  A    between atoms: O_1  and  C_3
REMARK    2  A    between atoms: O_1  and  C_13
REMARK    3  A    between atoms: C_3  and  C_4
REMARK    4  A    between atoms: C_4  and  C_5
REMARK    5  A    between atoms: C_5  and  C_6
REMARK    6  A    between atoms: C_6  and  C_7
REMARK    7  A    between atoms: C_7  and  C_8
REMARK    8  A    between atoms: C_8  and  C_9
REMARK    9  A    between atoms: C_9  and  C_10
REMARK   10  A    between atoms: C_13  and  C_14
REMARK   11  A    between atoms: C_17  and  O_20
REMARK   12  A    between atoms: C_19  and  O_22
REMARK                            x       y       z     vdW  Elec       q    Type
REMARK                         _______ _______ _______ _____ _____    ______ ____
ROOT
ATOM      1  O   UNL     1      32.711 -22.408 -18.686  0.00  0.00    -0.443 OA
ENDROOT
BRANCH   1   3
ATOM      2  O   UNL     1      32.808 -20.535 -20.030  0.00  0.00    -0.250 OA
ATOM      3  C   UNL     1      33.349 -21.419 -19.381  0.00  0.00    +0.317 C 
BRANCH   3   4
ATOM      4  C   UNL     1      34.843 -21.573 -19.191  0.00  0.00    +0.110 C 
BRANCH   4   5
ATOM      5  C   UNL     1      35.650 -21.181 -20.429  0.00  0.00    +0.012 C 
BRANCH   5   6
ATOM      6  C   UNL     1      36.651 -20.057 -20.143  0.00  0.00    +0.001 C 
BRANCH   6   7
ATOM      7  C   UNL     1      36.584 -18.971 -21.218  0.00  0.00    +0.000 C 
BRANCH   7   8
ATOM      8  C   UNL     1      35.324 -18.113 -21.064  0.00  0.00    +0.000 C 
BRANCH   8   9
ATOM      9  C   UNL     1      34.410 -18.250 -22.284  0.00  0.00    +0.000 C 
BRANCH   9  10
ATOM     10  C   UNL     1      35.164 -18.196 -23.626  0.00  0.00    +0.000 C 
ATOM     11  C   UNL     1      34.774 -19.399 -24.488  0.00  0.00    +0.000 C 
ATOM     12  C   UNL     1      34.896 -16.902 -24.396  0.00  0.00    +0.000 C 
ENDBRANCH   9  10
ENDBRANCH   8   9
ENDBRANCH   7   8
ENDBRANCH   6   7
ENDBRANCH   5   6
ENDBRANCH   4   5
ENDBRANCH   3   4
ENDBRANCH   1   3
BRANCH   1  13
ATOM     13  C   UNL     1      33.535 -23.155 -17.784  0.00  0.00    +0.235 C 
BRANCH  13  14
ATOM     14  C   UNL     1      32.826 -23.285 -16.467  0.00  0.00    +0.024 C 
ATOM     15  C   UNL     1      33.535 -23.655 -15.326  0.00  0.00    +0.039 C 
ATOM     16  C   UNL     1      31.456 -23.033 -16.386  0.00  0.00    +0.003 C 
ATOM     17  C   UNL     1      32.877 -23.775 -14.103  0.00  0.00    +0.172 C 
ATOM     18  C   UNL     1      30.796 -23.153 -15.163  0.00  0.00    +0.040 C 
ATOM     19  C   UNL     1      31.506 -23.524 -14.021  0.00  0.00    +0.168 C 
BRANCH  17  20
ATOM     20  O   UNL     1      33.581 -24.138 -12.994  0.00  0.00    -0.468 OA
ATOM     21  C   UNL     1      35.001 -24.194 -13.119  0.00  0.00    +0.253 C 
ENDBRANCH  17  20
BRANCH  19  22
ATOM     22  O   UNL     1      30.851 -23.638 -12.833  0.00  0.00    -0.503 OA
ATOM     23  H   UNL     1      29.914 -23.622 -12.811  0.00  0.00    +0.292 HD
ENDBRANCH  19  22
ENDBRANCH  13  14
ENDBRANCH   1  13
TORSDOF 12
ENDMDL
MODEL 5
REMARK VINA RESULT:      -7.9      3.122      8.109
REMARK  Name = 9873754
REMARK  12 active torsions:
REMARK  status: ('A' for Active; 'I' for Inactive)
REMARK    1  A    between atoms: O_1  and  C_3
REMARK    2  A    between atoms: O_1  and  C_13
REMARK    3  A    between atoms: C_3  and  C_4
REMARK    4  A    between atoms: C_4  and  C_5
REMARK    5  A    between atoms: C_5  and  C_6
REMARK    6  A    between atoms: C_6  and  C_7
REMARK    7  A    between atoms: C_7  and  C_8
REMARK    8  A    between atoms: C_8  and  C_9
REMARK    9  A    between atoms: C_9  and  C_10
REMARK   10  A    between atoms: C_13  and  C_14
REMARK   11  A    between atoms: C_17  and  O_20
REMARK   12  A    between atoms: C_19  and  O_22
REMARK                            x       y       z     vdW  Elec       q    Type
REMARK                         _______ _______ _______ _____ _____    ______ ____
ROOT
ATOM      1  O   UNL     1      34.344 -19.437 -20.562  0.00  0.00    -0.443 OA
ENDROOT
BRANCH   1   3
ATOM      2  O   UNL     1      32.435 -20.727 -20.672  0.00  0.00    -0.250 OA
ATOM      3  C   UNL     1      33.584 -20.541 -20.297  0.00  0.00    +0.317 C 
BRANCH   3   4
ATOM      4  C   UNL     1      34.408 -21.520 -19.489  0.00  0.00    +0.110 C 
BRANCH   4   5
ATOM      5  C   UNL     1      33.558 -22.442 -18.614  0.00  0.00    +0.012 C 
BRANCH   5   6
ATOM      6  C   UNL     1      34.279 -22.855 -17.327  0.00  0.00    +0.001 C 
BRANCH   6   7
ATOM      7  C   UNL     1      33.327 -23.566 -16.363  0.00  0.00    +0.000 C 
BRANCH   7   8
ATOM      8  C   UNL     1      31.878 -23.122 -16.585  0.00  0.00    +0.000 C 
BRANCH   8   9
ATOM      9  C   UNL     1      31.181 -22.826 -15.254  0.00  0.00    +0.000 C 
BRANCH   9  10
ATOM     10  C   UNL     1      29.732 -23.345 -15.191  0.00  0.00    +0.000 C 
ATOM     11  C   UNL     1      28.865 -22.586 -16.199  0.00  0.00    +0.000 C 
ATOM     12  C   UNL     1      29.638 -24.847 -15.460  0.00  0.00    +0.000 C 
ENDBRANCH   9  10
ENDBRANCH   8   9
ENDBRANCH   7   8
ENDBRANCH   6   7
ENDBRANCH   5   6
ENDBRANCH   4   5
ENDBRANCH   3   4
ENDBRANCH   1   3
BRANCH   1  13
ATOM     13  C   UNL     1      35.366 -19.615 -21.549  0.00  0.00    +0.235 C 
BRANCH  13  14
ATOM     14  C   UNL     1      35.087 -18.708 -22.712  0.00  0.00    +0.024 C 
ATOM     15  C   UNL     1      35.199 -17.327 -22.563  0.00  0.00    +0.039 C 
ATOM     16  C   UNL     1      34.716 -19.250 -23.943  0.00  0.00    +0.003 C 
ATOM     17  C   UNL     1      34.941 -16.485 -23.644  0.00  0.00    +0.172 C 
ATOM     18  C   UNL     1      34.457 -18.408 -25.025  0.00  0.00    +0.040 C 
ATOM     19  C   UNL     1      34.569 -17.025 -24.875  0.00  0.00    +0.168 C 
BRANCH  17  20
ATOM     20  O   UNL     1      35.054 -15.136 -23.485  0.00  0.00    -0.468 OA
ATOM     21  C   UNL     1      34.006 -14.477 -22.777  0.00  0.00    +0.253 C 
ENDBRANCH  17  20
BRANCH  19  22
ATOM     22  O   UNL     1      34.314 -16.214 -25.939  0.00  0.00    -0.503 OA
ATOM     23  H   UNL     1      34.012 -16.581 -26.746  0.00  0.00    +0.292 HD
ENDBRANCH  19  22
ENDBRANCH  13  14
ENDBRANCH   1  13
TORSDOF 12
ENDMDL
MODEL 6
REMARK VINA RESULT:      -7.9      1.509      3.013
REMARK  Name = 9873754
REMARK  12 active torsions:
REMARK  status: ('A' for Active; 'I' for Inactive)
REMARK    1  A    between atoms: O_1  and  C_3
REMARK    2  A    between atoms: O_1  and  C_13
REMARK    3  A    between atoms: C_3  and  C_4
REMARK    4  A    between atoms: C_4  and  C_5
REMARK    5  A    between atoms: C_5  and  C_6
REMARK    6  A    between atoms: C_6  and  C_7
REMARK    7  A    between atoms: C_7  and  C_8
REMARK    8  A    between atoms: C_8  and  C_9
REMARK    9  A    between atoms: C_9  and  C_10
REMARK   10  A    between atoms: C_13  and  C_14
REMARK   11  A    between atoms: C_17  and  O_20
REMARK   12  A    between atoms: C_19  and  O_22
REMARK                            x       y       z     vdW  Elec       q    Type
REMARK                         _______ _______ _______ _____ _____    ______ ____
ROOT
ATOM      1  O   UNL     1      35.552 -17.426 -20.883  0.00  0.00    -0.443 OA
ENDROOT
BRANCH   1   3
ATOM      2  O   UNL     1      34.847 -16.240 -22.731  0.00  0.00    -0.250 OA
ATOM      3  C   UNL     1      34.916 -16.400 -21.521  0.00  0.00    +0.317 C 
BRANCH   3   4
ATOM      4  C   UNL     1      34.276 -15.501 -20.485  0.00  0.00    +0.110 C 
BRANCH   4   5
ATOM      5  C   UNL     1      32.834 -15.123 -20.825  0.00  0.00    +0.012 C 
BRANCH   5   6
ATOM      6  C   UNL     1      32.459 -13.728 -20.314  0.00  0.00    +0.001 C 
BRANCH   6   7
ATOM      7  C   UNL     1      32.003 -12.823 -21.461  0.00  0.00    +0.000 C 
BRANCH   7   8
ATOM      8  C   UNL     1      32.370 -13.423 -22.821  0.00  0.00    +0.000 C 
BRANCH   8   9
ATOM      9  C   UNL     1      33.504 -12.636 -23.485  0.00  0.00    +0.000 C 
BRANCH   9  10
ATOM     10  C   UNL     1      33.861 -13.145 -24.894  0.00  0.00    +0.000 C 
ATOM     11  C   UNL     1      33.015 -14.374 -25.232  0.00  0.00    +0.000 C 
ATOM     12  C   UNL     1      33.665 -12.074 -25.969  0.00  0.00    +0.000 C 
ENDBRANCH   9  10
ENDBRANCH   8   9
ENDBRANCH   7   8
ENDBRANCH   6   7
ENDBRANCH   5   6
ENDBRANCH   4   5
ENDBRANCH   3   4
ENDBRANCH   1   3
BRANCH   1  13
ATOM     13  C   UNL     1      35.590 -18.666 -21.598  0.00  0.00    +0.235 C 
BRANCH  13  14
ATOM     14  C   UNL     1      34.871 -19.714 -20.801  0.00  0.00    +0.024 C 
ATOM     15  C   UNL     1      35.592 -20.618 -20.023  0.00  0.00    +0.039 C 
ATOM     16  C   UNL     1      33.477 -19.783 -20.838  0.00  0.00    +0.003 C 
ATOM     17  C   UNL     1      34.924 -21.591 -19.281  0.00  0.00    +0.172 C 
ATOM     18  C   UNL     1      32.808 -20.757 -20.098  0.00  0.00    +0.040 C 
ATOM     19  C   UNL     1      33.531 -21.661 -19.319  0.00  0.00    +0.168 C 
BRANCH  17  20
ATOM     20  O   UNL     1      35.640 -22.468 -18.525  0.00  0.00    -0.468 OA
ATOM     21  C   UNL     1      36.539 -21.913 -17.566  0.00  0.00    +0.253 C 
ENDBRANCH  17  20
BRANCH  19  22
ATOM     22  O   UNL     1      32.865 -22.607 -18.600  0.00  0.00    -0.503 OA
ATOM     23  H   UNL     1      31.949 -22.745 -18.741  0.00  0.00    +0.292 HD
ENDBRANCH  19  22
ENDBRANCH  13  14
ENDBRANCH   1  13
TORSDOF 12
ENDMDL
MODEL 7
REMARK VINA RESULT:      -7.7      3.476      5.962
REMARK  Name = 9873754
REMARK  12 active torsions:
REMARK  status: ('A' for Active; 'I' for Inactive)
REMARK    1  A    between atoms: O_1  and  C_3
REMARK    2  A    between atoms: O_1  and  C_13
REMARK    3  A    between atoms: C_3  and  C_4
REMARK    4  A    between atoms: C_4  and  C_5
REMARK    5  A    between atoms: C_5  and  C_6
REMARK    6  A    between atoms: C_6  and  C_7
REMARK    7  A    between atoms: C_7  and  C_8
REMARK    8  A    between atoms: C_8  and  C_9
REMARK    9  A    between atoms: C_9  and  C_10
REMARK   10  A    between atoms: C_13  and  C_14
REMARK   11  A    between atoms: C_17  and  O_20
REMARK   12  A    between atoms: C_19  and  O_22
REMARK                            x       y       z     vdW  Elec       q    Type
REMARK                         _______ _______ _______ _____ _____    ______ ____
ROOT
ATOM      1  O   UNL     1      34.610 -22.997 -17.794  0.00  0.00    -0.443 OA
ENDROOT
BRANCH   1   3
ATOM      2  O   UNL     1      36.503 -21.799 -18.344  0.00  0.00    -0.250 OA
ATOM      3  C   UNL     1      35.321 -22.071 -18.503  0.00  0.00    +0.317 C 
BRANCH   3   4
ATOM      4  C   UNL     1      34.416 -21.453 -19.547  0.00  0.00    +0.110 C 
BRANCH   4   5
ATOM      5  C   UNL     1      35.131 -20.435 -20.436  0.00  0.00    +0.012 C 
BRANCH   5   6
ATOM      6  C   UNL     1      34.162 -19.439 -21.082  0.00  0.00    +0.001 C 
BRANCH   6   7
ATOM      7  C   UNL     1      34.711 -18.915 -22.409  0.00  0.00    +0.000 C 
BRANCH   7   8
ATOM      8  C   UNL     1      35.312 -17.515 -22.248  0.00  0.00    +0.000 C 
BRANCH   8   9
ATOM      9  C   UNL     1      34.833 -16.853 -20.953  0.00  0.00    +0.000 C 
BRANCH   9  10
ATOM     10  C   UNL     1      34.463 -15.368 -21.122  0.00  0.00    +0.000 C 
ATOM     11  C   UNL     1      34.439 -15.005 -22.609  0.00  0.00    +0.000 C 
ATOM     12  C   UNL     1      33.114 -15.025 -20.487  0.00  0.00    +0.000 C 
ENDBRANCH   9  10
ENDBRANCH   8   9
ENDBRANCH   7   8
ENDBRANCH   6   7
ENDBRANCH   5   6
ENDBRANCH   4   5
ENDBRANCH   3   4
ENDBRANCH   1   3
BRANCH   1  13
ATOM     13  C   UNL     1      33.186 -22.905 -17.916  0.00  0.00    +0.235 C 
BRANCH  13  14
ATOM     14  C   UNL     1      32.562 -23.147 -16.573  0.00  0.00    +0.024 C 
ATOM     15  C   UNL     1      31.175 -23.160 -16.439  0.00  0.00    +0.039 C 
ATOM     16  C   UNL     1      33.373 -23.360 -15.457  0.00  0.00    +0.003 C 
ATOM     17  C   UNL     1      30.596 -23.387 -15.192  0.00  0.00    +0.172 C 
ATOM     18  C   UNL     1      32.794 -23.585 -14.208  0.00  0.00    +0.040 C 
ATOM     19  C   UNL     1      31.405 -23.598 -14.075  0.00  0.00    +0.168 C 
BRANCH  17  20
ATOM     20  O   UNL     1      29.238 -23.397 -15.074  0.00  0.00    -0.468 OA
ATOM     21  C   UNL     1      28.509 -22.491 -15.900  0.00  0.00    +0.253 C 
ENDBRANCH  17  20
BRANCH  19  22
ATOM     22  O   UNL     1      30.852 -23.820 -12.850  0.00  0.00    -0.503 OA
ATOM     23  H   UNL     1      30.639 -24.693 -12.583  0.00  0.00    +0.292 HD
ENDBRANCH  19  22
ENDBRANCH  13  14
ENDBRANCH   1  13
TORSDOF 12
ENDMDL
MODEL 8
REMARK VINA RESULT:      -7.7      4.487      6.687
REMARK  Name = 9873754
REMARK  12 active torsions:
REMARK  status: ('A' for Active; 'I' for Inactive)
REMARK    1  A    between atoms: O_1  and  C_3
REMARK    2  A    between atoms: O_1  and  C_13
REMARK    3  A    between atoms: C_3  and  C_4
REMARK    4  A    between atoms: C_4  and  C_5
REMARK    5  A    between atoms: C_5  and  C_6
REMARK    6  A    between atoms: C_6  and  C_7
REMARK    7  A    between atoms: C_7  and  C_8
REMARK    8  A    between atoms: C_8  and  C_9
REMARK    9  A    between atoms: C_9  and  C_10
REMARK   10  A    between atoms: C_13  and  C_14
REMARK   11  A    between atoms: C_17  and  O_20
REMARK   12  A    between atoms: C_19  and  O_22
REMARK                            x       y       z     vdW  Elec       q    Type
REMARK                         _______ _______ _______ _____ _____    ______ ____
ROOT
ATOM      1  O   UNL     1      33.862 -12.483 -23.601  0.00  0.00    -0.443 OA
ENDROOT
BRANCH   1   3
ATOM      2  O   UNL     1      34.025 -11.793 -25.797  0.00  0.00    -0.250 OA
ATOM      3  C   UNL     1      33.923 -11.554 -24.601  0.00  0.00    +0.317 C 
BRANCH   3   4
ATOM      4  C   UNL     1      33.809 -10.172 -23.994  0.00  0.00    +0.110 C 
BRANCH   4   5
ATOM      5  C   UNL     1      35.004  -9.274 -24.315  0.00  0.00    +0.012 C 
BRANCH   5   6
ATOM      6  C   UNL     1      34.886  -7.890 -23.668  0.00  0.00    +0.001 C 
BRANCH   6   7
ATOM      7  C   UNL     1      34.304  -6.869 -24.647  0.00  0.00    +0.000 C 
BRANCH   7   8
ATOM      8  C   UNL     1      32.960  -6.327 -24.151  0.00  0.00    +0.000 C 
BRANCH   8   9
ATOM      9  C   UNL     1      32.780  -6.581 -22.651  0.00  0.00    +0.000 C 
BRANCH   9  10
ATOM     10  C   UNL     1      31.537  -7.425 -22.316  0.00  0.00    +0.000 C 
ATOM     11  C   UNL     1      30.842  -7.861 -23.608  0.00  0.00    +0.000 C 
ATOM     12  C   UNL     1      31.875  -8.655 -21.473  0.00  0.00    +0.000 C 
ENDBRANCH   9  10
ENDBRANCH   8   9
ENDBRANCH   7   8
ENDBRANCH   6   7
ENDBRANCH   5   6
ENDBRANCH   4   5
ENDBRANCH   3   4
ENDBRANCH   1   3
BRANCH   1  13
ATOM     13  C   UNL     1      33.321 -13.755 -23.975  0.00  0.00    +0.235 C 
BRANCH  13  14
ATOM     14  C   UNL     1      33.917 -14.817 -23.098  0.00  0.00    +0.024 C 
ATOM     15  C   UNL     1      34.408 -15.994 -23.661  0.00  0.00    +0.039 C 
ATOM     16  C   UNL     1      33.980 -14.625 -21.716  0.00  0.00    +0.003 C 
ATOM     17  C   UNL     1      34.962 -16.980 -22.846  0.00  0.00    +0.172 C 
ATOM     18  C   UNL     1      34.533 -15.612 -20.901  0.00  0.00    +0.040 C 
ATOM     19  C   UNL     1      35.024 -16.789 -21.465  0.00  0.00    +0.168 C 
BRANCH  17  20
ATOM     20  O   UNL     1      35.438 -18.126 -23.408  0.00  0.00    -0.468 OA
ATOM     21  C   UNL     1      34.618 -18.754 -24.392  0.00  0.00    +0.253 C 
ENDBRANCH  17  20
BRANCH  19  22
ATOM     22  O   UNL     1      35.563 -17.745 -20.657  0.00  0.00    -0.503 OA
ATOM     23  H   UNL     1      35.878 -17.515 -19.806  0.00  0.00    +0.292 HD
ENDBRANCH  19  22
ENDBRANCH  13  14
ENDBRANCH   1  13
TORSDOF 12
ENDMDL
MODEL 9
REMARK VINA RESULT:      -7.7      3.428      7.374
REMARK  Name = 9873754
REMARK  12 active torsions:
REMARK  status: ('A' for Active; 'I' for Inactive)
REMARK    1  A    between atoms: O_1  and  C_3
REMARK    2  A    between atoms: O_1  and  C_13
REMARK    3  A    between atoms: C_3  and  C_4
REMARK    4  A    between atoms: C_4  and  C_5
REMARK    5  A    between atoms: C_5  and  C_6
REMARK    6  A    between atoms: C_6  and  C_7
REMARK    7  A    between atoms: C_7  and  C_8
REMARK    8  A    between atoms: C_8  and  C_9
REMARK    9  A    between atoms: C_9  and  C_10
REMARK   10  A    between atoms: C_13  and  C_14
REMARK   11  A    between atoms: C_17  and  O_20
REMARK   12  A    between atoms: C_19  and  O_22
REMARK                            x       y       z     vdW  Elec       q    Type
REMARK                         _______ _______ _______ _____ _____    ______ ____
ROOT
ATOM      1  O   UNL     1      33.092 -14.732 -24.507  0.00  0.00    -0.443 OA
ENDROOT
BRANCH   1   3
ATOM      2  O   UNL     1      33.499 -15.497 -26.644  0.00  0.00    -0.250 OA
ATOM      3  C   UNL     1      33.685 -15.538 -25.436  0.00  0.00    +0.317 C 
BRANCH   3   4
ATOM      4  C   UNL     1      34.644 -16.473 -24.733  0.00  0.00    +0.110 C 
BRANCH   4   5
ATOM      5  C   UNL     1      34.413 -17.944 -25.079  0.00  0.00    +0.012 C 
BRANCH   5   6
ATOM      6  C   UNL     1      34.884 -18.888 -23.968  0.00  0.00    +0.001 C 
BRANCH   6   7
ATOM      7  C   UNL     1      35.439 -18.106 -22.776  0.00  0.00    +0.000 C 
BRANCH   7   8
ATOM      8  C   UNL     1      34.556 -18.281 -21.537  0.00  0.00    +0.000 C 
BRANCH   8   9
ATOM      9  C   UNL     1      34.074 -19.728 -21.400  0.00  0.00    +0.000 C 
BRANCH   9  10
ATOM     10  C   UNL     1      34.513 -20.399 -20.085  0.00  0.00    +0.000 C 
ATOM     11  C   UNL     1      33.431 -21.374 -19.614  0.00  0.00    +0.000 C 
ATOM     12  C   UNL     1      35.846 -21.136 -20.221  0.00  0.00    +0.000 C 
ENDBRANCH   9  10
ENDBRANCH   8   9
ENDBRANCH   7   8
ENDBRANCH   6   7
ENDBRANCH   5   6
ENDBRANCH   4   5
ENDBRANCH   3   4
ENDBRANCH   1   3
BRANCH   1  13
ATOM     13  C   UNL     1      33.738 -14.686 -23.230  0.00  0.00    +0.235 C 
BRANCH  13  14
ATOM     14  C   UNL     1      33.003 -13.724 -22.343  0.00  0.00    +0.024 C 
ATOM     15  C   UNL     1      32.495 -12.537 -22.869  0.00  0.00    +0.039 C 
ATOM     16  C   UNL     1      32.828 -14.019 -20.990  0.00  0.00    +0.003 C 
ATOM     17  C   UNL     1      31.811 -11.645 -22.045  0.00  0.00    +0.172 C 
ATOM     18  C   UNL     1      32.145 -13.125 -20.165  0.00  0.00    +0.040 C 
ATOM     19  C   UNL     1      31.636 -11.938 -20.692  0.00  0.00    +0.168 C 
BRANCH  17  20
ATOM     20  O   UNL     1      31.319 -10.488 -22.572  0.00  0.00    -0.468 OA
ATOM     21  C   UNL     1      32.270  -9.536 -23.046  0.00  0.00    +0.253 C 
ENDBRANCH  17  20
BRANCH  19  22
ATOM     22  O   UNL     1      30.970 -11.074 -19.876  0.00  0.00    -0.503 OA
ATOM     23  H   UNL     1      30.037 -11.012 -19.922  0.00  0.00    +0.292 HD
ENDBRANCH  19  22
ENDBRANCH  13  14
ENDBRANCH   1  13
TORSDOF 12
ENDMDL
