MODEL 1
REMARK VINA RESULT:     -12.4      0.000      0.000
REMARK  Name = 11494412
REMARK  2 active torsions:
REMARK  status: ('A' for Active; 'I' for Inactive)
REMARK    1  A    between atoms: C_4  and  C_10
REMARK    2  A    between atoms: C_5  and  C_22
REMARK                            x       y       z     vdW  Elec       q    Type
REMARK                         _______ _______ _______ _____ _____    ______ ____
ROOT
ATOM      1  O   UNL     1      34.141 -11.558 -26.824  0.00  0.00    -0.274 OA
ATOM      2  O   UNL     1      32.413 -15.821 -26.870  0.00  0.00    -0.274 OA
ATOM      3  N   UNL     1      33.229 -13.666 -27.154  0.00  0.00    -0.255 N 
ATOM      4  C   UNL     1      33.935 -13.146 -24.990  0.00  0.00    +0.113 C 
ATOM      5  C   UNL     1      33.194 -14.504 -24.975  0.00  0.00    +0.113 C 
ATOM      6  C   UNL     1      33.795 -12.656 -26.414  0.00  0.00    +0.233 C 
ATOM      7  C   UNL     1      32.891 -14.784 -26.430  0.00  0.00    +0.233 C 
ATOM      8  H   UNL     1      33.079 -13.595 -28.123  0.00  0.00    +0.158 HD
ENDROOT
BRANCH   4  10
ATOM      9  N   UNL     1      32.094 -11.270 -22.471  0.00  0.00    -0.286 N 
ATOM     10  C   UNL     1      33.358 -12.171 -24.044  0.00  0.00    +0.003 C 
ATOM     11  C   UNL     1      32.948 -10.286 -22.895  0.00  0.00    +0.047 C 
ATOM     12  C   UNL     1      33.756 -10.809 -23.888  0.00  0.00    +0.011 C 
ATOM     13  C   UNL     1      32.328 -12.424 -23.154  0.00  0.00    +0.062 C 
ATOM     14  C   UNL     1      31.109 -10.991 -21.439  0.00  0.00    +0.096 C 
ATOM     15  C   UNL     1      33.002  -8.979 -22.411  0.00  0.00    -0.009 C 
ATOM     16  C   UNL     1      31.551  -9.812 -20.545  0.00  0.00    +0.027 C 
ATOM     17  C   UNL     1      32.029  -8.573 -21.342  0.00  0.00    +0.029 C 
ATOM     18  C   UNL     1      34.709  -9.955 -24.472  0.00  0.00    +0.001 C 
ATOM     19  C   UNL     1      33.942  -8.142 -23.014  0.00  0.00    -0.003 C 
ATOM     20  C   UNL     1      34.784  -8.623 -24.024  0.00  0.00    -0.000 C 
ENDBRANCH   4  10
BRANCH   5  22
ATOM     21  N   UNL     1      35.315 -17.376 -24.210  0.00  0.00    -0.312 N 
ATOM     22  C   UNL     1      34.007 -15.593 -24.395  0.00  0.00    +0.003 C 
ATOM     23  C   UNL     1      34.229 -15.839 -23.012  0.00  0.00    +0.011 C 
ATOM     24  C   UNL     1      34.687 -16.553 -25.107  0.00  0.00    +0.058 C 
ATOM     25  C   UNL     1      35.053 -16.964 -22.924  0.00  0.00    +0.048 C 
ATOM     26  C   UNL     1      33.807 -15.214 -21.822  0.00  0.00    +0.001 C 
ATOM     27  C   UNL     1      35.477 -17.495 -21.701  0.00  0.00    +0.015 C 
ATOM     28  C   UNL     1      34.223 -15.734 -20.592  0.00  0.00    +0.000 C 
ATOM     29  C   UNL     1      35.046 -16.857 -20.534  0.00  0.00    +0.001 C 
ATOM     30  H   UNL     1      35.874 -18.150 -24.452  0.00  0.00    +0.152 HD
ENDBRANCH   5  22
TORSDOF 2
ENDMDL
MODEL 2
REMARK VINA RESULT:     -12.2      0.947      6.524
REMARK  Name = 11494412
REMARK  2 active torsions:
REMARK  status: ('A' for Active; 'I' for Inactive)
REMARK    1  A    between atoms: C_4  and  C_10
REMARK    2  A    between atoms: C_5  and  C_22
REMARK                            x       y       z     vdW  Elec       q    Type
REMARK                         _______ _______ _______ _____ _____    ______ ____
ROOT
ATOM      1  O   UNL     1      32.466 -15.254 -26.795  0.00  0.00    -0.274 OA
ATOM      2  O   UNL     1      34.474 -11.123 -26.561  0.00  0.00    -0.274 OA
ATOM      3  N   UNL     1      33.469 -13.171 -26.988  0.00  0.00    -0.255 N 
ATOM      4  C   UNL     1      33.061 -13.951 -24.826  0.00  0.00    +0.113 C 
ATOM      5  C   UNL     1      33.893 -12.649 -24.753  0.00  0.00    +0.113 C 
ATOM      6  C   UNL     1      32.949 -14.244 -26.305  0.00  0.00    +0.233 C 
ATOM      7  C   UNL     1      33.994 -12.185 -26.189  0.00  0.00    +0.233 C 
ATOM      8  H   UNL     1      33.467 -13.114 -27.970  0.00  0.00    +0.158 HD
ENDROOT
BRANCH   4  10
ATOM      9  N   UNL     1      34.698 -17.009 -23.720  0.00  0.00    -0.286 N 
ATOM     10  C   UNL     1      33.701 -15.078 -24.118  0.00  0.00    +0.003 C 
ATOM     11  C   UNL     1      34.539 -16.396 -22.505  0.00  0.00    +0.047 C 
ATOM     12  C   UNL     1      33.911 -15.181 -22.711  0.00  0.00    +0.011 C 
ATOM     13  C   UNL     1      34.198 -16.225 -24.714  0.00  0.00    +0.062 C 
ATOM     14  C   UNL     1      35.316 -18.322 -23.803  0.00  0.00    +0.096 C 
ATOM     15  C   UNL     1      34.943 -16.901 -21.270  0.00  0.00    -0.009 C 
ATOM     16  C   UNL     1      36.243 -18.584 -22.596  0.00  0.00    +0.027 C 
ATOM     17  C   UNL     1      35.592 -18.254 -21.229  0.00  0.00    +0.029 C 
ATOM     18  C   UNL     1      33.642 -14.387 -21.582  0.00  0.00    +0.001 C 
ATOM     19  C   UNL     1      34.653 -16.106 -20.160  0.00  0.00    -0.003 C 
ATOM     20  C   UNL     1      34.018 -14.868 -20.314  0.00  0.00    -0.000 C 
ENDBRANCH   4  10
BRANCH   5  22
ATOM     21  N   UNL     1      31.857 -10.585 -22.534  0.00  0.00    -0.312 N 
ATOM     22  C   UNL     1      33.259 -11.611 -23.914  0.00  0.00    +0.003 C 
ATOM     23  C   UNL     1      33.710 -10.274 -23.736  0.00  0.00    +0.011 C 
ATOM     24  C   UNL     1      32.119 -11.773 -23.163  0.00  0.00    +0.058 C 
ATOM     25  C   UNL     1      32.812  -9.652 -22.865  0.00  0.00    +0.048 C 
ATOM     26  C   UNL     1      34.798  -9.529 -24.233  0.00  0.00    +0.001 C 
ATOM     27  C   UNL     1      32.949  -8.318 -22.465  0.00  0.00    +0.015 C 
ATOM     28  C   UNL     1      34.948  -8.194 -23.842  0.00  0.00    +0.000 C 
ATOM     29  C   UNL     1      34.037  -7.600 -22.971  0.00  0.00    +0.001 C 
ATOM     30  H   UNL     1      31.095 -10.424 -21.930  0.00  0.00    +0.152 HD
ENDBRANCH   5  22
TORSDOF 2
ENDMDL
MODEL 3
REMARK VINA RESULT:     -11.1      2.477      4.553
REMARK  Name = 11494412
REMARK  2 active torsions:
REMARK  status: ('A' for Active; 'I' for Inactive)
REMARK    1  A    between atoms: C_4  and  C_10
REMARK    2  A    between atoms: C_5  and  C_22
REMARK                            x       y       z     vdW  Elec       q    Type
REMARK                         _______ _______ _______ _____ _____    ______ ____
ROOT
ATOM      1  O   UNL     1      35.185 -15.705 -26.075  0.00  0.00    -0.274 OA
ATOM      2  O   UNL     1      33.851 -19.834 -24.548  0.00  0.00    -0.274 OA
ATOM      3  N   UNL     1      34.488 -17.868 -25.605  0.00  0.00    -0.255 N 
ATOM      4  C   UNL     1      35.007 -16.505 -23.782  0.00  0.00    +0.113 C 
ATOM      5  C   UNL     1      34.391 -17.830 -23.273  0.00  0.00    +0.113 C 
ATOM      6  C   UNL     1      34.913 -16.600 -25.288  0.00  0.00    +0.233 C 
ATOM      7  C   UNL     1      34.205 -18.663 -24.521  0.00  0.00    +0.233 C 
ATOM      8  H   UNL     1      34.392 -18.180 -26.533  0.00  0.00    +0.158 HD
ENDROOT
BRANCH   4  10
ATOM      9  N   UNL     1      33.434 -13.279 -23.171  0.00  0.00    -0.286 N 
ATOM     10  C   UNL     1      34.287 -15.314 -23.289  0.00  0.00    +0.003 C 
ATOM     11  C   UNL     1      33.082 -13.916 -22.011  0.00  0.00    +0.047 C 
ATOM     12  C   UNL     1      33.603 -15.197 -22.042  0.00  0.00    +0.011 C 
ATOM     13  C   UNL     1      34.164 -14.111 -23.963  0.00  0.00    +0.062 C 
ATOM     14  C   UNL     1      33.036 -11.900 -23.401  0.00  0.00    +0.096 C 
ATOM     15  C   UNL     1      32.324 -13.375 -20.973  0.00  0.00    -0.009 C 
ATOM     16  C   UNL     1      31.775 -11.537 -22.585  0.00  0.00    +0.027 C 
ATOM     17  C   UNL     1      31.857 -11.954 -21.096  0.00  0.00    +0.029 C 
ATOM     18  C   UNL     1      33.363 -16.026 -20.932  0.00  0.00    +0.001 C 
ATOM     19  C   UNL     1      32.110 -14.207 -19.873  0.00  0.00    -0.003 C 
ATOM     20  C   UNL     1      32.617 -15.513 -19.856  0.00  0.00    -0.000 C 
ENDBRANCH   4  10
BRANCH   5  22
ATOM     21  N   UNL     1      37.052 -19.185 -21.174  0.00  0.00    -0.312 N 
ATOM     22  C   UNL     1      35.259 -18.530 -22.305  0.00  0.00    +0.003 C 
ATOM     23  C   UNL     1      34.849 -19.492 -21.341  0.00  0.00    +0.011 C 
ATOM     24  C   UNL     1      36.618 -18.361 -22.178  0.00  0.00    +0.058 C 
ATOM     25  C   UNL     1      35.994 -19.887 -20.644  0.00  0.00    +0.048 C 
ATOM     26  C   UNL     1      33.611 -20.068 -20.992  0.00  0.00    +0.001 C 
ATOM     27  C   UNL     1      35.962 -20.832 -19.613  0.00  0.00    +0.015 C 
ATOM     28  C   UNL     1      33.564 -21.015 -19.963  0.00  0.00    +0.000 C 
ATOM     29  C   UNL     1      34.723 -21.389 -19.284  0.00  0.00    +0.001 C 
ATOM     30  H   UNL     1      37.987 -19.262 -20.873  0.00  0.00    +0.152 HD
ENDBRANCH   5  22
TORSDOF 2
ENDMDL
MODEL 4
REMARK VINA RESULT:     -11.0      3.820      8.675
REMARK  Name = 11494412
REMARK  2 active torsions:
REMARK  status: ('A' for Active; 'I' for Inactive)
REMARK    1  A    between atoms: C_4  and  C_10
REMARK    2  A    between atoms: C_5  and  C_22
REMARK                            x       y       z     vdW  Elec       q    Type
REMARK                         _______ _______ _______ _____ _____    ______ ____
ROOT
ATOM      1  O   UNL     1      33.439  -7.421 -20.161  0.00  0.00    -0.274 OA
ATOM      2  O   UNL     1      29.921  -5.038 -21.922  0.00  0.00    -0.274 OA
ATOM      3  N   UNL     1      31.616  -6.116 -20.759  0.00  0.00    -0.255 N 
ATOM      4  C   UNL     1      32.714  -7.250 -22.479  0.00  0.00    +0.113 C 
ATOM      5  C   UNL     1      31.430  -6.592 -23.036  0.00  0.00    +0.113 C 
ATOM      6  C   UNL     1      32.666  -6.971 -20.994  0.00  0.00    +0.233 C 
ATOM      7  C   UNL     1      30.874  -5.804 -21.872  0.00  0.00    +0.233 C 
ATOM      8  H   UNL     1      31.412  -5.758 -19.866  0.00  0.00    +0.158 HD
ENDROOT
BRANCH   4  10
ATOM      9  N   UNL     1      33.232 -10.652 -23.667  0.00  0.00    -0.286 N 
ATOM     10  C   UNL     1      32.769  -8.703 -22.735  0.00  0.00    +0.003 C 
ATOM     11  C   UNL     1      32.473 -10.922 -22.558  0.00  0.00    +0.047 C 
ATOM     12  C   UNL     1      32.156  -9.723 -21.946  0.00  0.00    +0.011 C 
ATOM     13  C   UNL     1      33.425  -9.311 -23.791  0.00  0.00    +0.062 C 
ATOM     14  C   UNL     1      33.692 -11.734 -24.521  0.00  0.00    +0.096 C 
ATOM     15  C   UNL     1      32.087 -12.186 -22.114  0.00  0.00    -0.009 C 
ATOM     16  C   UNL     1      33.773 -13.067 -23.744  0.00  0.00    +0.027 C 
ATOM     17  C   UNL     1      32.502 -13.383 -22.918  0.00  0.00    +0.029 C 
ATOM     18  C   UNL     1      31.368  -9.773 -20.783  0.00  0.00    +0.001 C 
ATOM     19  C   UNL     1      31.291 -12.214 -20.967  0.00  0.00    -0.003 C 
ATOM     20  C   UNL     1      30.942 -11.028 -20.310  0.00  0.00    -0.000 C 
ENDBRANCH   4  10
BRANCH   5  22
ATOM     21  N   UNL     1      31.446  -4.140 -25.741  0.00  0.00    -0.312 N 
ATOM     22  C   UNL     1      31.695  -5.704 -24.187  0.00  0.00    +0.003 C 
ATOM     23  C   UNL     1      32.872  -5.680 -24.985  0.00  0.00    +0.011 C 
ATOM     24  C   UNL     1      30.837  -4.746 -24.675  0.00  0.00    +0.058 C 
ATOM     25  C   UNL     1      32.690  -4.690 -25.954  0.00  0.00    +0.048 C 
ATOM     26  C   UNL     1      34.079  -6.408 -24.979  0.00  0.00    +0.001 C 
ATOM     27  C   UNL     1      33.657  -4.391 -26.919  0.00  0.00    +0.015 C 
ATOM     28  C   UNL     1      35.056  -6.119 -25.938  0.00  0.00    +0.000 C 
ATOM     29  C   UNL     1      34.846  -5.125 -26.892  0.00  0.00    +0.001 C 
ATOM     30  H   UNL     1      31.051  -3.415 -26.278  0.00  0.00    +0.152 HD
ENDBRANCH   5  22
TORSDOF 2
ENDMDL
MODEL 5
REMARK VINA RESULT:     -11.0     12.863     15.208
REMARK  Name = 11494412
REMARK  2 active torsions:
REMARK  status: ('A' for Active; 'I' for Inactive)
REMARK    1  A    between atoms: C_4  and  C_10
REMARK    2  A    between atoms: C_5  and  C_22
REMARK                            x       y       z     vdW  Elec       q    Type
REMARK                         _______ _______ _______ _____ _____    ______ ____
ROOT
ATOM      1  O   UNL     1      34.630 -25.215 -11.124  0.00  0.00    -0.274 OA
ATOM      2  O   UNL     1      37.948 -22.111 -11.836  0.00  0.00    -0.274 OA
ATOM      3  N   UNL     1      36.343 -23.650 -11.174  0.00  0.00    -0.255 N 
ATOM      4  C   UNL     1      35.465 -24.322 -13.230  0.00  0.00    +0.113 C 
ATOM      5  C   UNL     1      36.453 -23.153 -13.452  0.00  0.00    +0.113 C 
ATOM      6  C   UNL     1      35.393 -24.474 -11.727  0.00  0.00    +0.233 C 
ATOM      7  C   UNL     1      37.034 -22.886 -12.082  0.00  0.00    +0.233 C 
ATOM      8  H   UNL     1      36.514 -23.611 -10.206  0.00  0.00    +0.158 HD
ENDROOT
BRANCH   4  10
ATOM      9  N   UNL     1      31.936 -23.816 -13.970  0.00  0.00    -0.286 N 
ATOM     10  C   UNL     1      34.126 -24.052 -13.790  0.00  0.00    +0.003 C 
ATOM     11  C   UNL     1      32.461 -23.522 -15.201  0.00  0.00    +0.047 C 
ATOM     12  C   UNL     1      33.835 -23.663 -15.133  0.00  0.00    +0.011 C 
ATOM     13  C   UNL     1      32.930 -24.138 -13.098  0.00  0.00    +0.062 C 
ATOM     14  C   UNL     1      30.499 -23.770 -13.756  0.00  0.00    +0.096 C 
ATOM     15  C   UNL     1      31.741 -23.140 -16.333  0.00  0.00    -0.009 C 
ATOM     16  C   UNL     1      29.811 -22.824 -14.765  0.00  0.00    +0.027 C 
ATOM     17  C   UNL     1      30.245 -23.059 -16.233  0.00  0.00    +0.029 C 
ATOM     18  C   UNL     1      34.575 -23.415 -16.302  0.00  0.00    +0.001 C 
ATOM     19  C   UNL     1      32.491 -22.913 -17.488  0.00  0.00    -0.003 C 
ATOM     20  C   UNL     1      33.885 -23.043 -17.471  0.00  0.00    -0.000 C 
ENDBRANCH   4  10
BRANCH   5  22
ATOM     21  N   UNL     1      38.817 -23.455 -16.217  0.00  0.00    -0.312 N 
ATOM     22  C   UNL     1      37.523 -23.484 -14.415  0.00  0.00    +0.003 C 
ATOM     23  C   UNL     1      38.516 -24.492 -14.265  0.00  0.00    +0.011 C 
ATOM     24  C   UNL     1      37.734 -22.863 -15.624  0.00  0.00    +0.058 C 
ATOM     25  C   UNL     1      39.315 -24.453 -15.411  0.00  0.00    +0.048 C 
ATOM     26  C   UNL     1      38.812 -25.439 -13.264  0.00  0.00    +0.001 C 
ATOM     27  C   UNL     1      40.399 -25.315 -15.605  0.00  0.00    +0.015 C 
ATOM     28  C   UNL     1      39.894 -26.308 -13.444  0.00  0.00    +0.000 C 
ATOM     29  C   UNL     1      40.675 -26.245 -14.598  0.00  0.00    +0.001 C 
ATOM     30  H   UNL     1      39.187 -23.202 -17.094  0.00  0.00    +0.152 HD
ENDBRANCH   5  22
TORSDOF 2
ENDMDL
MODEL 6
REMARK VINA RESULT:     -10.7      0.871      2.103
REMARK  Name = 11494412
REMARK  2 active torsions:
REMARK  status: ('A' for Active; 'I' for Inactive)
REMARK    1  A    between atoms: C_4  and  C_10
REMARK    2  A    between atoms: C_5  and  C_22
REMARK                            x       y       z     vdW  Elec       q    Type
REMARK                         _______ _______ _______ _____ _____    ______ ____
ROOT
ATOM      1  O   UNL     1      34.578 -11.517 -27.343  0.00  0.00    -0.274 OA
ATOM      2  O   UNL     1      32.119 -15.331 -26.596  0.00  0.00    -0.274 OA
ATOM      3  N   UNL     1      33.279 -13.438 -27.272  0.00  0.00    -0.255 N 
ATOM      4  C   UNL     1      34.256 -12.749 -25.267  0.00  0.00    +0.113 C 
ATOM      5  C   UNL     1      33.289 -13.923 -24.989  0.00  0.00    +0.113 C 
ATOM      6  C   UNL     1      34.079 -12.456 -26.740  0.00  0.00    +0.233 C 
ATOM      7  C   UNL     1      32.812 -14.351 -26.358  0.00  0.00    +0.233 C 
ATOM      8  H   UNL     1      33.058 -13.483 -28.229  0.00  0.00    +0.158 HD
ENDROOT
BRANCH   4  10
ATOM      9  N   UNL     1      34.014  -9.500 -23.642  0.00  0.00    -0.286 N 
ATOM     10  C   UNL     1      33.950 -11.552 -24.458  0.00  0.00    +0.003 C 
ATOM     11  C   UNL     1      33.025 -10.158 -22.960  0.00  0.00    +0.047 C 
ATOM     12  C   UNL     1      32.955 -11.453 -23.440  0.00  0.00    +0.011 C 
ATOM     13  C   UNL     1      34.587 -10.327 -24.558  0.00  0.00    +0.062 C 
ATOM     14  C   UNL     1      34.325  -8.115 -23.327  0.00  0.00    +0.096 C 
ATOM     15  C   UNL     1      32.218  -9.620 -21.958  0.00  0.00    -0.009 C 
ATOM     16  C   UNL     1      33.112  -7.398 -22.694  0.00  0.00    +0.027 C 
ATOM     17  C   UNL     1      32.449  -8.196 -21.544  0.00  0.00    +0.029 C 
ATOM     18  C   UNL     1      32.001 -12.311 -22.864  0.00  0.00    +0.001 C 
ATOM     19  C   UNL     1      31.289 -10.491 -21.387  0.00  0.00    -0.003 C 
ATOM     20  C   UNL     1      31.179 -11.813 -21.837  0.00  0.00    -0.000 C 
ENDBRANCH   4  10
BRANCH   5  22
ATOM     21  N   UNL     1      35.002 -16.961 -23.909  0.00  0.00    -0.312 N 
ATOM     22  C   UNL     1      33.942 -15.049 -24.290  0.00  0.00    +0.003 C 
ATOM     23  C   UNL     1      34.107 -15.192 -22.884  0.00  0.00    +0.011 C 
ATOM     24  C   UNL     1      34.503 -16.150 -24.893  0.00  0.00    +0.058 C 
ATOM     25  C   UNL     1      34.775 -16.401 -22.672  0.00  0.00    +0.048 C 
ATOM     26  C   UNL     1      33.751 -14.409 -21.768  0.00  0.00    +0.001 C 
ATOM     27  C   UNL     1      35.105 -16.866 -21.395  0.00  0.00    +0.015 C 
ATOM     28  C   UNL     1      34.075 -14.862 -20.485  0.00  0.00    +0.000 C 
ATOM     29  C   UNL     1      34.742 -16.073 -20.303  0.00  0.00    +0.001 C 
ATOM     30  H   UNL     1      35.459 -17.819 -24.064  0.00  0.00    +0.152 HD
ENDBRANCH   5  22
TORSDOF 2
ENDMDL
MODEL 7
REMARK VINA RESULT:     -10.6      9.214     13.291
REMARK  Name = 11494412
REMARK  2 active torsions:
REMARK  status: ('A' for Active; 'I' for Inactive)
REMARK    1  A    between atoms: C_4  and  C_10
REMARK    2  A    between atoms: C_5  and  C_22
REMARK                            x       y       z     vdW  Elec       q    Type
REMARK                         _______ _______ _______ _____ _____    ______ ____
ROOT
ATOM      1  O   UNL     1      30.801 -23.843 -16.566  0.00  0.00    -0.274 OA
ATOM      2  O   UNL     1      33.114 -23.190 -12.644  0.00  0.00    -0.274 OA
ATOM      3  N   UNL     1      31.688 -23.497 -14.450  0.00  0.00    -0.255 N 
ATOM      4  C   UNL     1      33.207 -23.832 -16.191  0.00  0.00    +0.113 C 
ATOM      5  C   UNL     1      33.976 -23.437 -14.908  0.00  0.00    +0.113 C 
ATOM      6  C   UNL     1      31.749 -23.727 -15.803  0.00  0.00    +0.233 C 
ATOM      7  C   UNL     1      32.911 -23.360 -13.838  0.00  0.00    +0.233 C 
ATOM      8  H   UNL     1      30.838 -23.434 -13.959  0.00  0.00    +0.158 HD
ENDROOT
BRANCH   4  10
ATOM      9  N   UNL     1      33.263 -21.696 -19.139  0.00  0.00    -0.286 N 
ATOM     10  C   UNL     1      33.507 -22.945 -17.333  0.00  0.00    +0.003 C 
ATOM     11  C   UNL     1      34.593 -21.653 -18.813  0.00  0.00    +0.047 C 
ATOM     12  C   UNL     1      34.790 -22.429 -17.686  0.00  0.00    +0.011 C 
ATOM     13  C   UNL     1      32.585 -22.474 -18.251  0.00  0.00    +0.062 C 
ATOM     14  C   UNL     1      32.769 -20.982 -20.305  0.00  0.00    +0.096 C 
ATOM     15  C   UNL     1      35.583 -20.945 -19.494  0.00  0.00    -0.009 C 
ATOM     16  C   UNL     1      33.691 -19.796 -20.667  0.00  0.00    +0.027 C 
ATOM     17  C   UNL     1      35.193 -20.169 -20.718  0.00  0.00    +0.029 C 
ATOM     18  C   UNL     1      36.100 -22.529 -17.184  0.00  0.00    +0.001 C 
ATOM     19  C   UNL     1      36.879 -21.069 -18.990  0.00  0.00    -0.003 C 
ATOM     20  C   UNL     1      37.132 -21.844 -17.851  0.00  0.00    -0.000 C 
ENDBRANCH   4  10
BRANCH   5  22
ATOM     21  N   UNL     1      36.214 -26.285 -14.453  0.00  0.00    -0.312 N 
ATOM     22  C   UNL     1      35.015 -24.421 -14.538  0.00  0.00    +0.003 C 
ATOM     23  C   UNL     1      36.070 -24.227 -13.604  0.00  0.00    +0.011 C 
ATOM     24  C   UNL     1      35.130 -25.694 -15.045  0.00  0.00    +0.058 C 
ATOM     25  C   UNL     1      36.808 -25.414 -13.570  0.00  0.00    +0.048 C 
ATOM     26  C   UNL     1      36.470 -23.156 -12.781  0.00  0.00    +0.001 C 
ATOM     27  C   UNL     1      37.929 -25.581 -12.750  0.00  0.00    +0.015 C 
ATOM     28  C   UNL     1      37.589 -23.309 -11.956  0.00  0.00    +0.000 C 
ATOM     29  C   UNL     1      38.307 -24.504 -11.942  0.00  0.00    +0.001 C 
ATOM     30  H   UNL     1      36.525 -27.202 -14.636  0.00  0.00    +0.152 HD
ENDBRANCH   5  22
TORSDOF 2
ENDMDL
MODEL 8
REMARK VINA RESULT:     -10.6      4.437      7.639
REMARK  Name = 11494412
REMARK  2 active torsions:
REMARK  status: ('A' for Active; 'I' for Inactive)
REMARK    1  A    between atoms: C_4  and  C_10
REMARK    2  A    between atoms: C_5  and  C_22
REMARK                            x       y       z     vdW  Elec       q    Type
REMARK                         _______ _______ _______ _____ _____    ______ ____
ROOT
ATOM      1  O   UNL     1      30.024  -4.638 -21.859  0.00  0.00    -0.274 OA
ATOM      2  O   UNL     1      33.206  -7.433 -20.065  0.00  0.00    -0.274 OA
ATOM      3  N   UNL     1      31.571  -5.905 -20.683  0.00  0.00    -0.255 N 
ATOM      4  C   UNL     1      31.285  -6.417 -22.942  0.00  0.00    +0.113 C 
ATOM      5  C   UNL     1      32.474  -7.229 -22.379  0.00  0.00    +0.113 C 
ATOM      6  C   UNL     1      30.862  -5.526 -21.796  0.00  0.00    +0.233 C 
ATOM      7  C   UNL     1      32.488  -6.904 -20.903  0.00  0.00    +0.233 C 
ATOM      8  H   UNL     1      31.434  -5.495 -19.800  0.00  0.00    +0.158 HD
ENDROOT
BRANCH   4  10
ATOM      9  N   UNL     1      31.564  -4.128 -25.760  0.00  0.00    -0.286 N 
ATOM     10  C   UNL     1      31.652  -5.609 -24.122  0.00  0.00    +0.003 C 
ATOM     11  C   UNL     1      32.774  -4.762 -25.873  0.00  0.00    +0.047 C 
ATOM     12  C   UNL     1      32.867  -5.704 -24.865  0.00  0.00    +0.011 C 
ATOM     13  C   UNL     1      30.868  -4.626 -24.702  0.00  0.00    +0.062 C 
ATOM     14  C   UNL     1      31.185  -3.096 -26.710  0.00  0.00    +0.096 C 
ATOM     15  C   UNL     1      33.751  -4.502 -26.834  0.00  0.00    -0.009 C 
ATOM     16  C   UNL     1      32.428  -2.437 -27.349  0.00  0.00    +0.027 C 
ATOM     17  C   UNL     1      33.471  -3.455 -27.873  0.00  0.00    +0.029 C 
ATOM     18  C   UNL     1      34.039  -6.479 -24.804  0.00  0.00    +0.001 C 
ATOM     19  C   UNL     1      34.899  -5.293 -26.767  0.00  0.00    -0.003 C 
ATOM     20  C   UNL     1      35.042  -6.261 -25.766  0.00  0.00    -0.000 C 
ENDBRANCH   4  10
BRANCH   5  22
ATOM     21  N   UNL     1      31.541 -10.758 -22.485  0.00  0.00    -0.312 N 
ATOM     22  C   UNL     1      32.324  -8.684 -22.590  0.00  0.00    +0.003 C 
ATOM     23  C   UNL     1      33.169  -9.518 -23.374  0.00  0.00    +0.011 C 
ATOM     24  C   UNL     1      31.333  -9.473 -22.056  0.00  0.00    +0.058 C 
ATOM     25  C   UNL     1      32.655 -10.815 -23.291  0.00  0.00    +0.048 C 
ATOM     26  C   UNL     1      34.325  -9.296 -24.149  0.00  0.00    +0.001 C 
ATOM     27  C   UNL     1      33.242 -11.903 -23.946  0.00  0.00    +0.015 C 
ATOM     28  C   UNL     1      34.923 -10.374 -24.810  0.00  0.00    +0.000 C 
ATOM     29  C   UNL     1      34.387 -11.658 -24.709  0.00  0.00    +0.001 C 
ATOM     30  H   UNL     1      30.975 -11.528 -22.250  0.00  0.00    +0.152 HD
ENDBRANCH   5  22
TORSDOF 2
ENDMDL
MODEL 9
REMARK VINA RESULT:     -10.5      1.143      6.788
REMARK  Name = 11494412
REMARK  2 active torsions:
REMARK  status: ('A' for Active; 'I' for Inactive)
REMARK    1  A    between atoms: C_4  and  C_10
REMARK    2  A    between atoms: C_5  and  C_22
REMARK                            x       y       z     vdW  Elec       q    Type
REMARK                         _______ _______ _______ _____ _____    ______ ____
ROOT
ATOM      1  O   UNL     1      32.467 -15.050 -26.401  0.00  0.00    -0.274 OA
ATOM      2  O   UNL     1      34.489 -10.921 -26.254  0.00  0.00    -0.274 OA
ATOM      3  N   UNL     1      33.486 -12.979 -26.638  0.00  0.00    -0.255 N 
ATOM      4  C   UNL     1      33.011 -13.680 -24.463  0.00  0.00    +0.113 C 
ATOM      5  C   UNL     1      33.847 -12.380 -24.411  0.00  0.00    +0.113 C 
ATOM      6  C   UNL     1      32.941 -14.025 -25.933  0.00  0.00    +0.233 C 
ATOM      7  C   UNL     1      33.992 -11.968 -25.859  0.00  0.00    +0.233 C 
ATOM      8  H   UNL     1      33.513 -12.957 -27.621  0.00  0.00    +0.158 HD
ENDROOT
BRANCH   4  10
ATOM      9  N   UNL     1      34.459 -15.970 -22.030  0.00  0.00    -0.286 N 
ATOM     10  C   UNL     1      33.625 -14.784 -23.698  0.00  0.00    +0.003 C 
ATOM     11  C   UNL     1      34.553 -16.754 -23.150  0.00  0.00    +0.047 C 
ATOM     12  C   UNL     1      34.044 -16.044 -24.221  0.00  0.00    +0.011 C 
ATOM     13  C   UNL     1      33.896 -14.770 -22.340  0.00  0.00    +0.062 C 
ATOM     14  C   UNL     1      34.944 -16.458 -20.749  0.00  0.00    +0.096 C 
ATOM     15  C   UNL     1      35.068 -18.049 -23.206  0.00  0.00    -0.009 C 
ATOM     16  C   UNL     1      34.948 -18.002 -20.703  0.00  0.00    +0.027 C 
ATOM     17  C   UNL     1      35.603 -18.660 -21.943  0.00  0.00    +0.029 C 
ATOM     18  C   UNL     1      34.054 -16.669 -25.481  0.00  0.00    +0.001 C 
ATOM     19  C   UNL     1      35.085 -18.646 -24.467  0.00  0.00    -0.003 C 
ATOM     20  C   UNL     1      34.581 -17.969 -25.585  0.00  0.00    -0.000 C 
ENDBRANCH   4  10
BRANCH   5  22
ATOM     21  N   UNL     1      31.769 -10.237 -22.309  0.00  0.00    -0.312 N 
ATOM     22  C   UNL     1      33.194 -11.311 -23.629  0.00  0.00    +0.003 C 
ATOM     23  C   UNL     1      33.627  -9.961 -23.513  0.00  0.00    +0.011 C 
ATOM     24  C   UNL     1      32.051 -11.451 -22.878  0.00  0.00    +0.058 C 
ATOM     25  C   UNL     1      32.715  -9.308 -22.679  0.00  0.00    +0.048 C 
ATOM     26  C   UNL     1      34.709  -9.227 -24.039  0.00  0.00    +0.001 C 
ATOM     27  C   UNL     1      32.832  -7.955 -22.344  0.00  0.00    +0.015 C 
ATOM     28  C   UNL     1      34.839  -7.873 -23.713  0.00  0.00    +0.000 C 
ATOM     29  C   UNL     1      33.914  -7.248 -22.878  0.00  0.00    +0.001 C 
ATOM     30  H   UNL     1      31.002 -10.056 -21.719  0.00  0.00    +0.152 HD
ENDBRANCH   5  22
TORSDOF 2
ENDMDL
