MODEL 1
REMARK VINA RESULT:      -2.5      0.000      0.000
REMARK  Name = 9864
REMARK  1 active torsions:
REMARK  status: ('A' for Active; 'I' for Inactive)
REMARK    1  A    between atoms: N_1  and  C_5
REMARK                            x       y       z     vdW  Elec       q    Type
REMARK                         _______ _______ _______ _____ _____    ______ ____
ROOT
ATOM      1  N   UNL     1      39.360 -24.767 -15.421  0.00  0.00    -0.297 N 
ATOM      2  H   UNL     1      38.432 -24.717 -15.096  0.00  0.00    +0.154 HD
ATOM      3  H   UNL     1      39.681 -24.123 -16.093  0.00  0.00    +0.154 HD
ENDROOT
BRANCH   1   5
ATOM      4  N   UNL     1      40.900 -26.529 -14.541  0.00  0.00    -0.175 NA
ATOM      5  C   UNL     1      40.186 -25.712 -14.949  0.00  0.00    +0.163 C 
ENDBRANCH   1   5
TORSDOF 1
ENDMDL
MODEL 2
REMARK VINA RESULT:      -2.4      3.719      3.867
REMARK  Name = 9864
REMARK  1 active torsions:
REMARK  status: ('A' for Active; 'I' for Inactive)
REMARK    1  A    between atoms: N_1  and  C_5
REMARK                            x       y       z     vdW  Elec       q    Type
REMARK                         _______ _______ _______ _____ _____    ______ ____
ROOT
ATOM      1  N   UNL     1      36.942 -26.562 -13.608  0.00  0.00    -0.297 N 
ATOM      2  H   UNL     1      36.132 -26.413 -13.068  0.00  0.00    +0.154 HD
ATOM      3  H   UNL     1      37.831 -26.482 -13.194  0.00  0.00    +0.154 HD
ENDROOT
BRANCH   1   5
ATOM      4  N   UNL     1      36.739 -27.144 -16.032  0.00  0.00    -0.175 NA
ATOM      5  C   UNL     1      36.833 -26.874 -14.908  0.00  0.00    +0.163 C 
ENDBRANCH   1   5
TORSDOF 1
ENDMDL
MODEL 3
REMARK VINA RESULT:      -2.3      9.600      9.904
REMARK  Name = 9864
REMARK  1 active torsions:
REMARK  status: ('A' for Active; 'I' for Inactive)
REMARK    1  A    between atoms: N_1  and  C_5
REMARK                            x       y       z     vdW  Elec       q    Type
REMARK                         _______ _______ _______ _____ _____    ______ ____
ROOT
ATOM      1  N   UNL     1      40.410 -15.145 -15.254  0.00  0.00    -0.297 N 
ATOM      2  H   UNL     1      40.260 -14.933 -14.305  0.00  0.00    +0.154 HD
ATOM      3  H   UNL     1      39.803 -14.787 -15.941  0.00  0.00    +0.154 HD
ENDROOT
BRANCH   1   5
ATOM      4  N   UNL     1      42.337 -16.594 -15.921  0.00  0.00    -0.175 NA
ATOM      5  C   UNL     1      41.443 -15.922 -15.611  0.00  0.00    +0.163 C 
ENDBRANCH   1   5
TORSDOF 1
ENDMDL
MODEL 4
REMARK VINA RESULT:      -2.3      5.748      6.023
REMARK  Name = 9864
REMARK  1 active torsions:
REMARK  status: ('A' for Active; 'I' for Inactive)
REMARK    1  A    between atoms: N_1  and  C_5
REMARK                            x       y       z     vdW  Elec       q    Type
REMARK                         _______ _______ _______ _____ _____    ______ ____
ROOT
ATOM      1  N   UNL     1      37.070 -23.212 -11.209  0.00  0.00    -0.297 N 
ATOM      2  H   UNL     1      37.535 -22.744 -10.478  0.00  0.00    +0.154 HD
ATOM      3  H   UNL     1      37.289 -23.003 -12.146  0.00  0.00    +0.154 HD
ENDROOT
BRANCH   1   5
ATOM      4  N   UNL     1      35.333 -24.933 -10.685  0.00  0.00    -0.175 NA
ATOM      5  C   UNL     1      36.139 -24.135 -10.928  0.00  0.00    +0.163 C 
ENDBRANCH   1   5
TORSDOF 1
ENDMDL
MODEL 5
REMARK VINA RESULT:      -2.3      4.969      5.103
REMARK  Name = 9864
REMARK  1 active torsions:
REMARK  status: ('A' for Active; 'I' for Inactive)
REMARK    1  A    between atoms: N_1  and  C_5
REMARK                            x       y       z     vdW  Elec       q    Type
REMARK                         _______ _______ _______ _____ _____    ______ ____
ROOT
ATOM      1  N   UNL     1      35.890 -23.295 -12.372  0.00  0.00    -0.297 N 
ATOM      2  H   UNL     1      35.236 -23.662 -11.734  0.00  0.00    +0.154 HD
ATOM      3  H   UNL     1      35.623 -23.115 -13.302  0.00  0.00    +0.154 HD
ENDROOT
BRANCH   1   5
ATOM      4  N   UNL     1      38.230 -22.819 -11.629  0.00  0.00    -0.175 NA
ATOM      5  C   UNL     1      37.145 -23.039 -11.973  0.00  0.00    +0.163 C 
ENDBRANCH   1   5
TORSDOF 1
ENDMDL
MODEL 6
REMARK VINA RESULT:      -2.3     11.767     12.318
REMARK  Name = 9864
REMARK  1 active torsions:
REMARK  status: ('A' for Active; 'I' for Inactive)
REMARK    1  A    between atoms: N_1  and  C_5
REMARK                            x       y       z     vdW  Elec       q    Type
REMARK                         _______ _______ _______ _____ _____    ______ ____
ROOT
ATOM      1  N   UNL     1      28.786 -24.245 -15.690  0.00  0.00    -0.297 N 
ATOM      2  H   UNL     1      29.471 -24.950 -15.736  0.00  0.00    +0.154 HD
ATOM      3  H   UNL     1      28.502 -23.891 -14.817  0.00  0.00    +0.154 HD
ENDROOT
BRANCH   1   5
ATOM      4  N   UNL     1      27.768 -23.351 -17.792  0.00  0.00    -0.175 NA
ATOM      5  C   UNL     1      28.240 -23.766 -16.817  0.00  0.00    +0.163 C 
ENDBRANCH   1   5
TORSDOF 1
ENDMDL
MODEL 7
REMARK VINA RESULT:      -2.2     12.350     13.073
REMARK  Name = 9864
REMARK  1 active torsions:
REMARK  status: ('A' for Active; 'I' for Inactive)
REMARK    1  A    between atoms: N_1  and  C_5
REMARK                            x       y       z     vdW  Elec       q    Type
REMARK                         _______ _______ _______ _____ _____    ______ ____
ROOT
ATOM      1  N   UNL     1      28.822 -22.635 -16.984  0.00  0.00    -0.297 N 
ATOM      2  H   UNL     1      28.893 -22.635 -17.965  0.00  0.00    +0.154 HD
ATOM      3  H   UNL     1      29.626 -22.766 -16.432  0.00  0.00    +0.154 HD
ENDROOT
BRANCH   1   5
ATOM      4  N   UNL     1      26.596 -22.305 -15.891  0.00  0.00    -0.175 NA
ATOM      5  C   UNL     1      27.628 -22.458 -16.398  0.00  0.00    +0.163 C 
ENDBRANCH   1   5
TORSDOF 1
ENDMDL
MODEL 8
REMARK VINA RESULT:      -2.2     13.123     13.884
REMARK  Name = 9864
REMARK  1 active torsions:
REMARK  status: ('A' for Active; 'I' for Inactive)
REMARK    1  A    between atoms: N_1  and  C_5
REMARK                            x       y       z     vdW  Elec       q    Type
REMARK                         _______ _______ _______ _____ _____    ______ ____
ROOT
ATOM      1  N   UNL     1      28.128 -22.824 -17.355  0.00  0.00    -0.297 N 
ATOM      2  H   UNL     1      28.700 -23.030 -16.581  0.00  0.00    +0.154 HD
ATOM      3  H   UNL     1      28.386 -23.131 -18.254  0.00  0.00    +0.154 HD
ENDROOT
BRANCH   1   5
ATOM      4  N   UNL     1      26.018 -21.520 -17.036  0.00  0.00    -0.175 NA
ATOM      5  C   UNL     1      26.996 -22.125 -17.184  0.00  0.00    +0.163 C 
ENDBRANCH   1   5
TORSDOF 1
ENDMDL
MODEL 9
REMARK VINA RESULT:      -2.2     13.754     14.586
REMARK  Name = 9864
REMARK  1 active torsions:
REMARK  status: ('A' for Active; 'I' for Inactive)
REMARK    1  A    between atoms: N_1  and  C_5
REMARK                            x       y       z     vdW  Elec       q    Type
REMARK                         _______ _______ _______ _____ _____    ______ ____
ROOT
ATOM      1  N   UNL     1      35.404 -17.247 -24.008  0.00  0.00    -0.297 N 
ATOM      2  H   UNL     1      36.176 -16.750 -23.654  0.00  0.00    +0.154 HD
ATOM      3  H   UNL     1      35.146 -18.108 -23.606  0.00  0.00    +0.154 HD
ENDROOT
BRANCH   1   5
ATOM      4  N   UNL     1      34.096 -16.322 -25.928  0.00  0.00    -0.175 NA
ATOM      5  C   UNL     1      34.702 -16.751 -25.038  0.00  0.00    +0.163 C 
ENDBRANCH   1   5
TORSDOF 1
ENDMDL
