MODEL 1
REMARK VINA RESULT:      -3.0      0.000      0.000
REMARK  Name = 61437
REMARK  0 active torsions:
REMARK  status: ('A' for Active; 'I' for Inactive)
REMARK                            x       y       z     vdW  Elec       q    Type
REMARK                         _______ _______ _______ _____ _____    ______ ____
ROOT
ATOM      1 CL   UNL     1      34.612 -19.392 -22.537  0.00  0.00    +0.013 Cl
ATOM      2 CL   UNL     1      35.701 -20.661 -20.179  0.00  0.00    +0.013 Cl
ATOM      3 CL   UNL     1      32.861 -20.157 -20.368  0.00  0.00    +0.013 Cl
ATOM      4  N   UNL     1      34.465 -19.568 -20.792  0.00  0.00    -0.038 NA
ENDROOT
TORSDOF 0
ENDMDL
MODEL 2
REMARK VINA RESULT:      -3.0      2.530      3.463
REMARK  Name = 61437
REMARK  0 active torsions:
REMARK  status: ('A' for Active; 'I' for Inactive)
REMARK                            x       y       z     vdW  Elec       q    Type
REMARK                         _______ _______ _______ _____ _____    ______ ____
ROOT
ATOM      1 CL   UNL     1      35.100 -22.229 -19.503  0.00  0.00    +0.013 Cl
ATOM      2 CL   UNL     1      32.799 -20.516 -19.862  0.00  0.00    +0.013 Cl
ATOM      3 CL   UNL     1      32.746 -22.608 -17.868  0.00  0.00    +0.013 Cl
ATOM      4  N   UNL     1      33.342 -22.141 -19.457  0.00  0.00    -0.038 NA
ENDROOT
TORSDOF 0
ENDMDL
MODEL 3
REMARK VINA RESULT:      -3.0      0.174      2.451
REMARK  Name = 61437
REMARK  0 active torsions:
REMARK  status: ('A' for Active; 'I' for Inactive)
REMARK                            x       y       z     vdW  Elec       q    Type
REMARK                         _______ _______ _______ _____ _____    ______ ____
ROOT
ATOM      1 CL   UNL     1      35.915 -20.579 -20.252  0.00  0.00    +0.013 Cl
ATOM      2 CL   UNL     1      33.042 -20.262 -20.289  0.00  0.00    +0.013 Cl
ATOM      3 CL   UNL     1      34.621 -19.394 -22.550  0.00  0.00    +0.013 Cl
ATOM      4  N   UNL     1      34.579 -19.571 -20.799  0.00  0.00    -0.038 NA
ENDROOT
TORSDOF 0
ENDMDL
MODEL 4
REMARK VINA RESULT:      -3.0      0.162      2.531
REMARK  Name = 61437
REMARK  0 active torsions:
REMARK  status: ('A' for Active; 'I' for Inactive)
REMARK                            x       y       z     vdW  Elec       q    Type
REMARK                         _______ _______ _______ _____ _____    ______ ____
ROOT
ATOM      1 CL   UNL     1      32.968 -20.290 -20.275  0.00  0.00    +0.013 Cl
ATOM      2 CL   UNL     1      34.654 -19.432 -22.461  0.00  0.00    +0.013 Cl
ATOM      3 CL   UNL     1      35.813 -20.799 -20.192  0.00  0.00    +0.013 Cl
ATOM      4  N   UNL     1      34.559 -19.681 -20.721  0.00  0.00    -0.038 NA
ENDROOT
TORSDOF 0
ENDMDL
MODEL 5
REMARK VINA RESULT:      -2.9     10.349     11.053
REMARK  Name = 61437
REMARK  0 active torsions:
REMARK  status: ('A' for Active; 'I' for Inactive)
REMARK                            x       y       z     vdW  Elec       q    Type
REMARK                         _______ _______ _______ _____ _____    ______ ____
ROOT
ATOM      1 CL   UNL     1      34.896  -7.947 -23.701  0.00  0.00    +0.013 Cl
ATOM      2 CL   UNL     1      35.467 -10.110 -25.532  0.00  0.00    +0.013 Cl
ATOM      3 CL   UNL     1      33.214 -10.298 -23.729  0.00  0.00    +0.013 Cl
ATOM      4  N   UNL     1      34.854  -9.691 -23.935  0.00  0.00    -0.038 NA
ENDROOT
TORSDOF 0
ENDMDL
MODEL 6
REMARK VINA RESULT:      -2.9      0.993      2.085
REMARK  Name = 61437
REMARK  0 active torsions:
REMARK  status: ('A' for Active; 'I' for Inactive)
REMARK                            x       y       z     vdW  Elec       q    Type
REMARK                         _______ _______ _______ _____ _____    ______ ____
ROOT
ATOM      1 CL   UNL     1      33.083 -20.408 -20.109  0.00  0.00    +0.013 Cl
ATOM      2 CL   UNL     1      35.953 -20.737 -19.995  0.00  0.00    +0.013 Cl
ATOM      3 CL   UNL     1      34.819 -18.302 -21.064  0.00  0.00    +0.013 Cl
ATOM      4  N   UNL     1      34.613 -20.043 -20.901  0.00  0.00    -0.038 NA
ENDROOT
TORSDOF 0
ENDMDL
MODEL 7
REMARK VINA RESULT:      -2.8      1.011      2.124
REMARK  Name = 61437
REMARK  0 active torsions:
REMARK  status: ('A' for Active; 'I' for Inactive)
REMARK                            x       y       z     vdW  Elec       q    Type
REMARK                         _______ _______ _______ _____ _____    ______ ____
ROOT
ATOM      1 CL   UNL     1      35.891 -20.856 -19.858  0.00  0.00    +0.013 Cl
ATOM      2 CL   UNL     1      34.798 -18.441 -21.012  0.00  0.00    +0.013 Cl
ATOM      3 CL   UNL     1      33.026 -20.487 -19.995  0.00  0.00    +0.013 Cl
ATOM      4  N   UNL     1      34.564 -20.172 -20.792  0.00  0.00    -0.038 NA
ENDROOT
TORSDOF 0
ENDMDL
MODEL 8
REMARK VINA RESULT:      -2.8      1.454      2.241
REMARK  Name = 61437
REMARK  0 active torsions:
REMARK  status: ('A' for Active; 'I' for Inactive)
REMARK                            x       y       z     vdW  Elec       q    Type
REMARK                         _______ _______ _______ _____ _____    ______ ____
ROOT
ATOM      1 CL   UNL     1      34.802 -19.360 -23.259  0.00  0.00    +0.013 Cl
ATOM      2 CL   UNL     1      33.346 -19.852 -20.810  0.00  0.00    +0.013 Cl
ATOM      3 CL   UNL     1      35.052 -17.528 -21.037  0.00  0.00    +0.013 Cl
ATOM      4  N   UNL     1      34.832 -19.211 -21.505  0.00  0.00    -0.038 NA
ENDROOT
TORSDOF 0
ENDMDL
MODEL 9
REMARK VINA RESULT:      -2.8      1.441      2.714
REMARK  Name = 61437
REMARK  0 active torsions:
REMARK  status: ('A' for Active; 'I' for Inactive)
REMARK                            x       y       z     vdW  Elec       q    Type
REMARK                         _______ _______ _______ _____ _____    ______ ____
ROOT
ATOM      1 CL   UNL     1      33.337 -19.783 -20.726  0.00  0.00    +0.013 Cl
ATOM      2 CL   UNL     1      35.036 -17.462 -21.012  0.00  0.00    +0.013 Cl
ATOM      3 CL   UNL     1      34.819 -19.370 -23.173  0.00  0.00    +0.013 Cl
ATOM      4  N   UNL     1      34.827 -19.161 -21.425  0.00  0.00    -0.038 NA
ENDROOT
TORSDOF 0
ENDMDL
