MODEL 1
REMARK VINA RESULT:     -10.3      0.000      0.000
REMARK  Name = 5281628
REMARK  5 active torsions:
REMARK  status: ('A' for Active; 'I' for Inactive)
REMARK    1  A    between atoms: C_5  and  C_12
REMARK    2  A    between atoms: C_6  and  O_22
REMARK    3  A    between atoms: C_9  and  O_20
REMARK    4  A    between atoms: C_11  and  O_24
REMARK    5  A    between atoms: C_17  and  O_18
REMARK                            x       y       z     vdW  Elec       q    Type
REMARK                         _______ _______ _______ _____ _____    ______ ____
ROOT
ATOM      1  O   UNL     1      34.160 -17.296 -21.739  0.00  0.00    -0.453 OA
ATOM      2  O   UNL     1      34.725 -17.871 -25.733  0.00  0.00    -0.286 OA
ATOM      3  C   UNL     1      34.067 -16.408 -23.998  0.00  0.00    +0.110 C 
ATOM      4  C   UNL     1      33.897 -16.278 -22.620  0.00  0.00    +0.154 C 
ATOM      5  C   UNL     1      34.606 -18.508 -22.245  0.00  0.00    +0.148 C 
ATOM      6  C   UNL     1      33.784 -15.336 -24.848  0.00  0.00    +0.177 C 
ATOM      7  C   UNL     1      34.549 -17.688 -24.536  0.00  0.00    +0.205 C 
ATOM      8  C   UNL     1      33.442 -15.073 -22.084  0.00  0.00    +0.078 C 
ATOM      9  C   UNL     1      33.329 -14.132 -24.309  0.00  0.00    +0.206 C 
ATOM     10  C   UNL     1      34.815 -18.752 -23.547  0.00  0.00    +0.080 C 
ATOM     11  C   UNL     1      33.158 -14.000 -22.930  0.00  0.00    +0.174 C 
ENDROOT
BRANCH   5  12
ATOM     12  C   UNL     1      34.864 -19.530 -21.211  0.00  0.00    +0.035 C 
ATOM     13  C   UNL     1      36.172 -19.798 -20.798  0.00  0.00    +0.006 C 
ATOM     14  C   UNL     1      33.801 -20.236 -20.641  0.00  0.00    +0.006 C 
ATOM     15  C   UNL     1      36.415 -20.765 -19.823  0.00  0.00    +0.037 C 
ATOM     16  C   UNL     1      34.045 -21.203 -19.666  0.00  0.00    +0.037 C 
ATOM     17  C   UNL     1      35.351 -21.467 -19.257  0.00  0.00    +0.134 C 
BRANCH  17  18
ATOM     18  O   UNL     1      35.588 -22.411 -18.305  0.00  0.00    -0.506 OA
ATOM     19  H   UNL     1      36.469 -22.607 -18.048  0.00  0.00    +0.292 HD
ENDBRANCH  17  18
ENDBRANCH   5  12
BRANCH   9  20
ATOM     20  O   UNL     1      33.048 -13.078 -25.128  0.00  0.00    -0.465 OA
ATOM     21  C   UNL     1      34.017 -12.034 -25.194  0.00  0.00    +0.253 C 
ENDBRANCH   9  20
BRANCH   6  22
ATOM     22  O   UNL     1      33.938 -15.426 -26.200  0.00  0.00    -0.503 OA
ATOM     23  H   UNL     1      34.758 -15.206 -26.594  0.00  0.00    +0.292 HD
ENDBRANCH   6  22
BRANCH  11  24
ATOM     24  O   UNL     1      32.713 -12.829 -22.395  0.00  0.00    -0.503 OA
ATOM     25  H   UNL     1      32.287 -12.826 -21.561  0.00  0.00    +0.292 HD
ENDBRANCH  11  24
TORSDOF 5
ENDMDL
MODEL 2
REMARK VINA RESULT:     -10.3      0.028      1.030
REMARK  Name = 5281628
REMARK  5 active torsions:
REMARK  status: ('A' for Active; 'I' for Inactive)
REMARK    1  A    between atoms: C_5  and  C_12
REMARK    2  A    between atoms: C_6  and  O_22
REMARK    3  A    between atoms: C_9  and  O_20
REMARK    4  A    between atoms: C_11  and  O_24
REMARK    5  A    between atoms: C_17  and  O_18
REMARK                            x       y       z     vdW  Elec       q    Type
REMARK                         _______ _______ _______ _____ _____    ______ ____
ROOT
ATOM      1  O   UNL     1      34.164 -17.307 -21.739  0.00  0.00    -0.453 OA
ATOM      2  O   UNL     1      34.753 -17.876 -25.730  0.00  0.00    -0.286 OA
ATOM      3  C   UNL     1      34.074 -16.419 -23.997  0.00  0.00    +0.110 C 
ATOM      4  C   UNL     1      33.896 -16.292 -22.620  0.00  0.00    +0.154 C 
ATOM      5  C   UNL     1      34.623 -18.515 -22.242  0.00  0.00    +0.148 C 
ATOM      6  C   UNL     1      33.786 -15.350 -24.848  0.00  0.00    +0.177 C 
ATOM      7  C   UNL     1      34.570 -17.695 -24.534  0.00  0.00    +0.205 C 
ATOM      8  C   UNL     1      33.428 -15.091 -22.086  0.00  0.00    +0.078 C 
ATOM      9  C   UNL     1      33.317 -14.150 -24.312  0.00  0.00    +0.206 C 
ATOM     10  C   UNL     1      34.840 -18.758 -23.544  0.00  0.00    +0.080 C 
ATOM     11  C   UNL     1      33.139 -14.021 -22.934  0.00  0.00    +0.174 C 
ENDROOT
BRANCH   5  12
ATOM     12  C   UNL     1      34.885 -19.535 -21.207  0.00  0.00    +0.035 C 
ATOM     13  C   UNL     1      33.828 -20.254 -20.645  0.00  0.00    +0.006 C 
ATOM     14  C   UNL     1      36.193 -19.785 -20.783  0.00  0.00    +0.006 C 
ATOM     15  C   UNL     1      34.076 -21.216 -19.666  0.00  0.00    +0.037 C 
ATOM     16  C   UNL     1      36.442 -20.747 -19.805  0.00  0.00    +0.037 C 
ATOM     17  C   UNL     1      35.384 -21.462 -19.246  0.00  0.00    +0.134 C 
BRANCH  17  18
ATOM     18  O   UNL     1      35.626 -22.401 -18.291  0.00  0.00    -0.506 OA
ATOM     19  H   UNL     1      36.112 -22.173 -17.522  0.00  0.00    +0.292 HD
ENDBRANCH  17  18
ENDBRANCH   5  12
BRANCH   9  20
ATOM     20  O   UNL     1      33.032 -13.099 -25.132  0.00  0.00    -0.465 OA
ATOM     21  C   UNL     1      33.982 -12.037 -25.179  0.00  0.00    +0.253 C 
ENDBRANCH   9  20
BRANCH   6  22
ATOM     22  O   UNL     1      33.947 -15.438 -26.200  0.00  0.00    -0.503 OA
ATOM     23  H   UNL     1      33.623 -14.758 -26.756  0.00  0.00    +0.292 HD
ENDBRANCH   6  22
BRANCH  11  24
ATOM     24  O   UNL     1      32.681 -12.853 -22.401  0.00  0.00    -0.503 OA
ATOM     25  H   UNL     1      32.945 -12.595 -21.540  0.00  0.00    +0.292 HD
ENDBRANCH  11  24
TORSDOF 5
ENDMDL
MODEL 3
REMARK VINA RESULT:      -9.9      9.166     11.973
REMARK  Name = 5281628
REMARK  5 active torsions:
REMARK  status: ('A' for Active; 'I' for Inactive)
REMARK    1  A    between atoms: C_5  and  C_12
REMARK    2  A    between atoms: C_6  and  O_22
REMARK    3  A    between atoms: C_9  and  O_20
REMARK    4  A    between atoms: C_11  and  O_24
REMARK    5  A    between atoms: C_17  and  O_18
REMARK                            x       y       z     vdW  Elec       q    Type
REMARK                         _______ _______ _______ _____ _____    ______ ____
ROOT
ATOM      1  O   UNL     1      34.078 -24.320 -14.301  0.00  0.00    -0.453 OA
ATOM      2  O   UNL     1      36.448 -22.617 -17.144  0.00  0.00    -0.286 OA
ATOM      3  C   UNL     1      36.311 -23.829 -15.120  0.00  0.00    +0.110 C 
ATOM      4  C   UNL     1      35.443 -24.390 -14.185  0.00  0.00    +0.154 C 
ATOM      5  C   UNL     1      33.542 -23.654 -15.392  0.00  0.00    +0.148 C 
ATOM      6  C   UNL     1      37.694 -23.932 -14.950  0.00  0.00    +0.177 C 
ATOM      7  C   UNL     1      35.746 -23.130 -16.283  0.00  0.00    +0.205 C 
ATOM      8  C   UNL     1      35.954 -25.060 -13.073  0.00  0.00    +0.078 C 
ATOM      9  C   UNL     1      38.203 -24.602 -13.837  0.00  0.00    +0.206 C 
ATOM     10  C   UNL     1      34.272 -23.080 -16.361  0.00  0.00    +0.080 C 
ATOM     11  C   UNL     1      37.335 -25.165 -12.900  0.00  0.00    +0.174 C 
ENDROOT
BRANCH   5  12
ATOM     12  C   UNL     1      32.066 -23.644 -15.423  0.00  0.00    +0.035 C 
ATOM     13  C   UNL     1      31.338 -24.374 -14.480  0.00  0.00    +0.006 C 
ATOM     14  C   UNL     1      31.389 -22.905 -16.397  0.00  0.00    +0.006 C 
ATOM     15  C   UNL     1      29.944 -24.365 -14.510  0.00  0.00    +0.037 C 
ATOM     16  C   UNL     1      29.994 -22.896 -16.427  0.00  0.00    +0.037 C 
ATOM     17  C   UNL     1      29.272 -23.626 -15.484  0.00  0.00    +0.134 C 
BRANCH  17  18
ATOM     18  O   UNL     1      27.911 -23.618 -15.513  0.00  0.00    -0.506 OA
ATOM     19  H   UNL     1      27.440 -24.421 -15.626  0.00  0.00    +0.292 HD
ENDBRANCH  17  18
ENDBRANCH   5  12
BRANCH   9  20
ATOM     20  O   UNL     1      39.551 -24.710 -13.660  0.00  0.00    -0.465 OA
ATOM     21  C   UNL     1      40.194 -25.837 -14.250  0.00  0.00    +0.253 C 
ENDBRANCH   9  20
BRANCH   6  22
ATOM     22  O   UNL     1      38.573 -23.395 -15.843  0.00  0.00    -0.503 OA
ATOM     23  H   UNL     1      38.258 -23.002 -16.633  0.00  0.00    +0.292 HD
ENDBRANCH   6  22
BRANCH  11  24
ATOM     24  O   UNL     1      37.823 -25.820 -11.810  0.00  0.00    -0.503 OA
ATOM     25  H   UNL     1      37.303 -25.891 -11.034  0.00  0.00    +0.292 HD
ENDBRANCH  11  24
TORSDOF 5
ENDMDL
MODEL 4
REMARK VINA RESULT:      -9.6      4.157     10.621
REMARK  Name = 5281628
REMARK  5 active torsions:
REMARK  status: ('A' for Active; 'I' for Inactive)
REMARK    1  A    between atoms: C_5  and  C_12
REMARK    2  A    between atoms: C_6  and  O_22
REMARK    3  A    between atoms: C_9  and  O_20
REMARK    4  A    between atoms: C_11  and  O_24
REMARK    5  A    between atoms: C_17  and  O_18
REMARK                            x       y       z     vdW  Elec       q    Type
REMARK                         _______ _______ _______ _____ _____    ______ ____
ROOT
ATOM      1  O   UNL     1      35.628 -22.315 -17.482  0.00  0.00    -0.453 OA
ATOM      2  O   UNL     1      32.283 -24.053 -15.934  0.00  0.00    -0.286 OA
ATOM      3  C   UNL     1      34.612 -23.691 -15.757  0.00  0.00    +0.110 C 
ATOM      4  C   UNL     1      35.715 -23.068 -16.339  0.00  0.00    +0.154 C 
ATOM      5  C   UNL     1      34.388 -22.176 -18.087  0.00  0.00    +0.148 C 
ATOM      6  C   UNL     1      34.761 -24.446 -14.591  0.00  0.00    +0.177 C 
ATOM      7  C   UNL     1      33.294 -23.538 -16.391  0.00  0.00    +0.205 C 
ATOM      8  C   UNL     1      36.976 -23.197 -15.756  0.00  0.00    +0.078 C 
ATOM      9  C   UNL     1      36.023 -24.573 -14.010  0.00  0.00    +0.206 C 
ATOM     10  C   UNL     1      33.254 -22.720 -17.621  0.00  0.00    +0.080 C 
ATOM     11  C   UNL     1      37.129 -23.951 -14.591  0.00  0.00    +0.174 C 
ENDROOT
BRANCH   5  12
ATOM     12  C   UNL     1      34.406 -21.341 -19.305  0.00  0.00    +0.035 C 
ATOM     13  C   UNL     1      35.618 -21.024 -19.921  0.00  0.00    +0.006 C 
ATOM     14  C   UNL     1      33.209 -20.863 -19.846  0.00  0.00    +0.006 C 
ATOM     15  C   UNL     1      35.635 -20.234 -21.071  0.00  0.00    +0.037 C 
ATOM     16  C   UNL     1      33.226 -20.073 -20.995  0.00  0.00    +0.037 C 
ATOM     17  C   UNL     1      34.438 -19.758 -21.607  0.00  0.00    +0.134 C 
BRANCH  17  18
ATOM     18  O   UNL     1      34.454 -18.987 -22.729  0.00  0.00    -0.506 OA
ATOM     19  H   UNL     1      34.074 -18.130 -22.714  0.00  0.00    +0.292 HD
ENDBRANCH  17  18
ENDBRANCH   5  12
BRANCH   9  20
ATOM     20  O   UNL     1      36.182 -25.308 -12.872  0.00  0.00    -0.465 OA
ATOM     21  C   UNL     1      36.000 -24.628 -11.632  0.00  0.00    +0.253 C 
ENDBRANCH   9  20
BRANCH   6  22
ATOM     22  O   UNL     1      33.705 -25.069 -13.995  0.00  0.00    -0.503 OA
ATOM     23  H   UNL     1      32.844 -24.709 -14.071  0.00  0.00    +0.292 HD
ENDBRANCH   6  22
BRANCH  11  24
ATOM     24  O   UNL     1      38.365 -24.071 -14.031  0.00  0.00    -0.503 OA
ATOM     25  H   UNL     1      38.497 -23.838 -13.133  0.00  0.00    +0.292 HD
ENDBRANCH  11  24
TORSDOF 5
ENDMDL
MODEL 5
REMARK VINA RESULT:      -9.6      1.572      7.588
REMARK  Name = 5281628
REMARK  5 active torsions:
REMARK  status: ('A' for Active; 'I' for Inactive)
REMARK    1  A    between atoms: C_5  and  C_12
REMARK    2  A    between atoms: C_6  and  O_22
REMARK    3  A    between atoms: C_9  and  O_20
REMARK    4  A    between atoms: C_11  and  O_24
REMARK    5  A    between atoms: C_17  and  O_18
REMARK                            x       y       z     vdW  Elec       q    Type
REMARK                         _______ _______ _______ _____ _____    ______ ____
ROOT
ATOM      1  O   UNL     1      33.892 -18.654 -21.714  0.00  0.00    -0.453 OA
ATOM      2  O   UNL     1      37.835 -19.381 -20.991  0.00  0.00    -0.286 OA
ATOM      3  C   UNL     1      35.585 -19.974 -20.578  0.00  0.00    +0.110 C 
ATOM      4  C   UNL     1      34.255 -19.672 -20.870  0.00  0.00    +0.154 C 
ATOM      5  C   UNL     1      34.891 -17.888 -22.294  0.00  0.00    +0.148 C 
ATOM      6  C   UNL     1      35.897 -21.024 -19.712  0.00  0.00    +0.177 C 
ATOM      7  C   UNL     1      36.648 -19.170 -21.199  0.00  0.00    +0.205 C 
ATOM      8  C   UNL     1      33.228 -20.421 -20.296  0.00  0.00    +0.078 C 
ATOM      9  C   UNL     1      34.867 -21.771 -19.138  0.00  0.00    +0.206 C 
ATOM     10  C   UNL     1      36.204 -18.084 -22.097  0.00  0.00    +0.080 C 
ATOM     11  C   UNL     1      33.536 -21.470 -19.429  0.00  0.00    +0.174 C 
ENDROOT
BRANCH   5  12
ATOM     12  C   UNL     1      34.390 -16.825 -23.188  0.00  0.00    +0.035 C 
ATOM     13  C   UNL     1      33.874 -15.643 -22.654  0.00  0.00    +0.006 C 
ATOM     14  C   UNL     1      34.428 -17.000 -24.574  0.00  0.00    +0.006 C 
ATOM     15  C   UNL     1      33.400 -14.640 -23.500  0.00  0.00    +0.037 C 
ATOM     16  C   UNL     1      33.953 -15.997 -25.420  0.00  0.00    +0.037 C 
ATOM     17  C   UNL     1      33.439 -14.818 -24.883  0.00  0.00    +0.134 C 
BRANCH  17  18
ATOM     18  O   UNL     1      32.975 -13.839 -25.708  0.00  0.00    -0.506 OA
ATOM     19  H   UNL     1      33.503 -13.540 -26.423  0.00  0.00    +0.292 HD
ENDBRANCH  17  18
ENDBRANCH   5  12
BRANCH   9  20
ATOM     20  O   UNL     1      35.158 -22.798 -18.289  0.00  0.00    -0.465 OA
ATOM     21  C   UNL     1      35.369 -22.466 -16.919  0.00  0.00    +0.253 C 
ENDBRANCH   9  20
BRANCH   6  22
ATOM     22  O   UNL     1      37.185 -21.347 -19.402  0.00  0.00    -0.503 OA
ATOM     23  H   UNL     1      37.848 -20.686 -19.407  0.00  0.00    +0.292 HD
ENDBRANCH   6  22
BRANCH  11  24
ATOM     24  O   UNL     1      32.524 -22.194 -18.872  0.00  0.00    -0.503 OA
ATOM     25  H   UNL     1      32.126 -22.891 -19.355  0.00  0.00    +0.292 HD
ENDBRANCH  11  24
TORSDOF 5
ENDMDL
MODEL 6
REMARK VINA RESULT:      -9.6      3.141      9.220
REMARK  Name = 5281628
REMARK  5 active torsions:
REMARK  status: ('A' for Active; 'I' for Inactive)
REMARK    1  A    between atoms: C_5  and  C_12
REMARK    2  A    between atoms: C_6  and  O_22
REMARK    3  A    between atoms: C_9  and  O_20
REMARK    4  A    between atoms: C_11  and  O_24
REMARK    5  A    between atoms: C_17  and  O_18
REMARK                            x       y       z     vdW  Elec       q    Type
REMARK                         _______ _______ _______ _____ _____    ______ ____
ROOT
ATOM      1  O   UNL     1      35.987 -20.946 -19.082  0.00  0.00    -0.453 OA
ATOM      2  O   UNL     1      32.447 -22.775 -18.231  0.00  0.00    -0.286 OA
ATOM      3  C   UNL     1      34.714 -22.443 -17.654  0.00  0.00    +0.110 C 
ATOM      4  C   UNL     1      35.893 -21.785 -18.000  0.00  0.00    +0.154 C 
ATOM      5  C   UNL     1      34.861 -20.754 -19.867  0.00  0.00    +0.148 C 
ATOM      6  C   UNL     1      34.677 -23.285 -16.540  0.00  0.00    +0.177 C 
ATOM      7  C   UNL     1      33.515 -22.233 -18.479  0.00  0.00    +0.205 C 
ATOM      8  C   UNL     1      37.044 -21.965 -17.232  0.00  0.00    +0.078 C 
ATOM      9  C   UNL     1      35.829 -23.464 -15.774  0.00  0.00    +0.206 C 
ATOM     10  C   UNL     1      33.669 -21.324 -19.633  0.00  0.00    +0.080 C 
ATOM     11  C   UNL     1      37.011 -22.806 -16.119  0.00  0.00    +0.174 C 
ENDROOT
BRANCH   5  12
ATOM     12  C   UNL     1      35.071 -19.829 -20.999  0.00  0.00    +0.035 C 
ATOM     13  C   UNL     1      36.250 -19.086 -21.091  0.00  0.00    +0.006 C 
ATOM     14  C   UNL     1      34.088 -19.690 -21.983  0.00  0.00    +0.006 C 
ATOM     15  C   UNL     1      36.447 -18.212 -22.160  0.00  0.00    +0.037 C 
ATOM     16  C   UNL     1      34.285 -18.816 -23.052  0.00  0.00    +0.037 C 
ATOM     17  C   UNL     1      35.464 -18.077 -23.140  0.00  0.00    +0.134 C 
BRANCH  17  18
ATOM     18  O   UNL     1      35.656 -17.223 -24.183  0.00  0.00    -0.506 OA
ATOM     19  H   UNL     1      34.971 -16.637 -24.441  0.00  0.00    +0.292 HD
ENDBRANCH  17  18
ENDBRANCH   5  12
BRANCH   9  20
ATOM     20  O   UNL     1      35.806 -24.284 -14.684  0.00  0.00    -0.465 OA
ATOM     21  C   UNL     1      36.195 -25.641 -14.887  0.00  0.00    +0.253 C 
ENDBRANCH   9  20
BRANCH   6  22
ATOM     22  O   UNL     1      33.542 -23.945 -16.171  0.00  0.00    -0.503 OA
ATOM     23  H   UNL     1      33.226 -24.658 -16.689  0.00  0.00    +0.292 HD
ENDBRANCH   6  22
BRANCH  11  24
ATOM     24  O   UNL     1      38.141 -22.976 -15.377  0.00  0.00    -0.503 OA
ATOM     25  H   UNL     1      38.820 -22.332 -15.404  0.00  0.00    +0.292 HD
ENDBRANCH  11  24
TORSDOF 5
ENDMDL
MODEL 7
REMARK VINA RESULT:      -9.5      4.262      7.959
REMARK  Name = 5281628
REMARK  5 active torsions:
REMARK  status: ('A' for Active; 'I' for Inactive)
REMARK    1  A    between atoms: C_5  and  C_12
REMARK    2  A    between atoms: C_6  and  O_22
REMARK    3  A    between atoms: C_9  and  O_20
REMARK    4  A    between atoms: C_11  and  O_24
REMARK    5  A    between atoms: C_17  and  O_18
REMARK                            x       y       z     vdW  Elec       q    Type
REMARK                         _______ _______ _______ _____ _____    ______ ____
ROOT
ATOM      1  O   UNL     1      35.992 -22.694 -16.943  0.00  0.00    -0.453 OA
ATOM      2  O   UNL     1      32.088 -22.726 -18.110  0.00  0.00    -0.286 OA
ATOM      3  C   UNL     1      34.292 -21.982 -18.525  0.00  0.00    +0.110 C 
ATOM      4  C   UNL     1      35.610 -22.013 -18.071  0.00  0.00    +0.154 C 
ATOM      5  C   UNL     1      35.021 -23.372 -16.221  0.00  0.00    +0.148 C 
ATOM      6  C   UNL     1      33.962 -21.273 -19.683  0.00  0.00    +0.177 C 
ATOM      7  C   UNL     1      33.262 -22.707 -17.767  0.00  0.00    +0.205 C 
ATOM      8  C   UNL     1      36.606 -21.335 -18.773  0.00  0.00    +0.078 C 
ATOM      9  C   UNL     1      34.960 -20.594 -20.383  0.00  0.00    +0.206 C 
ATOM     10  C   UNL     1      33.724 -23.421 -16.559  0.00  0.00    +0.080 C 
ATOM     11  C   UNL     1      36.280 -20.625 -19.929  0.00  0.00    +0.174 C 
ENDROOT
BRANCH   5  12
ATOM     12  C   UNL     1      35.541 -24.074 -15.030  0.00  0.00    +0.035 C 
ATOM     13  C   UNL     1      36.656 -24.909 -15.138  0.00  0.00    +0.006 C 
ATOM     14  C   UNL     1      34.918 -23.909 -13.791  0.00  0.00    +0.006 C 
ATOM     15  C   UNL     1      37.145 -25.573 -14.013  0.00  0.00    +0.037 C 
ATOM     16  C   UNL     1      35.407 -24.574 -12.666  0.00  0.00    +0.037 C 
ATOM     17  C   UNL     1      36.520 -25.406 -12.777  0.00  0.00    +0.134 C 
BRANCH  17  18
ATOM     18  O   UNL     1      36.998 -26.054 -11.680  0.00  0.00    -0.506 OA
ATOM     19  H   UNL     1      36.438 -26.629 -11.195  0.00  0.00    +0.292 HD
ENDBRANCH  17  18
ENDBRANCH   5  12
BRANCH   9  20
ATOM     20  O   UNL     1      34.650 -19.897 -21.513  0.00  0.00    -0.465 OA
ATOM     21  C   UNL     1      34.309 -18.522 -21.353  0.00  0.00    +0.253 C 
ENDBRANCH   9  20
BRANCH   6  22
ATOM     22  O   UNL     1      32.684 -21.219 -20.156  0.00  0.00    -0.503 OA
ATOM     23  H   UNL     1      32.502 -21.462 -21.042  0.00  0.00    +0.292 HD
ENDBRANCH   6  22
BRANCH  11  24
ATOM     24  O   UNL     1      37.261 -19.965 -20.606  0.00  0.00    -0.503 OA
ATOM     25  H   UNL     1      37.049 -19.468 -21.372  0.00  0.00    +0.292 HD
ENDBRANCH  11  24
TORSDOF 5
ENDMDL
MODEL 8
REMARK VINA RESULT:      -9.4      1.194      2.869
REMARK  Name = 5281628
REMARK  5 active torsions:
REMARK  status: ('A' for Active; 'I' for Inactive)
REMARK    1  A    between atoms: C_5  and  C_12
REMARK    2  A    between atoms: C_6  and  O_22
REMARK    3  A    between atoms: C_9  and  O_20
REMARK    4  A    between atoms: C_11  and  O_24
REMARK    5  A    between atoms: C_17  and  O_18
REMARK                            x       y       z     vdW  Elec       q    Type
REMARK                         _______ _______ _______ _____ _____    ______ ____
ROOT
ATOM      1  O   UNL     1      34.269 -17.285 -23.034  0.00  0.00    -0.453 OA
ATOM      2  O   UNL     1      33.390 -13.982 -20.816  0.00  0.00    -0.286 OA
ATOM      3  C   UNL     1      33.659 -14.935 -22.962  0.00  0.00    +0.110 C 
ATOM      4  C   UNL     1      33.968 -16.102 -23.659  0.00  0.00    +0.154 C 
ATOM      5  C   UNL     1      34.276 -17.316 -21.648  0.00  0.00    +0.148 C 
ATOM      6  C   UNL     1      33.358 -13.759 -23.652  0.00  0.00    +0.177 C 
ATOM      7  C   UNL     1      33.655 -14.967 -21.491  0.00  0.00    +0.205 C 
ATOM      8  C   UNL     1      33.976 -16.099 -25.054  0.00  0.00    +0.078 C 
ATOM      9  C   UNL     1      33.368 -13.758 -25.047  0.00  0.00    +0.206 C 
ATOM     10  C   UNL     1      33.990 -16.263 -20.867  0.00  0.00    +0.080 C 
ATOM     11  C   UNL     1      33.677 -14.925 -25.747  0.00  0.00    +0.174 C 
ENDROOT
BRANCH   5  12
ATOM     12  C   UNL     1      34.606 -18.638 -21.079  0.00  0.00    +0.035 C 
ATOM     13  C   UNL     1      33.588 -19.518 -20.707  0.00  0.00    +0.006 C 
ATOM     14  C   UNL     1      35.941 -19.015 -20.909  0.00  0.00    +0.006 C 
ATOM     15  C   UNL     1      33.901 -20.766 -20.169  0.00  0.00    +0.037 C 
ATOM     16  C   UNL     1      36.255 -20.263 -20.371  0.00  0.00    +0.037 C 
ATOM     17  C   UNL     1      35.235 -21.138 -20.000  0.00  0.00    +0.134 C 
BRANCH  17  18
ATOM     18  O   UNL     1      35.541 -22.356 -19.475  0.00  0.00    -0.506 OA
ATOM     19  H   UNL     1      36.063 -22.960 -19.965  0.00  0.00    +0.292 HD
ENDBRANCH  17  18
ENDBRANCH   5  12
BRANCH   9  20
ATOM     20  O   UNL     1      33.077 -12.616 -25.733  0.00  0.00    -0.465 OA
ATOM     21  C   UNL     1      34.137 -11.679 -25.911  0.00  0.00    +0.253 C 
ENDBRANCH   9  20
BRANCH   6  22
ATOM     22  O   UNL     1      33.053 -12.599 -23.003  0.00  0.00    -0.503 OA
ATOM     23  H   UNL     1      33.719 -12.133 -22.539  0.00  0.00    +0.292 HD
ENDBRANCH   6  22
BRANCH  11  24
ATOM     24  O   UNL     1      33.689 -14.933 -27.110  0.00  0.00    -0.503 OA
ATOM     25  H   UNL     1      32.965 -14.579 -27.587  0.00  0.00    +0.292 HD
ENDBRANCH  11  24
TORSDOF 5
ENDMDL
MODEL 9
REMARK VINA RESULT:      -9.4      9.420     12.358
REMARK  Name = 5281628
REMARK  5 active torsions:
REMARK  status: ('A' for Active; 'I' for Inactive)
REMARK    1  A    between atoms: C_5  and  C_12
REMARK    2  A    between atoms: C_6  and  O_22
REMARK    3  A    between atoms: C_9  and  O_20
REMARK    4  A    between atoms: C_11  and  O_24
REMARK    5  A    between atoms: C_17  and  O_18
REMARK                            x       y       z     vdW  Elec       q    Type
REMARK                         _______ _______ _______ _____ _____    ______ ____
ROOT
ATOM      1  O   UNL     1      34.445 -23.434 -15.232  0.00  0.00    -0.453 OA
ATOM      2  O   UNL     1      34.818 -24.936 -11.463  0.00  0.00    -0.286 OA
ATOM      3  C   UNL     1      35.884 -24.279 -13.467  0.00  0.00    +0.110 C 
ATOM      4  C   UNL     1      35.685 -23.760 -14.746  0.00  0.00    +0.154 C 
ATOM      5  C   UNL     1      33.342 -23.639 -14.417  0.00  0.00    +0.148 C 
ATOM      6  C   UNL     1      37.171 -24.592 -13.025  0.00  0.00    +0.177 C 
ATOM      7  C   UNL     1      34.717 -24.488 -12.597  0.00  0.00    +0.205 C 
ATOM      8  C   UNL     1      36.775 -23.550 -15.590  0.00  0.00    +0.078 C 
ATOM      9  C   UNL     1      38.260 -24.382 -13.872  0.00  0.00    +0.206 C 
ATOM     10  C   UNL     1      33.404 -24.125 -13.168  0.00  0.00    +0.080 C 
ATOM     11  C   UNL     1      38.063 -23.863 -15.152  0.00  0.00    +0.174 C 
ENDROOT
BRANCH   5  12
ATOM     12  C   UNL     1      32.059 -23.249 -15.036  0.00  0.00    +0.035 C 
ATOM     13  C   UNL     1      31.971 -23.067 -16.418  0.00  0.00    +0.006 C 
ATOM     14  C   UNL     1      30.926 -23.058 -14.240  0.00  0.00    +0.006 C 
ATOM     15  C   UNL     1      30.759 -22.698 -17.001  0.00  0.00    +0.037 C 
ATOM     16  C   UNL     1      29.714 -22.688 -14.824  0.00  0.00    +0.037 C 
ATOM     17  C   UNL     1      29.631 -22.508 -16.204  0.00  0.00    +0.134 C 
BRANCH  17  18
ATOM     18  O   UNL     1      28.448 -22.147 -16.773  0.00  0.00    -0.506 OA
ATOM     19  H   UNL     1      27.724 -21.897 -16.232  0.00  0.00    +0.292 HD
ENDBRANCH  17  18
ENDBRANCH   5  12
BRANCH   9  20
ATOM     20  O   UNL     1      39.522 -24.684 -13.452  0.00  0.00    -0.465 OA
ATOM     21  C   UNL     1      40.106 -25.879 -13.964  0.00  0.00    +0.253 C 
ENDBRANCH   9  20
BRANCH   6  22
ATOM     22  O   UNL     1      37.403 -25.101 -11.781  0.00  0.00    -0.503 OA
ATOM     23  H   UNL     1      36.685 -25.363 -11.241  0.00  0.00    +0.292 HD
ENDBRANCH   6  22
BRANCH  11  24
ATOM     24  O   UNL     1      39.121 -23.655 -15.986  0.00  0.00    -0.503 OA
ATOM     25  H   UNL     1      39.988 -23.868 -15.704  0.00  0.00    +0.292 HD
ENDBRANCH  11  24
TORSDOF 5
ENDMDL
