MODEL 1
REMARK VINA RESULT:      -9.6      0.000      0.000
REMARK  Name = 65057
REMARK  2 active torsions:
REMARK  status: ('A' for Active; 'I' for Inactive)
REMARK    1  A    between atoms: C_2  and  C_5
REMARK    2  A    between atoms: C_3  and  C_11
REMARK                            x       y       z     vdW  Elec       q    Type
REMARK                         _______ _______ _______ _____ _____    ______ ____
ROOT
ATOM      1  O   UNL     1      34.980 -19.686 -24.148  0.00  0.00    -0.287 OA
ATOM      2  C   UNL     1      34.634 -18.195 -22.203  0.00  0.00    +0.042 C 
ATOM      3  C   UNL     1      34.679 -19.365 -21.683  0.00  0.00    +0.042 C 
ATOM      4  C   UNL     1      34.823 -19.236 -23.082  0.00  0.00    +0.196 C 
ENDROOT
BRANCH   2   5
ATOM      5  C   UNL     1      34.505 -16.746 -22.177  0.00  0.00    +0.003 C 
ATOM      6  C   UNL     1      34.437 -16.031 -23.373  0.00  0.00    +0.000 C 
ATOM      7  C   UNL     1      34.448 -16.073 -20.957  0.00  0.00    +0.000 C 
ATOM      8  C   UNL     1      34.313 -14.642 -23.349  0.00  0.00    +0.000 C 
ATOM      9  C   UNL     1      34.324 -14.683 -20.933  0.00  0.00    +0.000 C 
ATOM     10  C   UNL     1      34.256 -13.969 -22.128  0.00  0.00    +0.000 C 
ENDBRANCH   2   5
BRANCH   3  11
ATOM     11  C   UNL     1      34.648 -20.323 -20.651  0.00  0.00    +0.003 C 
ATOM     12  C   UNL     1      35.840 -20.830 -20.071  0.00  0.00    +0.000 C 
ATOM     13  C   UNL     1      33.425 -20.827 -20.139  0.00  0.00    +0.000 C 
ATOM     14  C   UNL     1      35.811 -21.778 -19.048  0.00  0.00    +0.000 C 
ATOM     15  C   UNL     1      33.395 -21.775 -19.116  0.00  0.00    +0.000 C 
ATOM     16  C   UNL     1      34.587 -22.250 -18.571  0.00  0.00    +0.000 C 
ENDBRANCH   3  11
TORSDOF 2
ENDMDL
MODEL 2
REMARK VINA RESULT:      -9.5      0.013      1.208
REMARK  Name = 65057
REMARK  2 active torsions:
REMARK  status: ('A' for Active; 'I' for Inactive)
REMARK    1  A    between atoms: C_2  and  C_5
REMARK    2  A    between atoms: C_3  and  C_11
REMARK                            x       y       z     vdW  Elec       q    Type
REMARK                         _______ _______ _______ _____ _____    ______ ____
ROOT
ATOM      1  O   UNL     1      34.977 -19.684 -24.160  0.00  0.00    -0.287 OA
ATOM      2  C   UNL     1      34.631 -18.194 -22.216  0.00  0.00    +0.042 C 
ATOM      3  C   UNL     1      34.676 -19.363 -21.695  0.00  0.00    +0.042 C 
ATOM      4  C   UNL     1      34.819 -19.234 -23.094  0.00  0.00    +0.196 C 
ENDROOT
BRANCH   2   5
ATOM      5  C   UNL     1      34.502 -16.744 -22.189  0.00  0.00    +0.003 C 
ATOM      6  C   UNL     1      34.447 -16.072 -20.968  0.00  0.00    +0.000 C 
ATOM      7  C   UNL     1      34.433 -16.028 -23.384  0.00  0.00    +0.000 C 
ATOM      8  C   UNL     1      34.323 -14.682 -20.942  0.00  0.00    +0.000 C 
ATOM      9  C   UNL     1      34.309 -14.639 -23.358  0.00  0.00    +0.000 C 
ATOM     10  C   UNL     1      34.254 -13.967 -22.138  0.00  0.00    +0.000 C 
ENDBRANCH   2   5
BRANCH   3  11
ATOM     11  C   UNL     1      34.645 -20.320 -20.663  0.00  0.00    +0.003 C 
ATOM     12  C   UNL     1      35.837 -20.834 -20.088  0.00  0.00    +0.000 C 
ATOM     13  C   UNL     1      33.422 -20.818 -20.145  0.00  0.00    +0.000 C 
ATOM     14  C   UNL     1      35.807 -21.782 -19.066  0.00  0.00    +0.000 C 
ATOM     15  C   UNL     1      33.391 -21.767 -19.122  0.00  0.00    +0.000 C 
ATOM     16  C   UNL     1      34.584 -22.248 -18.583  0.00  0.00    +0.000 C 
ENDBRANCH   3  11
TORSDOF 2
ENDMDL
MODEL 3
REMARK VINA RESULT:      -9.3      0.714      6.000
REMARK  Name = 65057
REMARK  2 active torsions:
REMARK  status: ('A' for Active; 'I' for Inactive)
REMARK    1  A    between atoms: C_2  and  C_5
REMARK    2  A    between atoms: C_3  and  C_11
REMARK                            x       y       z     vdW  Elec       q    Type
REMARK                         _______ _______ _______ _____ _____    ______ ____
ROOT
ATOM      1  O   UNL     1      35.279 -19.085 -23.991  0.00  0.00    -0.287 OA
ATOM      2  C   UNL     1      34.588 -19.038 -21.615  0.00  0.00    +0.042 C 
ATOM      3  C   UNL     1      34.402 -17.833 -22.008  0.00  0.00    +0.042 C 
ATOM      4  C   UNL     1      34.900 -18.780 -22.929  0.00  0.00    +0.196 C 
ENDROOT
BRANCH   2   5
ATOM      5  C   UNL     1      34.581 -20.123 -20.646  0.00  0.00    +0.003 C 
ATOM      6  C   UNL     1      33.369 -20.624 -20.170  0.00  0.00    +0.000 C 
ATOM      7  C   UNL     1      35.785 -20.663 -20.193  0.00  0.00    +0.000 C 
ATOM      8  C   UNL     1      33.360 -21.665 -19.241  0.00  0.00    +0.000 C 
ATOM      9  C   UNL     1      35.776 -21.704 -19.264  0.00  0.00    +0.000 C 
ATOM     10  C   UNL     1      34.565 -22.204 -18.788  0.00  0.00    +0.000 C 
ENDBRANCH   2   5
BRANCH   3  11
ATOM     11  C   UNL     1      34.033 -16.478 -21.893  0.00  0.00    +0.003 C 
ATOM     12  C   UNL     1      33.117 -16.038 -20.902  0.00  0.00    +0.000 C 
ATOM     13  C   UNL     1      34.558 -15.488 -22.762  0.00  0.00    +0.000 C 
ATOM     14  C   UNL     1      32.752 -14.697 -20.788  0.00  0.00    +0.000 C 
ATOM     15  C   UNL     1      34.192 -14.146 -22.648  0.00  0.00    +0.000 C 
ATOM     16  C   UNL     1      33.290 -13.751 -21.661  0.00  0.00    +0.000 C 
ENDBRANCH   3  11
TORSDOF 2
ENDMDL
MODEL 4
REMARK VINA RESULT:      -9.3      0.715      5.930
REMARK  Name = 65057
REMARK  2 active torsions:
REMARK  status: ('A' for Active; 'I' for Inactive)
REMARK    1  A    between atoms: C_2  and  C_5
REMARK    2  A    between atoms: C_3  and  C_11
REMARK                            x       y       z     vdW  Elec       q    Type
REMARK                         _______ _______ _______ _____ _____    ______ ____
ROOT
ATOM      1  O   UNL     1      35.284 -19.083 -23.996  0.00  0.00    -0.287 OA
ATOM      2  C   UNL     1      34.590 -19.034 -21.621  0.00  0.00    +0.042 C 
ATOM      3  C   UNL     1      34.403 -17.830 -22.015  0.00  0.00    +0.042 C 
ATOM      4  C   UNL     1      34.903 -18.777 -22.935  0.00  0.00    +0.196 C 
ENDROOT
BRANCH   2   5
ATOM      5  C   UNL     1      34.582 -20.119 -20.651  0.00  0.00    +0.003 C 
ATOM      6  C   UNL     1      35.787 -20.653 -20.193  0.00  0.00    +0.000 C 
ATOM      7  C   UNL     1      33.371 -20.625 -20.180  0.00  0.00    +0.000 C 
ATOM      8  C   UNL     1      35.780 -21.694 -19.264  0.00  0.00    +0.000 C 
ATOM      9  C   UNL     1      33.364 -21.665 -19.250  0.00  0.00    +0.000 C 
ATOM     10  C   UNL     1      34.568 -22.199 -18.792  0.00  0.00    +0.000 C 
ENDBRANCH   2   5
BRANCH   3  11
ATOM     11  C   UNL     1      34.033 -16.476 -21.902  0.00  0.00    +0.003 C 
ATOM     12  C   UNL     1      34.564 -15.484 -22.768  0.00  0.00    +0.000 C 
ATOM     13  C   UNL     1      33.112 -16.035 -20.917  0.00  0.00    +0.000 C 
ATOM     14  C   UNL     1      34.198 -14.143 -22.656  0.00  0.00    +0.000 C 
ATOM     15  C   UNL     1      32.746 -14.694 -20.805  0.00  0.00    +0.000 C 
ATOM     16  C   UNL     1      33.289 -13.748 -21.674  0.00  0.00    +0.000 C 
ENDBRANCH   3  11
TORSDOF 2
ENDMDL
MODEL 5
REMARK VINA RESULT:      -9.2      3.006      5.298
REMARK  Name = 65057
REMARK  2 active torsions:
REMARK  status: ('A' for Active; 'I' for Inactive)
REMARK    1  A    between atoms: C_2  and  C_5
REMARK    2  A    between atoms: C_3  and  C_11
REMARK                            x       y       z     vdW  Elec       q    Type
REMARK                         _______ _______ _______ _____ _____    ______ ____
ROOT
ATOM      1  O   UNL     1      34.012 -24.543 -20.022  0.00  0.00    -0.287 OA
ATOM      2  C   UNL     1      34.002 -22.198 -19.232  0.00  0.00    +0.042 C 
ATOM      3  C   UNL     1      33.509 -22.851 -18.247  0.00  0.00    +0.042 C 
ATOM      4  C   UNL     1      33.892 -23.557 -19.407  0.00  0.00    +0.196 C 
ENDROOT
BRANCH   2   5
ATOM      5  C   UNL     1      34.448 -21.000 -19.927  0.00  0.00    +0.003 C 
ATOM      6  C   UNL     1      35.811 -20.724 -20.036  0.00  0.00    +0.000 C 
ATOM      7  C   UNL     1      33.513 -20.127 -20.485  0.00  0.00    +0.000 C 
ATOM      8  C   UNL     1      36.240 -19.575 -20.702  0.00  0.00    +0.000 C 
ATOM      9  C   UNL     1      33.941 -18.979 -21.151  0.00  0.00    +0.000 C 
ATOM     10  C   UNL     1      35.304 -18.703 -21.259  0.00  0.00    +0.000 C 
ENDBRANCH   2   5
BRANCH   3  11
ATOM     11  C   UNL     1      32.957 -23.033 -16.964  0.00  0.00    +0.003 C 
ATOM     12  C   UNL     1      31.566 -22.886 -16.724  0.00  0.00    +0.000 C 
ATOM     13  C   UNL     1      33.764 -23.372 -15.848  0.00  0.00    +0.000 C 
ATOM     14  C   UNL     1      31.019 -23.066 -15.454  0.00  0.00    +0.000 C 
ATOM     15  C   UNL     1      33.217 -23.553 -14.577  0.00  0.00    +0.000 C 
ATOM     16  C   UNL     1      31.845 -23.400 -14.380  0.00  0.00    +0.000 C 
ENDBRANCH   3  11
TORSDOF 2
ENDMDL
MODEL 6
REMARK VINA RESULT:      -9.1      2.943      7.271
REMARK  Name = 65057
REMARK  2 active torsions:
REMARK  status: ('A' for Active; 'I' for Inactive)
REMARK    1  A    between atoms: C_2  and  C_5
REMARK    2  A    between atoms: C_3  and  C_11
REMARK                            x       y       z     vdW  Elec       q    Type
REMARK                         _______ _______ _______ _____ _____    ______ ____
ROOT
ATOM      1  O   UNL     1      34.050 -24.469 -20.170  0.00  0.00    -0.287 OA
ATOM      2  C   UNL     1      33.682 -22.815 -18.366  0.00  0.00    +0.042 C 
ATOM      3  C   UNL     1      34.161 -22.114 -19.325  0.00  0.00    +0.042 C 
ATOM      4  C   UNL     1      33.984 -23.501 -19.519  0.00  0.00    +0.196 C 
ENDROOT
BRANCH   2   5
ATOM      5  C   UNL     1      33.152 -23.029 -17.028  0.00  0.00    +0.003 C 
ATOM      6  C   UNL     1      31.776 -22.966 -16.806  0.00  0.00    +0.000 C 
ATOM      7  C   UNL     1      34.018 -23.296 -15.968  0.00  0.00    +0.000 C 
ATOM      8  C   UNL     1      31.266 -23.170 -15.524  0.00  0.00    +0.000 C 
ATOM      9  C   UNL     1      33.508 -23.500 -14.685  0.00  0.00    +0.000 C 
ATOM     10  C   UNL     1      32.133 -23.437 -14.464  0.00  0.00    +0.000 C 
ENDBRANCH   2   5
BRANCH   3  11
ATOM     11  C   UNL     1      34.610 -20.948 -19.975  0.00  0.00    +0.003 C 
ATOM     12  C   UNL     1      33.704 -20.039 -20.581  0.00  0.00    +0.000 C 
ATOM     13  C   UNL     1      35.988 -20.624 -20.056  0.00  0.00    +0.000 C 
ATOM     14  C   UNL     1      34.147 -18.884 -21.225  0.00  0.00    +0.000 C 
ATOM     15  C   UNL     1      36.432 -19.468 -20.699  0.00  0.00    +0.000 C 
ATOM     16  C   UNL     1      35.512 -18.599 -21.284  0.00  0.00    +0.000 C 
ENDBRANCH   3  11
TORSDOF 2
ENDMDL
MODEL 7
REMARK VINA RESULT:      -9.0      1.328      2.370
REMARK  Name = 65057
REMARK  2 active torsions:
REMARK  status: ('A' for Active; 'I' for Inactive)
REMARK    1  A    between atoms: C_2  and  C_5
REMARK    2  A    between atoms: C_3  and  C_11
REMARK                            x       y       z     vdW  Elec       q    Type
REMARK                         _______ _______ _______ _____ _____    ______ ____
ROOT
ATOM      1  O   UNL     1      35.029 -17.773 -24.580  0.00  0.00    -0.287 OA
ATOM      2  C   UNL     1      34.149 -16.857 -22.457  0.00  0.00    +0.042 C 
ATOM      3  C   UNL     1      34.576 -18.019 -22.130  0.00  0.00    +0.042 C 
ATOM      4  C   UNL     1      34.702 -17.600 -23.472  0.00  0.00    +0.196 C 
ENDROOT
BRANCH   2   5
ATOM      5  C   UNL     1      33.533 -15.562 -22.209  0.00  0.00    +0.003 C 
ATOM      6  C   UNL     1      33.181 -15.195 -20.909  0.00  0.00    +0.000 C 
ATOM      7  C   UNL     1      33.294 -14.688 -23.269  0.00  0.00    +0.000 C 
ATOM      8  C   UNL     1      32.591 -13.954 -20.670  0.00  0.00    +0.000 C 
ATOM      9  C   UNL     1      32.703 -13.446 -23.030  0.00  0.00    +0.000 C 
ATOM     10  C   UNL     1      32.352 -13.080 -21.731  0.00  0.00    +0.000 C 
ENDBRANCH   2   5
BRANCH   3  11
ATOM     11  C   UNL     1      34.848 -19.102 -21.272  0.00  0.00    +0.003 C 
ATOM     12  C   UNL     1      33.807 -19.898 -20.726  0.00  0.00    +0.000 C 
ATOM     13  C   UNL     1      36.174 -19.451 -20.910  0.00  0.00    +0.000 C 
ATOM     14  C   UNL     1      34.075 -20.970 -19.876  0.00  0.00    +0.000 C 
ATOM     15  C   UNL     1      36.443 -20.524 -20.059  0.00  0.00    +0.000 C 
ATOM     16  C   UNL     1      35.394 -21.283 -19.542  0.00  0.00    +0.000 C 
ENDBRANCH   3  11
TORSDOF 2
ENDMDL
MODEL 8
REMARK VINA RESULT:      -9.0      2.145      3.352
REMARK  Name = 65057
REMARK  2 active torsions:
REMARK  status: ('A' for Active; 'I' for Inactive)
REMARK    1  A    between atoms: C_2  and  C_5
REMARK    2  A    between atoms: C_3  and  C_11
REMARK                            x       y       z     vdW  Elec       q    Type
REMARK                         _______ _______ _______ _____ _____    ______ ____
ROOT
ATOM      1  O   UNL     1      34.948 -14.807 -20.275  0.00  0.00    -0.287 OA
ATOM      2  C   UNL     1      34.352 -16.000 -22.359  0.00  0.00    +0.042 C 
ATOM      3  C   UNL     1      34.638 -16.944 -21.542  0.00  0.00    +0.042 C 
ATOM      4  C   UNL     1      34.725 -15.608 -21.096  0.00  0.00    +0.196 C 
ENDROOT
BRANCH   2   5
ATOM      5  C   UNL     1      33.937 -15.447 -23.640  0.00  0.00    +0.003 C 
ATOM      6  C   UNL     1      33.941 -16.252 -24.780  0.00  0.00    +0.000 C 
ATOM      7  C   UNL     1      33.537 -14.114 -23.728  0.00  0.00    +0.000 C 
ATOM      8  C   UNL     1      33.544 -15.723 -26.008  0.00  0.00    +0.000 C 
ATOM      9  C   UNL     1      33.140 -13.585 -24.956  0.00  0.00    +0.000 C 
ATOM     10  C   UNL     1      33.144 -14.389 -26.096  0.00  0.00    +0.000 C 
ENDBRANCH   2   5
BRANCH   3  11
ATOM     11  C   UNL     1      34.819 -18.274 -21.116  0.00  0.00    +0.003 C 
ATOM     12  C   UNL     1      33.716 -19.130 -20.860  0.00  0.00    +0.000 C 
ATOM     13  C   UNL     1      36.112 -18.824 -20.920  0.00  0.00    +0.000 C 
ATOM     14  C   UNL     1      33.894 -20.447 -20.438  0.00  0.00    +0.000 C 
ATOM     15  C   UNL     1      36.291 -20.142 -20.498  0.00  0.00    +0.000 C 
ATOM     16  C   UNL     1      35.182 -20.953 -20.257  0.00  0.00    +0.000 C 
ENDBRANCH   3  11
TORSDOF 2
ENDMDL
MODEL 9
REMARK VINA RESULT:      -8.9      1.519      6.086
REMARK  Name = 65057
REMARK  2 active torsions:
REMARK  status: ('A' for Active; 'I' for Inactive)
REMARK    1  A    between atoms: C_2  and  C_5
REMARK    2  A    between atoms: C_3  and  C_11
REMARK                            x       y       z     vdW  Elec       q    Type
REMARK                         _______ _______ _______ _____ _____    ______ ____
ROOT
ATOM      1  O   UNL     1      35.252 -17.098 -24.514  0.00  0.00    -0.287 OA
ATOM      2  C   UNL     1      34.621 -17.564 -22.167  0.00  0.00    +0.042 C 
ATOM      3  C   UNL     1      34.133 -16.400 -22.386  0.00  0.00    +0.042 C 
ATOM      4  C   UNL     1      34.831 -17.051 -23.426  0.00  0.00    +0.196 C 
ENDROOT
BRANCH   2   5
ATOM      5  C   UNL     1      34.903 -18.744 -21.365  0.00  0.00    +0.003 C 
ATOM      6  C   UNL     1      33.857 -19.560 -20.933  0.00  0.00    +0.000 C 
ATOM      7  C   UNL     1      36.219 -19.060 -21.027  0.00  0.00    +0.000 C 
ATOM      8  C   UNL     1      34.127 -20.692 -20.163  0.00  0.00    +0.000 C 
ATOM      9  C   UNL     1      36.489 -20.192 -20.257  0.00  0.00    +0.000 C 
ATOM     10  C   UNL     1      35.444 -21.007 -19.826  0.00  0.00    +0.000 C 
ENDBRANCH   2   5
BRANCH   3  11
ATOM     11  C   UNL     1      33.441 -15.211 -22.084  0.00  0.00    +0.003 C 
ATOM     12  C   UNL     1      33.129 -14.851 -20.747  0.00  0.00    +0.000 C 
ATOM     13  C   UNL     1      33.022 -14.314 -23.100  0.00  0.00    +0.000 C 
ATOM     14  C   UNL     1      32.445 -13.674 -20.446  0.00  0.00    +0.000 C 
ATOM     15  C   UNL     1      32.337 -13.136 -22.800  0.00  0.00    +0.000 C 
ATOM     16  C   UNL     1      32.049 -12.816 -21.474  0.00  0.00    +0.000 C 
ENDBRANCH   3  11
TORSDOF 2
ENDMDL
