MODEL 1
REMARK VINA RESULT:      -7.9      0.000      0.000
REMARK  Name = 7188
REMARK  5 active torsions:
REMARK  status: ('A' for Active; 'I' for Inactive)
REMARK    1  A    between atoms: S_1  and  C_3
REMARK    2  A    between atoms: S_1  and  S_10
REMARK    3  A    between atoms: C_3  and  N_4
REMARK    4  A    between atoms: S_10  and  C_12
REMARK    5  A    between atoms: C_12  and  N_13
REMARK                            x       y       z     vdW  Elec       q    Type
REMARK                         _______ _______ _______ _____ _____    ______ ____
ROOT
ATOM      1  S   UNL     1      32.357 -13.401 -22.684  0.00  0.00    -0.027 S 
ENDROOT
BRANCH   1   3
ATOM      2  S   UNL     1      33.565 -10.983 -24.028  0.00  0.00    -0.027 S 
ATOM      3  C   UNL     1      32.635 -11.678 -22.832  0.00  0.00    +0.121 C 
BRANCH   3   4
ATOM      4  N   UNL     1      31.982 -10.949 -21.893  0.00  0.00    -0.297 N 
ATOM      5  C   UNL     1      31.511  -9.492 -19.458  0.00  0.00    +0.004 C 
ATOM      6  C   UNL     1      31.592 -11.019 -19.466  0.00  0.00    +0.022 C 
ATOM      7  C   UNL     1      32.344  -8.894 -20.593  0.00  0.00    +0.022 C 
ATOM      8  C   UNL     1      31.212 -11.586 -20.831  0.00  0.00    +0.092 C 
ATOM      9  C   UNL     1      31.954  -9.492 -21.941  0.00  0.00    +0.092 C 
ENDBRANCH   3   4
ENDBRANCH   1   3
BRANCH   1  10
ATOM     10  S   UNL     1      34.015 -14.167 -23.639  0.00  0.00    -0.027 S 
BRANCH  10  12
ATOM     11  S   UNL     1      34.405 -15.308 -20.872  0.00  0.00    -0.027 S 
ATOM     12  C   UNL     1      34.501 -15.433 -22.532  0.00  0.00    +0.121 C 
BRANCH  12  13
ATOM     13  N   UNL     1      34.934 -16.554 -23.160  0.00  0.00    -0.297 N 
ATOM     14  C   UNL     1      34.876 -19.179 -24.334  0.00  0.00    +0.004 C 
ATOM     15  C   UNL     1      34.248 -17.978 -25.043  0.00  0.00    +0.022 C 
ATOM     16  C   UNL     1      34.861 -18.988 -22.817  0.00  0.00    +0.022 C 
ATOM     17  C   UNL     1      34.910 -16.672 -24.613  0.00  0.00    +0.092 C 
ATOM     18  C   UNL     1      35.515 -17.668 -22.419  0.00  0.00    +0.092 C 
ENDBRANCH  12  13
ENDBRANCH  10  12
ENDBRANCH   1  10
TORSDOF 5
ENDMDL
MODEL 2
REMARK VINA RESULT:      -7.8      0.076      7.761
REMARK  Name = 7188
REMARK  5 active torsions:
REMARK  status: ('A' for Active; 'I' for Inactive)
REMARK    1  A    between atoms: S_1  and  C_3
REMARK    2  A    between atoms: S_1  and  S_10
REMARK    3  A    between atoms: C_3  and  N_4
REMARK    4  A    between atoms: S_10  and  C_12
REMARK    5  A    between atoms: C_12  and  N_13
REMARK                            x       y       z     vdW  Elec       q    Type
REMARK                         _______ _______ _______ _____ _____    ______ ____
ROOT
ATOM      1  S   UNL     1      33.901 -14.234 -23.632  0.00  0.00    -0.027 S 
ENDROOT
BRANCH   1   3
ATOM      2  S   UNL     1      34.445 -15.294 -20.858  0.00  0.00    -0.027 S 
ATOM      3  C   UNL     1      34.482 -15.453 -22.517  0.00  0.00    +0.121 C 
BRANCH   3   4
ATOM      4  N   UNL     1      34.937 -16.570 -23.137  0.00  0.00    -0.297 N 
ATOM      5  C   UNL     1      34.924 -19.195 -24.312  0.00  0.00    +0.004 C 
ATOM      6  C   UNL     1      34.882 -19.004 -22.795  0.00  0.00    +0.022 C 
ATOM      7  C   UNL     1      34.297 -18.000 -25.031  0.00  0.00    +0.022 C 
ATOM      8  C   UNL     1      35.517 -17.678 -22.387  0.00  0.00    +0.092 C 
ATOM      9  C   UNL     1      34.939 -16.689 -24.591  0.00  0.00    +0.092 C 
ENDBRANCH   3   4
ENDBRANCH   1   3
BRANCH   1  10
ATOM     10  S   UNL     1      32.344 -13.410 -22.561  0.00  0.00    -0.027 S 
BRANCH  10  12
ATOM     11  S   UNL     1      33.564 -11.065 -24.020  0.00  0.00    -0.027 S 
ATOM     12  C   UNL     1      32.631 -11.698 -22.791  0.00  0.00    +0.121 C 
BRANCH  12  13
ATOM     13  N   UNL     1      31.985 -10.922 -21.887  0.00  0.00    -0.297 N 
ATOM     14  C   UNL     1      31.517  -9.381 -19.504  0.00  0.00    +0.004 C 
ATOM     15  C   UNL     1      32.390  -8.842 -20.639  0.00  0.00    +0.022 C 
ATOM     16  C   UNL     1      31.550 -10.909 -19.467  0.00  0.00    +0.022 C 
ATOM     17  C   UNL     1      32.005  -9.466 -21.977  0.00  0.00    +0.092 C 
ATOM     18  C   UNL     1      31.176 -11.504 -20.822  0.00  0.00    +0.092 C 
ENDBRANCH  12  13
ENDBRANCH  10  12
ENDBRANCH   1  10
TORSDOF 5
ENDMDL
MODEL 3
REMARK VINA RESULT:      -7.8      2.032      2.958
REMARK  Name = 7188
REMARK  5 active torsions:
REMARK  status: ('A' for Active; 'I' for Inactive)
REMARK    1  A    between atoms: S_1  and  C_3
REMARK    2  A    between atoms: S_1  and  S_10
REMARK    3  A    between atoms: C_3  and  N_4
REMARK    4  A    between atoms: S_10  and  C_12
REMARK    5  A    between atoms: C_12  and  N_13
REMARK                            x       y       z     vdW  Elec       q    Type
REMARK                         _______ _______ _______ _____ _____    ______ ____
ROOT
ATOM      1  S   UNL     1      33.786 -12.141 -23.998  0.00  0.00    -0.027 S 
ENDROOT
BRANCH   1   3
ATOM      2  S   UNL     1      31.649 -11.441 -21.982  0.00  0.00    -0.027 S 
ATOM      3  C   UNL     1      32.734 -11.010 -23.172  0.00  0.00    +0.121 C 
BRANCH   3   4
ATOM      4  N   UNL     1      32.916  -9.725 -23.569  0.00  0.00    -0.297 N 
ATOM      5  C   UNL     1      33.527  -6.919 -23.420  0.00  0.00    +0.004 C 
ATOM      6  C   UNL     1      32.214  -7.476 -22.867  0.00  0.00    +0.022 C 
ATOM      7  C   UNL     1      34.632  -7.976 -23.376  0.00  0.00    +0.022 C 
ATOM      8  C   UNL     1      31.817  -8.766 -23.578  0.00  0.00    +0.092 C 
ATOM      9  C   UNL     1      34.200  -9.259 -24.079  0.00  0.00    +0.092 C 
ENDBRANCH   3   4
ENDBRANCH   1   3
BRANCH   1  10
ATOM     10  S   UNL     1      33.057 -13.946 -23.319  0.00  0.00    -0.027 S 
BRANCH  10  12
ATOM     11  S   UNL     1      32.970 -14.816 -26.208  0.00  0.00    -0.027 S 
ATOM     12  C   UNL     1      33.491 -15.014 -24.637  0.00  0.00    +0.121 C 
BRANCH  12  13
ATOM     13  N   UNL     1      34.331 -16.010 -24.262  0.00  0.00    -0.297 N 
ATOM     14  C   UNL     1      35.217 -18.540 -23.219  0.00  0.00    +0.004 C 
ATOM     15  C   UNL     1      34.558 -18.436 -24.596  0.00  0.00    +0.022 C 
ATOM     16  C   UNL     1      34.725 -17.428 -22.292  0.00  0.00    +0.022 C 
ATOM     17  C   UNL     1      34.751 -17.047 -25.198  0.00  0.00    +0.092 C 
ATOM     18  C   UNL     1      34.917 -16.053 -22.927  0.00  0.00    +0.092 C 
ENDBRANCH  12  13
ENDBRANCH  10  12
ENDBRANCH   1  10
TORSDOF 5
ENDMDL
MODEL 4
REMARK VINA RESULT:      -7.7      1.987      7.855
REMARK  Name = 7188
REMARK  5 active torsions:
REMARK  status: ('A' for Active; 'I' for Inactive)
REMARK    1  A    between atoms: S_1  and  C_3
REMARK    2  A    between atoms: S_1  and  S_10
REMARK    3  A    between atoms: C_3  and  N_4
REMARK    4  A    between atoms: S_10  and  C_12
REMARK    5  A    between atoms: C_12  and  N_13
REMARK                            x       y       z     vdW  Elec       q    Type
REMARK                         _______ _______ _______ _____ _____    ______ ____
ROOT
ATOM      1  S   UNL     1      33.014 -14.006 -23.346  0.00  0.00    -0.027 S 
ENDROOT
BRANCH   1   3
ATOM      2  S   UNL     1      32.957 -14.869 -26.239  0.00  0.00    -0.027 S 
ATOM      3  C   UNL     1      33.474 -15.061 -24.666  0.00  0.00    +0.121 C 
BRANCH   3   4
ATOM      4  N   UNL     1      34.334 -16.041 -24.291  0.00  0.00    -0.297 N 
ATOM      5  C   UNL     1      35.273 -18.529 -23.196  0.00  0.00    +0.004 C 
ATOM      6  C   UNL     1      34.817 -17.384 -22.289  0.00  0.00    +0.022 C 
ATOM      7  C   UNL     1      34.557 -18.476 -24.546  0.00  0.00    +0.022 C 
ATOM      8  C   UNL     1      34.976 -16.034 -22.982  0.00  0.00    +0.092 C 
ATOM      9  C   UNL     1      34.718 -17.110 -25.206  0.00  0.00    +0.092 C 
ENDBRANCH   3   4
ENDBRANCH   1   3
BRANCH   1  10
ATOM     10  S   UNL     1      33.717 -12.187 -24.014  0.00  0.00    -0.027 S 
BRANCH  10  12
ATOM     11  S   UNL     1      31.660 -11.528 -21.905  0.00  0.00    -0.027 S 
ATOM     12  C   UNL     1      32.695 -11.073 -23.130  0.00  0.00    +0.121 C 
BRANCH  12  13
ATOM     13  N   UNL     1      32.854  -9.783 -23.516  0.00  0.00    -0.297 N 
ATOM     14  C   UNL     1      33.466  -6.977 -23.353  0.00  0.00    +0.004 C 
ATOM     15  C   UNL     1      34.574  -8.032 -23.382  0.00  0.00    +0.022 C 
ATOM     16  C   UNL     1      32.186  -7.547 -22.742  0.00  0.00    +0.022 C 
ATOM     17  C   UNL     1      34.109  -9.305 -24.083  0.00  0.00    +0.092 C 
ATOM     18  C   UNL     1      31.754  -8.827 -23.453  0.00  0.00    +0.092 C 
ENDBRANCH  12  13
ENDBRANCH  10  12
ENDBRANCH   1  10
TORSDOF 5
ENDMDL
MODEL 5
REMARK VINA RESULT:      -7.4      3.348      7.578
REMARK  Name = 7188
REMARK  5 active torsions:
REMARK  status: ('A' for Active; 'I' for Inactive)
REMARK    1  A    between atoms: S_1  and  C_3
REMARK    2  A    between atoms: S_1  and  S_10
REMARK    3  A    between atoms: C_3  and  N_4
REMARK    4  A    between atoms: S_10  and  C_12
REMARK    5  A    between atoms: C_12  and  N_13
REMARK                            x       y       z     vdW  Elec       q    Type
REMARK                         _______ _______ _______ _____ _____    ______ ____
ROOT
ATOM      1  S   UNL     1      35.172 -16.872 -22.246  0.00  0.00    -0.027 S 
ENDROOT
BRANCH   1   3
ATOM      2  S   UNL     1      34.797 -19.328 -23.962  0.00  0.00    -0.027 S 
ATOM      3  C   UNL     1      34.863 -18.582 -22.473  0.00  0.00    +0.121 C 
BRANCH   3   4
ATOM      4  N   UNL     1      34.721 -19.258 -21.305  0.00  0.00    -0.297 N 
ATOM      5  C   UNL     1      34.344 -21.460 -19.495  0.00  0.00    +0.004 C 
ATOM      6  C   UNL     1      33.182 -20.902 -20.319  0.00  0.00    +0.022 C 
ATOM      7  C   UNL     1      35.678 -21.240 -20.210  0.00  0.00    +0.022 C 
ATOM      8  C   UNL     1      33.415 -19.438 -20.682  0.00  0.00    +0.092 C 
ATOM      9  C   UNL     1      35.874 -19.772 -20.576  0.00  0.00    +0.092 C 
ENDBRANCH   3   4
ENDBRANCH   1   3
BRANCH   1  10
ATOM     10  S   UNL     1      34.505 -16.096 -24.035  0.00  0.00    -0.027 S 
BRANCH  10  12
ATOM     11  S   UNL     1      32.822 -14.723 -21.939  0.00  0.00    -0.027 S 
ATOM     12  C   UNL     1      33.437 -14.822 -23.486  0.00  0.00    +0.121 C 
BRANCH  12  13
ATOM     13  N   UNL     1      33.183 -13.891 -24.438  0.00  0.00    -0.297 N 
ATOM     14  C   UNL     1      33.630 -12.101 -26.644  0.00  0.00    +0.004 C 
ATOM     15  C   UNL     1      33.513 -13.611 -26.858  0.00  0.00    +0.022 C 
ATOM     16  C   UNL     1      34.163 -11.786 -25.247  0.00  0.00    +0.022 C 
ATOM     17  C   UNL     1      32.683 -14.264 -25.756  0.00  0.00    +0.092 C 
ATOM     18  C   UNL     1      33.324 -12.465 -24.168  0.00  0.00    +0.092 C 
ENDBRANCH  12  13
ENDBRANCH  10  12
ENDBRANCH   1  10
TORSDOF 5
ENDMDL
MODEL 6
REMARK VINA RESULT:      -7.4      4.300      8.633
REMARK  Name = 7188
REMARK  5 active torsions:
REMARK  status: ('A' for Active; 'I' for Inactive)
REMARK    1  A    between atoms: S_1  and  C_3
REMARK    2  A    between atoms: S_1  and  S_10
REMARK    3  A    between atoms: C_3  and  N_4
REMARK    4  A    between atoms: S_10  and  C_12
REMARK    5  A    between atoms: C_12  and  N_13
REMARK                            x       y       z     vdW  Elec       q    Type
REMARK                         _______ _______ _______ _____ _____    ______ ____
ROOT
ATOM      1  S   UNL     1      35.944 -19.494 -20.988  0.00  0.00    -0.027 S 
ENDROOT
BRANCH   1   3
ATOM      2  S   UNL     1      33.017 -20.138 -20.619  0.00  0.00    -0.027 S 
ATOM      3  C   UNL     1      34.627 -20.410 -20.283  0.00  0.00    +0.121 C 
BRANCH   3   4
ATOM      4  N   UNL     1      35.048 -21.400 -19.456  0.00  0.00    -0.297 N 
ATOM      5  C   UNL     1      35.605 -22.821 -17.020  0.00  0.00    +0.004 C 
ATOM      6  C   UNL     1      36.470 -21.641 -17.466  0.00  0.00    +0.022 C 
ATOM      7  C   UNL     1      34.177 -22.685 -17.550  0.00  0.00    +0.022 C 
ATOM      8  C   UNL     1      36.424 -21.465 -18.981  0.00  0.00    +0.092 C 
ATOM      9  C   UNL     1      34.164 -22.491 -19.063  0.00  0.00    +0.092 C 
ENDBRANCH   3   4
ENDBRANCH   1   3
BRANCH   1  10
ATOM     10  S   UNL     1      35.015 -17.704 -21.413  0.00  0.00    -0.027 S 
BRANCH  10  12
ATOM     11  S   UNL     1      34.854 -19.235 -24.010  0.00  0.00    -0.027 S 
ATOM     12  C   UNL     1      34.846 -17.805 -23.153  0.00  0.00    +0.121 C 
BRANCH  12  13
ATOM     13  N   UNL     1      34.667 -16.597 -23.743  0.00  0.00    -0.297 N 
ATOM     14  C   UNL     1      33.317 -14.331 -24.891  0.00  0.00    +0.004 C 
ATOM     15  C   UNL     1      33.337 -14.562 -23.378  0.00  0.00    +0.022 C 
ATOM     16  C   UNL     1      33.429 -15.656 -25.647  0.00  0.00    +0.022 C 
ATOM     17  C   UNL     1      34.559 -15.373 -22.957  0.00  0.00    +0.092 C 
ATOM     18  C   UNL     1      34.650 -16.451 -25.194  0.00  0.00    +0.092 C 
ENDBRANCH  12  13
ENDBRANCH  10  12
ENDBRANCH   1  10
TORSDOF 5
ENDMDL
MODEL 7
REMARK VINA RESULT:      -7.3      4.298      6.869
REMARK  Name = 7188
REMARK  5 active torsions:
REMARK  status: ('A' for Active; 'I' for Inactive)
REMARK    1  A    between atoms: S_1  and  C_3
REMARK    2  A    between atoms: S_1  and  S_10
REMARK    3  A    between atoms: C_3  and  N_4
REMARK    4  A    between atoms: S_10  and  C_12
REMARK    5  A    between atoms: C_12  and  N_13
REMARK                            x       y       z     vdW  Elec       q    Type
REMARK                         _______ _______ _______ _____ _____    ______ ____
ROOT
ATOM      1  S   UNL     1      35.108 -17.726 -21.308  0.00  0.00    -0.027 S 
ENDROOT
BRANCH   1   3
ATOM      2  S   UNL     1      34.847 -19.226 -23.914  0.00  0.00    -0.027 S 
ATOM      3  C   UNL     1      34.884 -17.806 -23.043  0.00  0.00    +0.121 C 
BRANCH   3   4
ATOM      4  N   UNL     1      34.701 -16.589 -23.614  0.00  0.00    -0.297 N 
ATOM      5  C   UNL     1      33.347 -14.324 -24.757  0.00  0.00    +0.004 C 
ATOM      6  C   UNL     1      33.504 -15.631 -25.536  0.00  0.00    +0.022 C 
ATOM      7  C   UNL     1      33.326 -14.585 -23.250  0.00  0.00    +0.022 C 
ATOM      8  C   UNL     1      34.725 -16.413 -25.062  0.00  0.00    +0.092 C 
ATOM      9  C   UNL     1      34.548 -15.384 -22.808  0.00  0.00    +0.092 C 
ENDBRANCH   3   4
ENDBRANCH   1   3
BRANCH   1  10
ATOM     10  S   UNL     1      35.970 -19.558 -20.921  0.00  0.00    -0.027 S 
BRANCH  10  12
ATOM     11  S   UNL     1      33.023 -20.126 -20.603  0.00  0.00    -0.027 S 
ATOM     12  C   UNL     1      34.620 -20.442 -20.243  0.00  0.00    +0.121 C 
BRANCH  12  13
ATOM     13  N   UNL     1      35.001 -21.447 -19.416  0.00  0.00    -0.297 N 
ATOM     14  C   UNL     1      35.471 -22.898 -16.977  0.00  0.00    +0.004 C 
ATOM     15  C   UNL     1      34.059 -22.732 -17.543  0.00  0.00    +0.022 C 
ATOM     16  C   UNL     1      36.366 -21.730 -17.391  0.00  0.00    +0.022 C 
ATOM     17  C   UNL     1      34.089 -22.526 -19.055  0.00  0.00    +0.092 C 
ATOM     18  C   UNL     1      36.364 -21.539 -18.905  0.00  0.00    +0.092 C 
ENDBRANCH  12  13
ENDBRANCH  10  12
ENDBRANCH   1  10
TORSDOF 5
ENDMDL
MODEL 8
REMARK VINA RESULT:      -7.3      3.207      4.867
REMARK  Name = 7188
REMARK  5 active torsions:
REMARK  status: ('A' for Active; 'I' for Inactive)
REMARK    1  A    between atoms: S_1  and  C_3
REMARK    2  A    between atoms: S_1  and  S_10
REMARK    3  A    between atoms: C_3  and  N_4
REMARK    4  A    between atoms: S_10  and  C_12
REMARK    5  A    between atoms: C_12  and  N_13
REMARK                            x       y       z     vdW  Elec       q    Type
REMARK                         _______ _______ _______ _____ _____    ______ ____
ROOT
ATOM      1  S   UNL     1      34.320 -16.078 -24.048  0.00  0.00    -0.027 S 
ENDROOT
BRANCH   1   3
ATOM      2  S   UNL     1      32.855 -14.694 -21.800  0.00  0.00    -0.027 S 
ATOM      3  C   UNL     1      33.383 -14.757 -23.380  0.00  0.00    +0.121 C 
BRANCH   3   4
ATOM      4  N   UNL     1      33.157 -13.759 -24.270  0.00  0.00    -0.297 N 
ATOM      5  C   UNL     1      33.674 -11.799 -26.311  0.00  0.00    +0.004 C 
ATOM      6  C   UNL     1      34.134 -11.584 -24.868  0.00  0.00    +0.022 C 
ATOM      7  C   UNL     1      33.595 -13.290 -26.643  0.00  0.00    +0.022 C 
ATOM      8  C   UNL     1      33.257 -12.356 -23.887  0.00  0.00    +0.092 C 
ATOM      9  C   UNL     1      32.728 -14.038 -25.636  0.00  0.00    +0.092 C 
ENDBRANCH   3   4
ENDBRANCH   1   3
BRANCH   1  10
ATOM     10  S   UNL     1      35.187 -16.863 -22.351  0.00  0.00    -0.027 S 
BRANCH  10  12
ATOM     11  S   UNL     1      34.730 -19.336 -24.022  0.00  0.00    -0.027 S 
ATOM     12  C   UNL     1      34.848 -18.570 -22.546  0.00  0.00    +0.121 C 
BRANCH  12  13
ATOM     13  N   UNL     1      34.725 -19.228 -21.366  0.00  0.00    -0.297 N 
ATOM     14  C   UNL     1      34.423 -21.407 -19.514  0.00  0.00    +0.004 C 
ATOM     15  C   UNL     1      35.753 -21.148 -20.226  0.00  0.00    +0.022 C 
ATOM     16  C   UNL     1      33.247 -20.913 -20.356  0.00  0.00    +0.022 C 
ATOM     17  C   UNL     1      35.893 -19.680 -20.620  0.00  0.00    +0.092 C 
ATOM     18  C   UNL     1      33.423 -19.449 -20.748  0.00  0.00    +0.092 C 
ENDBRANCH  12  13
ENDBRANCH  10  12
ENDBRANCH   1  10
TORSDOF 5
ENDMDL
MODEL 9
REMARK VINA RESULT:      -7.3      1.820      7.956
REMARK  Name = 7188
REMARK  5 active torsions:
REMARK  status: ('A' for Active; 'I' for Inactive)
REMARK    1  A    between atoms: S_1  and  C_3
REMARK    2  A    between atoms: S_1  and  S_10
REMARK    3  A    between atoms: C_3  and  N_4
REMARK    4  A    between atoms: S_10  and  C_12
REMARK    5  A    between atoms: C_12  and  N_13
REMARK                            x       y       z     vdW  Elec       q    Type
REMARK                         _______ _______ _______ _____ _____    ______ ____
ROOT
ATOM      1  S   UNL     1      33.406 -13.866 -24.034  0.00  0.00    -0.027 S 
ENDROOT
BRANCH   1   3
ATOM      2  S   UNL     1      32.715 -14.920 -21.291  0.00  0.00    -0.027 S 
ATOM      3  C   UNL     1      33.542 -15.031 -22.733  0.00  0.00    +0.121 C 
BRANCH   3   4
ATOM      4  N   UNL     1      34.365 -16.068 -23.030  0.00  0.00    -0.297 N 
ATOM      5  C   UNL     1      35.205 -18.735 -23.704  0.00  0.00    +0.004 C 
ATOM      6  C   UNL     1      34.728 -18.386 -22.293  0.00  0.00    +0.022 C 
ATOM      7  C   UNL     1      34.555 -17.821 -24.744  0.00  0.00    +0.022 C 
ATOM      8  C   UNL     1      34.945 -16.906 -21.987  0.00  0.00    +0.092 C 
ATOM      9  C   UNL     1      34.773 -16.350 -24.402  0.00  0.00    +0.092 C 
ENDBRANCH   3   4
ENDBRANCH   1   3
BRANCH   1  10
ATOM     10  S   UNL     1      32.723 -12.204 -23.024  0.00  0.00    -0.027 S 
BRANCH  10  12
ATOM     11  S   UNL     1      34.381 -11.144 -25.313  0.00  0.00    -0.027 S 
ATOM     12  C   UNL     1      33.479 -10.910 -23.931  0.00  0.00    +0.121 C 
BRANCH  12  13
ATOM     13  N   UNL     1      33.226  -9.681 -23.418  0.00  0.00    -0.297 N 
ATOM     14  C   UNL     1      32.350  -6.945 -23.283  0.00  0.00    +0.004 C 
ATOM     15  C   UNL     1      31.347  -8.100 -23.294  0.00  0.00    +0.022 C 
ATOM     16  C   UNL     1      33.636  -7.331 -24.013  0.00  0.00    +0.022 C 
ATOM     17  C   UNL     1      31.970  -9.379 -22.742  0.00  0.00    +0.092 C 
ATOM     18  C   UNL     1      34.227  -8.621 -23.450  0.00  0.00    +0.092 C 
ENDBRANCH  12  13
ENDBRANCH  10  12
ENDBRANCH   1  10
TORSDOF 5
ENDMDL
