MODEL 1
REMARK VINA RESULT:      -8.6      0.000      0.000
REMARK  Name = 23615309
REMARK  5 active torsions:
REMARK  status: ('A' for Active; 'I' for Inactive)
REMARK    1  A    between atoms: C_1  and  C_3
REMARK    2  A    between atoms: C_1  and  C_10
REMARK    3  A    between atoms: C_3  and  C_4
REMARK    4  A    between atoms: C_11  and  C_13
REMARK    5  A    between atoms: C_13  and  C_16
REMARK                            x       y       z     vdW  Elec       q    Type
REMARK                         _______ _______ _______ _____ _____    ______ ____
ROOT
ATOM      1  C   UNL     1      33.461 -22.812 -17.155  0.00  0.00    +0.095 C 
ENDROOT
BRANCH   1   3
ATOM      2  O   UNL     1      33.873 -24.044 -19.194  0.00  0.00    -0.291 OA
ATOM      3  C   UNL     1      33.788 -22.952 -18.637  0.00  0.00    +0.177 C 
BRANCH   3   4
ATOM      4  C   UNL     1      33.998 -21.712 -19.440  0.00  0.00    +0.035 C 
ATOM      5  C   UNL     1      35.291 -21.308 -19.774  0.00  0.00    +0.003 C 
ATOM      6  C   UNL     1      32.902 -20.957 -19.858  0.00  0.00    +0.003 C 
ATOM      7  C   UNL     1      35.487 -20.149 -20.524  0.00  0.00    +0.000 C 
ATOM      8  C   UNL     1      33.099 -19.798 -20.609  0.00  0.00    +0.000 C 
ATOM      9  C   UNL     1      34.391 -19.395 -20.942  0.00  0.00    +0.000 C 
ENDBRANCH   3   4
ENDBRANCH   1   3
BRANCH   1  10
ATOM     10  C   UNL     1      32.143 -23.454 -16.839  0.00  0.00    -0.014 C 
ATOM     11  C   UNL     1      31.044 -22.758 -16.515  0.00  0.00    +0.045 C 
BRANCH  11  13
ATOM     12  O   UNL     1      29.661 -24.352 -15.376  0.00  0.00    -0.279 OA
ATOM     13  C   UNL     1      29.781 -23.469 -16.213  0.00  0.00    +0.274 C 
BRANCH  13  16
ATOM     14  O   UNL     1      27.822 -24.128 -17.341  0.00  0.00    -0.237 OA
ATOM     15  O   UNL     1      28.264 -21.908 -17.095  0.00  0.00    -0.237 OA
ATOM     16  C   UNL     1      28.510 -23.142 -16.947  0.00  0.00    +0.426 C 
ENDBRANCH  13  16
ENDBRANCH  11  13
ENDBRANCH   1  10
TORSDOF 5
ENDMDL
MODEL 2
REMARK VINA RESULT:      -8.4      5.738      8.621
REMARK  Name = 23615309
REMARK  5 active torsions:
REMARK  status: ('A' for Active; 'I' for Inactive)
REMARK    1  A    between atoms: C_1  and  C_3
REMARK    2  A    between atoms: C_1  and  C_10
REMARK    3  A    between atoms: C_3  and  C_4
REMARK    4  A    between atoms: C_11  and  C_13
REMARK    5  A    between atoms: C_13  and  C_16
REMARK                            x       y       z     vdW  Elec       q    Type
REMARK                         _______ _______ _______ _____ _____    ______ ____
ROOT
ATOM      1  C   UNL     1      35.001 -16.991 -21.080  0.00  0.00    +0.095 C 
ENDROOT
BRANCH   1   3
ATOM      2  O   UNL     1      36.534 -18.460 -22.235  0.00  0.00    -0.291 OA
ATOM      3  C   UNL     1      35.616 -18.341 -21.427  0.00  0.00    +0.177 C 
BRANCH   3   4
ATOM      4  C   UNL     1      35.089 -19.560 -20.747  0.00  0.00    +0.035 C 
ATOM      5  C   UNL     1      33.712 -19.772 -20.665  0.00  0.00    +0.003 C 
ATOM      6  C   UNL     1      35.971 -20.488 -20.194  0.00  0.00    +0.003 C 
ATOM      7  C   UNL     1      33.219 -20.912 -20.029  0.00  0.00    +0.000 C 
ATOM      8  C   UNL     1      35.478 -21.628 -19.559  0.00  0.00    +0.000 C 
ATOM      9  C   UNL     1      34.102 -21.839 -19.477  0.00  0.00    +0.000 C 
ENDBRANCH   3   4
ENDBRANCH   1   3
BRANCH   1  10
ATOM     10  C   UNL     1      34.185 -16.468 -22.225  0.00  0.00    -0.014 C 
ATOM     11  C   UNL     1      34.694 -15.708 -23.205  0.00  0.00    +0.045 C 
BRANCH  11  13
ATOM     12  O   UNL     1      33.045 -14.287 -24.210  0.00  0.00    -0.279 OA
ATOM     13  C   UNL     1      33.818 -15.230 -24.299  0.00  0.00    +0.274 C 
BRANCH  13  16
ATOM     14  O   UNL     1      34.716 -16.773 -25.832  0.00  0.00    -0.237 OA
ATOM     15  O   UNL     1      32.923 -15.515 -26.451  0.00  0.00    -0.237 OA
ATOM     16  C   UNL     1      33.820 -15.899 -25.645  0.00  0.00    +0.426 C 
ENDBRANCH  13  16
ENDBRANCH  11  13
ENDBRANCH   1  10
TORSDOF 5
ENDMDL
MODEL 3
REMARK VINA RESULT:      -8.4      5.674      8.640
REMARK  Name = 23615309
REMARK  5 active torsions:
REMARK  status: ('A' for Active; 'I' for Inactive)
REMARK    1  A    between atoms: C_1  and  C_3
REMARK    2  A    between atoms: C_1  and  C_10
REMARK    3  A    between atoms: C_3  and  C_4
REMARK    4  A    between atoms: C_11  and  C_13
REMARK    5  A    between atoms: C_13  and  C_16
REMARK                            x       y       z     vdW  Elec       q    Type
REMARK                         _______ _______ _______ _____ _____    ______ ____
ROOT
ATOM      1  C   UNL     1      35.187 -17.417 -21.555  0.00  0.00    +0.095 C 
ENDROOT
BRANCH   1   3
ATOM      2  O   UNL     1      37.116 -18.872 -21.494  0.00  0.00    -0.291 OA
ATOM      3  C   UNL     1      35.924 -18.714 -21.244  0.00  0.00    +0.177 C 
BRANCH   3   4
ATOM      4  C   UNL     1      35.166 -19.826 -20.600  0.00  0.00    +0.035 C 
ATOM      5  C   UNL     1      35.851 -20.841 -19.931  0.00  0.00    +0.003 C 
ATOM      6  C   UNL     1      33.772 -19.852 -20.665  0.00  0.00    +0.003 C 
ATOM      7  C   UNL     1      35.144 -21.881 -19.328  0.00  0.00    +0.000 C 
ATOM      8  C   UNL     1      33.065 -20.892 -20.062  0.00  0.00    +0.000 C 
ATOM      9  C   UNL     1      33.750 -21.906 -19.394  0.00  0.00    +0.000 C 
ENDBRANCH   3   4
ENDBRANCH   1   3
BRANCH   1  10
ATOM     10  C   UNL     1      35.063 -17.218 -23.037  0.00  0.00    -0.014 C 
ATOM     11  C   UNL     1      34.242 -16.315 -23.592  0.00  0.00    +0.045 C 
BRANCH  11  13
ATOM     12  O   UNL     1      34.720 -16.942 -25.857  0.00  0.00    -0.279 OA
ATOM     13  C   UNL     1      34.177 -16.184 -25.066  0.00  0.00    +0.274 C 
BRANCH  13  16
ATOM     14  O   UNL     1      32.856 -14.241 -24.928  0.00  0.00    -0.237 OA
ATOM     15  O   UNL     1      33.396 -15.068 -26.979  0.00  0.00    -0.237 OA
ATOM     16  C   UNL     1      33.409 -15.065 -25.713  0.00  0.00    +0.426 C 
ENDBRANCH  13  16
ENDBRANCH  11  13
ENDBRANCH   1  10
TORSDOF 5
ENDMDL
MODEL 4
REMARK VINA RESULT:      -8.3      3.400      5.747
REMARK  Name = 23615309
REMARK  5 active torsions:
REMARK  status: ('A' for Active; 'I' for Inactive)
REMARK    1  A    between atoms: C_1  and  C_3
REMARK    2  A    between atoms: C_1  and  C_10
REMARK    3  A    between atoms: C_3  and  C_4
REMARK    4  A    between atoms: C_11  and  C_13
REMARK    5  A    between atoms: C_13  and  C_16
REMARK                            x       y       z     vdW  Elec       q    Type
REMARK                         _______ _______ _______ _____ _____    ______ ____
ROOT
ATOM      1  C   UNL     1      36.520 -19.460 -21.014  0.00  0.00    +0.095 C 
ENDROOT
BRANCH   1   3
ATOM      2  O   UNL     1      35.515 -17.329 -20.469  0.00  0.00    -0.291 OA
ATOM      3  C   UNL     1      35.744 -18.185 -21.321  0.00  0.00    +0.177 C 
BRANCH   3   4
ATOM      4  C   UNL     1      35.257 -17.966 -22.714  0.00  0.00    +0.035 C 
ATOM      5  C   UNL     1      34.890 -19.056 -23.504  0.00  0.00    +0.003 C 
ATOM      6  C   UNL     1      35.167 -16.672 -23.228  0.00  0.00    +0.003 C 
ATOM      7  C   UNL     1      34.435 -18.852 -24.807  0.00  0.00    +0.000 C 
ATOM      8  C   UNL     1      34.712 -16.468 -24.530  0.00  0.00    +0.000 C 
ATOM      9  C   UNL     1      34.346 -17.557 -25.319  0.00  0.00    +0.000 C 
ENDBRANCH   3   4
ENDBRANCH   1   3
BRANCH   1  10
ATOM     10  C   UNL     1      35.696 -20.394 -20.177  0.00  0.00    -0.014 C 
ATOM     11  C   UNL     1      34.363 -20.487 -20.273  0.00  0.00    +0.045 C 
BRANCH  11  13
ATOM     12  O   UNL     1      32.481 -21.266 -19.006  0.00  0.00    -0.279 OA
ATOM     13  C   UNL     1      33.624 -21.435 -19.407  0.00  0.00    +0.274 C 
BRANCH  13  16
ATOM     14  O   UNL     1      34.885 -22.666 -17.847  0.00  0.00    -0.237 OA
ATOM     15  O   UNL     1      34.091 -23.717 -19.704  0.00  0.00    -0.237 OA
ATOM     16  C   UNL     1      34.256 -22.718 -18.944  0.00  0.00    +0.426 C 
ENDBRANCH  13  16
ENDBRANCH  11  13
ENDBRANCH   1  10
TORSDOF 5
ENDMDL
MODEL 5
REMARK VINA RESULT:      -8.2      5.849      8.680
REMARK  Name = 23615309
REMARK  5 active torsions:
REMARK  status: ('A' for Active; 'I' for Inactive)
REMARK    1  A    between atoms: C_1  and  C_3
REMARK    2  A    between atoms: C_1  and  C_10
REMARK    3  A    between atoms: C_3  and  C_4
REMARK    4  A    between atoms: C_11  and  C_13
REMARK    5  A    between atoms: C_13  and  C_16
REMARK                            x       y       z     vdW  Elec       q    Type
REMARK                         _______ _______ _______ _____ _____    ______ ____
ROOT
ATOM      1  C   UNL     1      35.113 -16.929 -21.436  0.00  0.00    +0.095 C 
ENDROOT
BRANCH   1   3
ATOM      2  O   UNL     1      35.914 -18.637 -22.947  0.00  0.00    -0.291 OA
ATOM      3  C   UNL     1      35.318 -18.363 -21.908  0.00  0.00    +0.177 C 
BRANCH   3   4
ATOM      4  C   UNL     1      34.786 -19.473 -21.065  0.00  0.00    +0.035 C 
ATOM      5  C   UNL     1      35.664 -20.376 -20.465  0.00  0.00    +0.003 C 
ATOM      6  C   UNL     1      33.410 -19.608 -20.874  0.00  0.00    +0.003 C 
ATOM      7  C   UNL     1      35.167 -21.414 -19.677  0.00  0.00    +0.000 C 
ATOM      8  C   UNL     1      32.914 -20.645 -20.085  0.00  0.00    +0.000 C 
ATOM      9  C   UNL     1      33.792 -21.548 -19.487  0.00  0.00    +0.000 C 
ENDBRANCH   3   4
ENDBRANCH   1   3
BRANCH   1  10
ATOM     10  C   UNL     1      34.146 -16.209 -22.329  0.00  0.00    -0.014 C 
ATOM     11  C   UNL     1      34.525 -15.477 -23.386  0.00  0.00    +0.045 C 
BRANCH  11  13
ATOM     12  O   UNL     1      32.731 -13.942 -23.806  0.00  0.00    -0.279 OA
ATOM     13  C   UNL     1      33.506 -14.795 -24.216  0.00  0.00    +0.274 C 
BRANCH  13  16
ATOM     14  O   UNL     1      33.950 -16.154 -26.086  0.00  0.00    -0.237 OA
ATOM     15  O   UNL     1      32.629 -14.318 -26.342  0.00  0.00    -0.237 OA
ATOM     16  C   UNL     1      33.348 -15.119 -25.676  0.00  0.00    +0.426 C 
ENDBRANCH  13  16
ENDBRANCH  11  13
ENDBRANCH   1  10
TORSDOF 5
ENDMDL
MODEL 6
REMARK VINA RESULT:      -8.1      5.726      8.703
REMARK  Name = 23615309
REMARK  5 active torsions:
REMARK  status: ('A' for Active; 'I' for Inactive)
REMARK    1  A    between atoms: C_1  and  C_3
REMARK    2  A    between atoms: C_1  and  C_10
REMARK    3  A    between atoms: C_3  and  C_4
REMARK    4  A    between atoms: C_11  and  C_13
REMARK    5  A    between atoms: C_13  and  C_16
REMARK                            x       y       z     vdW  Elec       q    Type
REMARK                         _______ _______ _______ _____ _____    ______ ____
ROOT
ATOM      1  C   UNL     1      35.522 -18.784 -23.185  0.00  0.00    +0.095 C 
ENDROOT
BRANCH   1   3
ATOM      2  O   UNL     1      35.437 -17.466 -21.161  0.00  0.00    -0.291 OA
ATOM      3  C   UNL     1      35.284 -18.561 -21.697  0.00  0.00    +0.177 C 
BRANCH   3   4
ATOM      4  C   UNL     1      34.833 -19.717 -20.867  0.00  0.00    +0.035 C 
ATOM      5  C   UNL     1      33.472 -19.920 -20.635  0.00  0.00    +0.003 C 
ATOM      6  C   UNL     1      35.772 -20.595 -20.325  0.00  0.00    +0.003 C 
ATOM      7  C   UNL     1      33.051 -20.999 -19.858  0.00  0.00    +0.000 C 
ATOM      8  C   UNL     1      35.350 -21.675 -19.549  0.00  0.00    +0.000 C 
ATOM      9  C   UNL     1      33.990 -21.877 -19.317  0.00  0.00    +0.000 C 
ENDBRANCH   3   4
ENDBRANCH   1   3
BRANCH   1  10
ATOM     10  C   UNL     1      34.612 -17.918 -24.005  0.00  0.00    -0.014 C 
ATOM     11  C   UNL     1      34.904 -16.653 -24.339  0.00  0.00    +0.045 C 
BRANCH  11  13
ATOM     12  O   UNL     1      33.608 -16.141 -26.291  0.00  0.00    -0.279 OA
ATOM     13  C   UNL     1      33.949 -15.863 -25.150  0.00  0.00    +0.274 C 
BRANCH  13  16
ATOM     14  O   UNL     1      33.084 -14.607 -23.357  0.00  0.00    -0.237 OA
ATOM     15  O   UNL     1      33.063 -13.709 -25.449  0.00  0.00    -0.237 OA
ATOM     16  C   UNL     1      33.309 -14.618 -24.602  0.00  0.00    +0.426 C 
ENDBRANCH  13  16
ENDBRANCH  11  13
ENDBRANCH   1  10
TORSDOF 5
ENDMDL
MODEL 7
REMARK VINA RESULT:      -8.1      3.211      4.798
REMARK  Name = 23615309
REMARK  5 active torsions:
REMARK  status: ('A' for Active; 'I' for Inactive)
REMARK    1  A    between atoms: C_1  and  C_3
REMARK    2  A    between atoms: C_1  and  C_10
REMARK    3  A    between atoms: C_3  and  C_4
REMARK    4  A    between atoms: C_11  and  C_13
REMARK    5  A    between atoms: C_13  and  C_16
REMARK                            x       y       z     vdW  Elec       q    Type
REMARK                         _______ _______ _______ _____ _____    ______ ____
ROOT
ATOM      1  C   UNL     1      33.359 -22.825 -17.368  0.00  0.00    +0.095 C 
ENDROOT
BRANCH   1   3
ATOM      2  O   UNL     1      33.930 -24.015 -19.394  0.00  0.00    -0.291 OA
ATOM      3  C   UNL     1      33.816 -22.936 -18.817  0.00  0.00    +0.177 C 
BRANCH   3   4
ATOM      4  C   UNL     1      34.123 -21.681 -19.565  0.00  0.00    +0.035 C 
ATOM      5  C   UNL     1      35.449 -21.319 -19.806  0.00  0.00    +0.003 C 
ATOM      6  C   UNL     1      33.084 -20.870 -20.025  0.00  0.00    +0.003 C 
ATOM      7  C   UNL     1      35.736 -20.146 -20.504  0.00  0.00    +0.000 C 
ATOM      8  C   UNL     1      33.372 -19.698 -20.724  0.00  0.00    +0.000 C 
ATOM      9  C   UNL     1      34.697 -19.336 -20.964  0.00  0.00    +0.000 C 
ENDBRANCH   3   4
ENDBRANCH   1   3
BRANCH   1  10
ATOM     10  C   UNL     1      34.389 -23.400 -16.441  0.00  0.00    -0.014 C 
ATOM     11  C   UNL     1      35.598 -22.853 -16.254  0.00  0.00    +0.045 C 
BRANCH  11  13
ATOM     12  O   UNL     1      37.607 -22.977 -14.950  0.00  0.00    -0.279 OA
ATOM     13  C   UNL     1      36.559 -23.486 -15.321  0.00  0.00    +0.274 C 
BRANCH  13  16
ATOM     14  O   UNL     1      36.579 -25.833 -15.494  0.00  0.00    -0.237 OA
ATOM     15  O   UNL     1      35.826 -24.871 -13.572  0.00  0.00    -0.237 OA
ATOM     16  C   UNL     1      36.300 -24.850 -14.747  0.00  0.00    +0.426 C 
ENDBRANCH  13  16
ENDBRANCH  11  13
ENDBRANCH   1  10
TORSDOF 5
ENDMDL
MODEL 8
REMARK VINA RESULT:      -8.0      1.597      2.249
REMARK  Name = 23615309
REMARK  5 active torsions:
REMARK  status: ('A' for Active; 'I' for Inactive)
REMARK    1  A    between atoms: C_1  and  C_3
REMARK    2  A    between atoms: C_1  and  C_10
REMARK    3  A    between atoms: C_3  and  C_4
REMARK    4  A    between atoms: C_11  and  C_13
REMARK    5  A    between atoms: C_13  and  C_16
REMARK                            x       y       z     vdW  Elec       q    Type
REMARK                         _______ _______ _______ _____ _____    ______ ____
ROOT
ATOM      1  C   UNL     1      34.023 -22.962 -17.214  0.00  0.00    +0.095 C 
ENDROOT
BRANCH   1   3
ATOM      2  O   UNL     1      33.850 -24.081 -19.350  0.00  0.00    -0.291 OA
ATOM      3  C   UNL     1      33.989 -23.025 -18.736  0.00  0.00    +0.177 C 
BRANCH   3   4
ATOM      4  C   UNL     1      34.115 -21.753 -19.505  0.00  0.00    +0.035 C 
ATOM      5  C   UNL     1      35.377 -21.273 -19.857  0.00  0.00    +0.003 C 
ATOM      6  C   UNL     1      32.972 -21.043 -19.874  0.00  0.00    +0.003 C 
ATOM      7  C   UNL     1      35.496 -20.083 -20.576  0.00  0.00    +0.000 C 
ATOM      8  C   UNL     1      33.091 -19.853 -20.593  0.00  0.00    +0.000 C 
ATOM      9  C   UNL     1      34.352 -19.374 -20.944  0.00  0.00    +0.000 C 
ENDBRANCH   3   4
ENDBRANCH   1   3
BRANCH   1  10
ATOM     10  C   UNL     1      32.660 -23.218 -16.641  0.00  0.00    -0.014 C 
ATOM     11  C   UNL     1      32.387 -23.140 -15.331  0.00  0.00    +0.045 C 
BRANCH  11  13
ATOM     12  O   UNL     1      30.043 -22.703 -15.071  0.00  0.00    -0.279 OA
ATOM     13  C   UNL     1      31.014 -23.411 -14.846  0.00  0.00    +0.274 C 
BRANCH  13  16
ATOM     14  O   UNL     1      30.663 -24.440 -12.758  0.00  0.00    -0.237 OA
ATOM     15  O   UNL     1      30.537 -25.703 -14.648  0.00  0.00    -0.237 OA
ATOM     16  C   UNL     1      30.711 -24.623 -14.009  0.00  0.00    +0.426 C 
ENDBRANCH  13  16
ENDBRANCH  11  13
ENDBRANCH   1  10
TORSDOF 5
ENDMDL
MODEL 9
REMARK VINA RESULT:      -8.0      3.988      6.523
REMARK  Name = 23615309
REMARK  5 active torsions:
REMARK  status: ('A' for Active; 'I' for Inactive)
REMARK    1  A    between atoms: C_1  and  C_3
REMARK    2  A    between atoms: C_1  and  C_10
REMARK    3  A    between atoms: C_3  and  C_4
REMARK    4  A    between atoms: C_11  and  C_13
REMARK    5  A    between atoms: C_13  and  C_16
REMARK                            x       y       z     vdW  Elec       q    Type
REMARK                         _______ _______ _______ _____ _____    ______ ____
ROOT
ATOM      1  C   UNL     1      34.642 -18.219 -22.129  0.00  0.00    +0.095 C 
ENDROOT
BRANCH   1   3
ATOM      2  O   UNL     1      35.377 -16.808 -20.308  0.00  0.00    -0.291 OA
ATOM      3  C   UNL     1      34.743 -16.910 -21.357  0.00  0.00    +0.177 C 
BRANCH   3   4
ATOM      4  C   UNL     1      34.056 -15.704 -21.906  0.00  0.00    +0.035 C 
ATOM      5  C   UNL     1      34.448 -15.180 -23.139  0.00  0.00    +0.003 C 
ATOM      6  C   UNL     1      33.022 -15.102 -21.189  0.00  0.00    +0.003 C 
ATOM      7  C   UNL     1      33.806 -14.053 -23.653  0.00  0.00    +0.000 C 
ATOM      8  C   UNL     1      32.381 -13.975 -21.704  0.00  0.00    +0.000 C 
ATOM      9  C   UNL     1      32.772 -13.452 -22.935  0.00  0.00    +0.000 C 
ENDBRANCH   3   4
ENDBRANCH   1   3
BRANCH   1  10
ATOM     10  C   UNL     1      35.028 -19.380 -21.259  0.00  0.00    -0.014 C 
ATOM     11  C   UNL     1      34.140 -20.108 -20.567  0.00  0.00    +0.045 C 
BRANCH  11  13
ATOM     12  O   UNL     1      35.750 -21.380 -19.326  0.00  0.00    -0.279 OA
ATOM     13  C   UNL     1      34.604 -21.237 -19.729  0.00  0.00    +0.274 C 
BRANCH  13  16
ATOM     14  O   UNL     1      34.060 -23.514 -19.486  0.00  0.00    -0.237 OA
ATOM     15  O   UNL     1      32.563 -21.939 -18.804  0.00  0.00    -0.237 OA
ATOM     16  C   UNL     1      33.661 -22.327 -19.302  0.00  0.00    +0.426 C 
ENDBRANCH  13  16
ENDBRANCH  11  13
ENDBRANCH   1  10
TORSDOF 5
ENDMDL
