MODEL 1
REMARK VINA RESULT:      -9.2      0.000      0.000
REMARK  Name = 5327013
REMARK  7 active torsions:
REMARK  status: ('A' for Active; 'I' for Inactive)
REMARK    1  A    between atoms: C_6  and  C_13
REMARK    2  A    between atoms: C_7  and  C_21
REMARK    3  A    between atoms: C_8  and  C_24
REMARK    4  A    between atoms: C_21  and  O_22
REMARK    5  A    between atoms: C_24  and  P_25
REMARK    6  A    between atoms: P_25  and  O_27
REMARK    7  A    between atoms: P_25  and  O_29
REMARK                            x       y       z     vdW  Elec       q    Type
REMARK                         _______ _______ _______ _____ _____    ______ ____
ROOT
ATOM      1  O   UNL     1      33.996 -23.554 -17.609  0.00  0.00    -0.347 OA
ATOM      2  O   UNL     1      36.600 -22.528 -15.429  0.00  0.00    -0.327 OA
ATOM      3  O   UNL     1      35.240 -24.362 -14.914  0.00  0.00    -0.327 OA
ATOM      4  C   UNL     1      35.321 -22.362 -16.033  0.00  0.00    +0.179 C 
ATOM      5  C   UNL     1      34.391 -23.272 -15.285  0.00  0.00    +0.177 C 
ATOM      6  C   UNL     1      35.287 -22.925 -17.455  0.00  0.00    +0.170 C 
ATOM      7  C   UNL     1      33.371 -23.700 -16.318  0.00  0.00    +0.174 C 
ATOM      8  C   UNL     1      36.505 -23.739 -14.669  0.00  0.00    +0.248 C 
ENDROOT
BRANCH   6  13
ATOM      9  O   UNL     1      35.220 -18.772 -21.897  0.00  0.00    -0.221 OA
ATOM     10  N   UNL     1      36.603 -20.418 -19.829  0.00  0.00    -0.302 N 
ATOM     11  N   UNL     1      33.294 -21.447 -19.481  0.00  0.00    -0.311 N 
ATOM     12  N   UNL     1      33.251 -19.792 -21.254  0.00  0.00    -0.179 NA
ATOM     13  C   UNL     1      35.554 -21.883 -18.505  0.00  0.00    +0.037 C 
ATOM     14  C   UNL     1      34.624 -21.276 -19.362  0.00  0.00    +0.071 C 
ATOM     15  C   UNL     1      36.781 -21.332 -18.815  0.00  0.00    +0.062 C 
ATOM     16  C   UNL     1      35.277 -20.376 -20.173  0.00  0.00    +0.146 C 
ATOM     17  C   UNL     1      34.626 -19.569 -21.180  0.00  0.00    +0.167 C 
ATOM     18  C   UNL     1      32.706 -20.661 -20.452  0.00  0.00    +0.229 C 
ATOM     19  H   UNL     1      37.316 -19.880 -20.242  0.00  0.00    +0.153 HD
ATOM     20  H   UNL     1      32.785 -22.078 -18.924  0.00  0.00    +0.149 HD
ENDBRANCH   6  13
BRANCH   7  21
ATOM     21  C   UNL     1      32.124 -22.827 -16.300  0.00  0.00    +0.169 C 
BRANCH  21  22
ATOM     22  O   UNL     1      31.627 -22.718 -17.624  0.00  0.00    -0.379 OA
ATOM     23  H   UNL     1      32.312 -23.000 -18.250  0.00  0.00    +0.211 HD
ENDBRANCH  21  22
ENDBRANCH   7  21
BRANCH   8  24
ATOM     24  C   UNL     1      37.629 -24.684 -15.047  0.00  0.00    +0.177 C 
BRANCH  24  25
ATOM     25  P   UNL     1      37.244 -26.403 -14.650  0.00  0.00    +0.342 P 
ATOM     26  O   UNL     1      38.441 -27.288 -14.603  0.00  0.00    -0.258 OA
BRANCH  25  27
ATOM     27  O   UNL     1      36.130 -26.774 -15.751  0.00  0.00    -0.323 OA
ATOM     28  H   UNL     1      36.540 -26.804 -16.630  0.00  0.00    +0.220 HD
ENDBRANCH  25  27
BRANCH  25  29
ATOM     29  O   UNL     1      36.408 -26.267 -13.281  0.00  0.00    -0.323 OA
ATOM     30  H   UNL     1      35.884 -25.451 -13.302  0.00  0.00    +0.220 HD
ENDBRANCH  25  29
ENDBRANCH  24  25
ENDBRANCH   8  24
TORSDOF 7
ENDMDL
MODEL 2
REMARK VINA RESULT:      -9.0      1.771      2.667
REMARK  Name = 5327013
REMARK  7 active torsions:
REMARK  status: ('A' for Active; 'I' for Inactive)
REMARK    1  A    between atoms: C_6  and  C_13
REMARK    2  A    between atoms: C_7  and  C_21
REMARK    3  A    between atoms: C_8  and  C_24
REMARK    4  A    between atoms: C_21  and  O_22
REMARK    5  A    between atoms: C_24  and  P_25
REMARK    6  A    between atoms: P_25  and  O_27
REMARK    7  A    between atoms: P_25  and  O_29
REMARK                            x       y       z     vdW  Elec       q    Type
REMARK                         _______ _______ _______ _____ _____    ______ ____
ROOT
ATOM      1  O   UNL     1      34.037 -24.602 -15.637  0.00  0.00    -0.347 OA
ATOM      2  O   UNL     1      36.864 -22.469 -15.432  0.00  0.00    -0.327 OA
ATOM      3  O   UNL     1      36.674 -24.363 -14.070  0.00  0.00    -0.327 OA
ATOM      4  C   UNL     1      35.489 -22.765 -15.213  0.00  0.00    +0.179 C 
ATOM      5  C   UNL     1      35.447 -23.634 -13.989  0.00  0.00    +0.177 C 
ATOM      6  C   UNL     1      34.923 -23.676 -16.303  0.00  0.00    +0.170 C 
ATOM      7  C   UNL     1      34.256 -24.541 -14.212  0.00  0.00    +0.174 C 
ATOM      8  C   UNL     1      37.588 -23.425 -14.648  0.00  0.00    +0.248 C 
ENDROOT
BRANCH   6  13
ATOM      9  O   UNL     1      33.255 -20.251 -21.043  0.00  0.00    -0.221 OA
ATOM     10  N   UNL     1      32.672 -22.083 -18.762  0.00  0.00    -0.302 N 
ATOM     11  N   UNL     1      36.135 -21.769 -18.574  0.00  0.00    -0.311 N 
ATOM     12  N   UNL     1      35.486 -20.400 -20.467  0.00  0.00    -0.179 NA
ATOM     13  C   UNL     1      34.244 -22.916 -17.408  0.00  0.00    +0.037 C 
ATOM     14  C   UNL     1      34.845 -22.094 -18.373  0.00  0.00    +0.071 C 
ATOM     15  C   UNL     1      32.890 -22.893 -17.670  0.00  0.00    +0.062 C 
ATOM     16  C   UNL     1      33.871 -21.585 -19.202  0.00  0.00    +0.146 C 
ATOM     17  C   UNL     1      34.132 -20.697 -20.313  0.00  0.00    +0.167 C 
ATOM     18  C   UNL     1      36.348 -20.920 -19.641  0.00  0.00    +0.229 C 
ATOM     19  H   UNL     1      31.794 -21.890 -19.162  0.00  0.00    +0.153 HD
ATOM     20  H   UNL     1      36.865 -22.108 -18.007  0.00  0.00    +0.149 HD
ENDBRANCH   6  13
BRANCH   7  21
ATOM     21  C   UNL     1      32.986 -24.004 -13.567  0.00  0.00    +0.169 C 
BRANCH  21  22
ATOM     22  O   UNL     1      32.193 -25.101 -13.143  0.00  0.00    -0.379 OA
ATOM     23  H   UNL     1      31.507 -25.278 -13.806  0.00  0.00    +0.211 HD
ENDBRANCH  21  22
ENDBRANCH   7  21
BRANCH   8  24
ATOM     24  C   UNL     1      38.600 -24.152 -15.510  0.00  0.00    +0.177 C 
BRANCH  24  25
ATOM     25  P   UNL     1      39.532 -25.389 -14.582  0.00  0.00    +0.342 P 
ATOM     26  O   UNL     1      40.929 -25.571 -15.063  0.00  0.00    -0.258 OA
BRANCH  25  27
ATOM     27  O   UNL     1      38.577 -26.682 -14.668  0.00  0.00    -0.323 OA
ATOM     28  H   UNL     1      38.032 -26.736 -13.867  0.00  0.00    +0.220 HD
ENDBRANCH  25  27
BRANCH  25  29
ATOM     29  O   UNL     1      39.366 -24.883 -13.062  0.00  0.00    -0.323 OA
ATOM     30  H   UNL     1      40.235 -24.856 -12.633  0.00  0.00    +0.220 HD
ENDBRANCH  25  29
ENDBRANCH  24  25
ENDBRANCH   8  24
TORSDOF 7
ENDMDL
MODEL 3
REMARK VINA RESULT:      -8.6      3.203      5.143
REMARK  Name = 5327013
REMARK  7 active torsions:
REMARK  status: ('A' for Active; 'I' for Inactive)
REMARK    1  A    between atoms: C_6  and  C_13
REMARK    2  A    between atoms: C_7  and  C_21
REMARK    3  A    between atoms: C_8  and  C_24
REMARK    4  A    between atoms: C_21  and  O_22
REMARK    5  A    between atoms: C_24  and  P_25
REMARK    6  A    between atoms: P_25  and  O_27
REMARK    7  A    between atoms: P_25  and  O_29
REMARK                            x       y       z     vdW  Elec       q    Type
REMARK                         _______ _______ _______ _____ _____    ______ ____
ROOT
ATOM      1  O   UNL     1      35.234 -25.042 -12.436  0.00  0.00    -0.347 OA
ATOM      2  O   UNL     1      36.945 -22.875 -14.662  0.00  0.00    -0.327 OA
ATOM      3  O   UNL     1      38.109 -24.168 -13.096  0.00  0.00    -0.327 OA
ATOM      4  C   UNL     1      36.114 -23.123 -13.533  0.00  0.00    +0.179 C 
ATOM      5  C   UNL     1      37.042 -23.503 -12.415  0.00  0.00    +0.177 C 
ATOM      6  C   UNL     1      35.264 -24.381 -13.720  0.00  0.00    +0.170 C 
ATOM      7  C   UNL     1      36.240 -24.473 -11.574  0.00  0.00    +0.174 C 
ATOM      8  C   UNL     1      38.210 -23.463 -14.338  0.00  0.00    +0.248 C 
ENDROOT
BRANCH   6  13
ATOM      9  O   UNL     1      30.271 -22.889 -16.855  0.00  0.00    -0.221 OA
ATOM     10  N   UNL     1      31.670 -23.864 -14.407  0.00  0.00    -0.302 N 
ATOM     11  N   UNL     1      34.328 -23.294 -16.584  0.00  0.00    -0.311 N 
ATOM     12  N   UNL     1      32.347 -22.696 -17.848  0.00  0.00    -0.179 NA
ATOM     13  C   UNL     1      33.890 -24.087 -14.254  0.00  0.00    +0.037 C 
ATOM     14  C   UNL     1      33.554 -23.609 -15.529  0.00  0.00    +0.071 C 
ATOM     15  C   UNL     1      32.700 -24.237 -13.573  0.00  0.00    +0.062 C 
ATOM     16  C   UNL     1      32.187 -23.474 -15.615  0.00  0.00    +0.146 C 
ATOM     17  C   UNL     1      31.489 -23.005 -16.792  0.00  0.00    +0.167 C 
ATOM     18  C   UNL     1      33.630 -22.849 -17.689  0.00  0.00    +0.229 C 
ATOM     19  H   UNL     1      30.715 -23.873 -14.172  0.00  0.00    +0.153 HD
ATOM     20  H   UNL     1      35.309 -23.374 -16.568  0.00  0.00    +0.149 HD
ENDBRANCH   6  13
BRANCH   7  21
ATOM     21  C   UNL     1      35.530 -23.788 -10.415  0.00  0.00    +0.169 C 
BRANCH  21  22
ATOM     22  O   UNL     1      35.273 -24.752  -9.406  0.00  0.00    -0.379 OA
ATOM     23  H   UNL     1      35.957 -24.691  -8.721  0.00  0.00    +0.211 HD
ENDBRANCH  21  22
ENDBRANCH   7  21
BRANCH   8  24
ATOM     24  C   UNL     1      38.644 -24.412 -15.438  0.00  0.00    +0.177 C 
BRANCH  24  25
ATOM     25  P   UNL     1      39.958 -25.529 -14.904  0.00  0.00    +0.342 P 
ATOM     26  O   UNL     1      40.705 -26.156 -16.030  0.00  0.00    -0.258 OA
BRANCH  25  27
ATOM     27  O   UNL     1      39.179 -26.537 -13.919  0.00  0.00    -0.323 OA
ATOM     28  H   UNL     1      38.293 -26.189 -13.735  0.00  0.00    +0.220 HD
ENDBRANCH  25  27
BRANCH  25  29
ATOM     29  O   UNL     1      40.821 -24.603 -13.909  0.00  0.00    -0.323 OA
ATOM     30  H   UNL     1      41.555 -25.119 -13.542  0.00  0.00    +0.220 HD
ENDBRANCH  25  29
ENDBRANCH  24  25
ENDBRANCH   8  24
TORSDOF 7
ENDMDL
MODEL 4
REMARK VINA RESULT:      -8.1      3.458      5.057
REMARK  Name = 5327013
REMARK  7 active torsions:
REMARK  status: ('A' for Active; 'I' for Inactive)
REMARK    1  A    between atoms: C_6  and  C_13
REMARK    2  A    between atoms: C_7  and  C_21
REMARK    3  A    between atoms: C_8  and  C_24
REMARK    4  A    between atoms: C_21  and  O_22
REMARK    5  A    between atoms: C_24  and  P_25
REMARK    6  A    between atoms: P_25  and  O_27
REMARK    7  A    between atoms: P_25  and  O_29
REMARK                            x       y       z     vdW  Elec       q    Type
REMARK                         _______ _______ _______ _____ _____    ______ ____
ROOT
ATOM      1  O   UNL     1      34.817 -25.056 -13.625  0.00  0.00    -0.347 OA
ATOM      2  O   UNL     1      37.077 -22.705 -15.022  0.00  0.00    -0.327 OA
ATOM      3  O   UNL     1      37.792 -24.290 -13.455  0.00  0.00    -0.327 OA
ATOM      4  C   UNL     1      35.992 -23.060 -14.171  0.00  0.00    +0.179 C 
ATOM      5  C   UNL     1      36.614 -23.661 -12.943  0.00  0.00    +0.177 C 
ATOM      6  C   UNL     1      35.174 -24.217 -14.746  0.00  0.00    +0.170 C 
ATOM      7  C   UNL     1      35.605 -24.688 -12.475  0.00  0.00    +0.174 C 
ATOM      8  C   UNL     1      38.209 -23.419 -14.511  0.00  0.00    +0.248 C 
ENDROOT
BRANCH   6  13
ATOM      9  O   UNL     1      29.755 -22.515 -16.918  0.00  0.00    -0.221 OA
ATOM     10  N   UNL     1      32.680 -23.027 -17.199  0.00  0.00    -0.302 N 
ATOM     11  N   UNL     1      32.117 -23.847 -13.862  0.00  0.00    -0.311 N 
ATOM     12  N   UNL     1      29.949 -23.170 -14.713  0.00  0.00    -0.179 NA
ATOM     13  C   UNL     1      33.977 -23.756 -15.530  0.00  0.00    +0.037 C 
ATOM     14  C   UNL     1      32.658 -23.618 -15.072  0.00  0.00    +0.071 C 
ATOM     15  C   UNL     1      33.966 -23.383 -16.858  0.00  0.00    +0.062 C 
ATOM     16  C   UNL     1      31.867 -23.169 -16.105  0.00  0.00    +0.146 C 
ATOM     17  C   UNL     1      30.448 -22.914 -15.990  0.00  0.00    +0.167 C 
ATOM     18  C   UNL     1      30.762 -23.594 -13.788  0.00  0.00    +0.229 C 
ATOM     19  H   UNL     1      32.391 -22.720 -18.088  0.00  0.00    +0.153 HD
ATOM     20  H   UNL     1      32.643 -24.169 -13.095  0.00  0.00    +0.149 HD
ENDBRANCH   6  13
BRANCH   7  21
ATOM     21  C   UNL     1      34.659 -24.135 -11.418  0.00  0.00    +0.169 C 
BRANCH  21  22
ATOM     22  O   UNL     1      35.195 -24.418 -10.136  0.00  0.00    -0.379 OA
ATOM     23  H   UNL     1      36.032 -23.940 -10.024  0.00  0.00    +0.211 HD
ENDBRANCH  21  22
ENDBRANCH   7  21
BRANCH   8  24
ATOM     24  C   UNL     1      38.864 -24.223 -15.617  0.00  0.00    +0.177 C 
BRANCH  24  25
ATOM     25  P   UNL     1      39.982 -25.489 -14.977  0.00  0.00    +0.342 P 
ATOM     26  O   UNL     1      40.949 -24.978 -13.966  0.00  0.00    -0.258 OA
BRANCH  25  27
ATOM     27  O   UNL     1      40.617 -26.104 -16.321  0.00  0.00    -0.323 OA
ATOM     28  H   UNL     1      40.810 -25.387 -16.946  0.00  0.00    +0.220 HD
ENDBRANCH  25  27
BRANCH  25  29
ATOM     29  O   UNL     1      38.964 -26.629 -14.471  0.00  0.00    -0.323 OA
ATOM     30  H   UNL     1      38.503 -26.321 -13.675  0.00  0.00    +0.220 HD
ENDBRANCH  25  29
ENDBRANCH  24  25
ENDBRANCH   8  24
TORSDOF 7
ENDMDL
MODEL 5
REMARK VINA RESULT:      -8.0      2.049      3.072
REMARK  Name = 5327013
REMARK  7 active torsions:
REMARK  status: ('A' for Active; 'I' for Inactive)
REMARK    1  A    between atoms: C_6  and  C_13
REMARK    2  A    between atoms: C_7  and  C_21
REMARK    3  A    between atoms: C_8  and  C_24
REMARK    4  A    between atoms: C_21  and  O_22
REMARK    5  A    between atoms: C_24  and  P_25
REMARK    6  A    between atoms: P_25  and  O_27
REMARK    7  A    between atoms: P_25  and  O_29
REMARK                            x       y       z     vdW  Elec       q    Type
REMARK                         _______ _______ _______ _____ _____    ______ ____
ROOT
ATOM      1  O   UNL     1      32.398 -24.427 -15.207  0.00  0.00    -0.347 OA
ATOM      2  O   UNL     1      35.578 -23.328 -14.084  0.00  0.00    -0.327 OA
ATOM      3  O   UNL     1      34.279 -24.791 -12.800  0.00  0.00    -0.327 OA
ATOM      4  C   UNL     1      34.199 -23.118 -14.367  0.00  0.00    +0.179 C 
ATOM      5  C   UNL     1      33.448 -23.700 -13.205  0.00  0.00    +0.177 C 
ATOM      6  C   UNL     1      33.726 -23.970 -15.546  0.00  0.00    +0.170 C 
ATOM      7  C   UNL     1      32.150 -24.196 -13.806  0.00  0.00    +0.174 C 
ATOM      8  C   UNL     1      35.607 -24.316 -13.047  0.00  0.00    +0.248 C 
ENDROOT
BRANCH   6  13
ATOM      9  O   UNL     1      35.010 -20.776 -20.559  0.00  0.00    -0.221 OA
ATOM     10  N   UNL     1      33.168 -22.352 -18.822  0.00  0.00    -0.302 N 
ATOM     11  N   UNL     1      36.117 -22.383 -16.969  0.00  0.00    -0.311 N 
ATOM     12  N   UNL     1      36.645 -21.107 -18.963  0.00  0.00    -0.179 NA
ATOM     13  C   UNL     1      33.769 -23.233 -16.856  0.00  0.00    +0.037 C 
ATOM     14  C   UNL     1      34.861 -22.556 -17.419  0.00  0.00    +0.071 C 
ATOM     15  C   UNL     1      32.726 -23.091 -17.748  0.00  0.00    +0.062 C 
ATOM     16  C   UNL     1      34.483 -22.017 -18.628  0.00  0.00    +0.146 C 
ATOM     17  C   UNL     1      35.360 -21.251 -19.486  0.00  0.00    +0.167 C 
ATOM     18  C   UNL     1      36.926 -21.647 -17.812  0.00  0.00    +0.229 C 
ATOM     19  H   UNL     1      32.626 -22.102 -19.603  0.00  0.00    +0.153 HD
ATOM     20  H   UNL     1      36.432 -22.749 -16.112  0.00  0.00    +0.149 HD
ENDBRANCH   6  13
BRANCH   7  21
ATOM     21  C   UNL     1      31.029 -23.172 -13.693  0.00  0.00    +0.169 C 
BRANCH  21  22
ATOM     22  O   UNL     1      30.405 -23.039 -14.960  0.00  0.00    -0.379 OA
ATOM     23  H   UNL     1      30.638 -22.180 -15.345  0.00  0.00    +0.211 HD
ENDBRANCH  21  22
ENDBRANCH   7  21
BRANCH   8  24
ATOM     24  C   UNL     1      36.504 -25.470 -13.447  0.00  0.00    +0.177 C 
BRANCH  24  25
ATOM     25  P   UNL     1      38.172 -24.928 -13.877  0.00  0.00    +0.342 P 
ATOM     26  O   UNL     1      39.206 -25.986 -13.710  0.00  0.00    -0.258 OA
BRANCH  25  27
ATOM     27  O   UNL     1      38.353 -23.609 -12.973  0.00  0.00    -0.323 OA
ATOM     28  H   UNL     1      38.917 -22.972 -13.439  0.00  0.00    +0.220 HD
ENDBRANCH  25  27
BRANCH  25  29
ATOM     29  O   UNL     1      37.978 -24.354 -15.369  0.00  0.00    -0.323 OA
ATOM     30  H   UNL     1      37.977 -23.385 -15.344  0.00  0.00    +0.220 HD
ENDBRANCH  25  29
ENDBRANCH  24  25
ENDBRANCH   8  24
TORSDOF 7
ENDMDL
MODEL 6
REMARK VINA RESULT:      -7.9      9.368     13.001
REMARK  Name = 5327013
REMARK  7 active torsions:
REMARK  status: ('A' for Active; 'I' for Inactive)
REMARK    1  A    between atoms: C_6  and  C_13
REMARK    2  A    between atoms: C_7  and  C_21
REMARK    3  A    between atoms: C_8  and  C_24
REMARK    4  A    between atoms: C_21  and  O_22
REMARK    5  A    between atoms: C_24  and  P_25
REMARK    6  A    between atoms: P_25  and  O_27
REMARK    7  A    between atoms: P_25  and  O_29
REMARK                            x       y       z     vdW  Elec       q    Type
REMARK                         _______ _______ _______ _____ _____    ______ ____
ROOT
ATOM      1  O   UNL     1      32.073 -14.571 -21.429  0.00  0.00    -0.347 OA
ATOM      2  O   UNL     1      33.986 -13.331 -24.148  0.00  0.00    -0.327 OA
ATOM      3  O   UNL     1      33.540 -15.618 -23.923  0.00  0.00    -0.327 OA
ATOM      4  C   UNL     1      33.810 -13.652 -22.772  0.00  0.00    +0.179 C 
ATOM      5  C   UNL     1      34.020 -15.135 -22.666  0.00  0.00    +0.177 C 
ATOM      6  C   UNL     1      32.357 -13.477 -22.329  0.00  0.00    +0.170 C 
ATOM      7  C   UNL     1      33.114 -15.564 -21.532  0.00  0.00    +0.174 C 
ATOM      8  C   UNL     1      33.895 -14.580 -24.843  0.00  0.00    +0.248 C 
ENDROOT
BRANCH   6  13
ATOM      9  O   UNL     1      31.685  -7.619 -20.838  0.00  0.00    -0.221 OA
ATOM     10  N   UNL     1      31.482 -10.540 -20.264  0.00  0.00    -0.302 N 
ATOM     11  N   UNL     1      32.798 -10.523 -23.488  0.00  0.00    -0.311 N 
ATOM     12  N   UNL     1      32.535  -8.183 -22.909  0.00  0.00    -0.179 NA
ATOM     13  C   UNL     1      32.090 -12.133 -21.711  0.00  0.00    +0.037 C 
ATOM     14  C   UNL     1      32.310 -10.871 -22.284  0.00  0.00    +0.071 C 
ATOM     15  C   UNL     1      31.575 -11.901 -20.452  0.00  0.00    +0.062 C 
ATOM     16  C   UNL     1      31.933  -9.897 -21.387  0.00  0.00    +0.146 C 
ATOM     17  C   UNL     1      32.023  -8.477 -21.645  0.00  0.00    +0.167 C 
ATOM     18  C   UNL     1      32.870  -9.161 -23.701  0.00  0.00    +0.229 C 
ATOM     19  H   UNL     1      31.147 -10.099 -19.451  0.00  0.00    +0.153 HD
ATOM     20  H   UNL     1      33.079 -11.185 -24.161  0.00  0.00    +0.149 HD
ENDBRANCH   6  13
BRANCH   7  21
ATOM     21  C   UNL     1      33.840 -15.619 -20.195  0.00  0.00    +0.169 C 
BRANCH  21  22
ATOM     22  O   UNL     1      35.042 -16.353 -20.362  0.00  0.00    -0.379 OA
ATOM     23  H   UNL     1      35.226 -16.858 -19.554  0.00  0.00    +0.211 HD
ENDBRANCH  21  22
ENDBRANCH   7  21
BRANCH   8  24
ATOM     24  C   UNL     1      32.861 -14.491 -25.947  0.00  0.00    +0.177 C 
BRANCH  24  25
ATOM     25  P   UNL     1      33.260 -13.217 -27.163  0.00  0.00    +0.342 P 
ATOM     26  O   UNL     1      34.416 -13.565 -28.035  0.00  0.00    -0.258 OA
BRANCH  25  27
ATOM     27  O   UNL     1      33.430 -11.904 -26.248  0.00  0.00    -0.323 OA
ATOM     28  H   UNL     1      32.660 -11.813 -25.665  0.00  0.00    +0.220 HD
ENDBRANCH  25  27
BRANCH  25  29
ATOM     29  O   UNL     1      31.851 -12.992 -27.909  0.00  0.00    -0.323 OA
ATOM     30  H   UNL     1      31.425 -12.193 -27.561  0.00  0.00    +0.220 HD
ENDBRANCH  25  29
ENDBRANCH  24  25
ENDBRANCH   8  24
TORSDOF 7
ENDMDL
MODEL 7
REMARK VINA RESULT:      -7.7      9.281     12.692
REMARK  Name = 5327013
REMARK  7 active torsions:
REMARK  status: ('A' for Active; 'I' for Inactive)
REMARK    1  A    between atoms: C_6  and  C_13
REMARK    2  A    between atoms: C_7  and  C_21
REMARK    3  A    between atoms: C_8  and  C_24
REMARK    4  A    between atoms: C_21  and  O_22
REMARK    5  A    between atoms: C_24  and  P_25
REMARK    6  A    between atoms: P_25  and  O_27
REMARK    7  A    between atoms: P_25  and  O_29
REMARK                            x       y       z     vdW  Elec       q    Type
REMARK                         _______ _______ _______ _____ _____    ______ ____
ROOT
ATOM      1  O   UNL     1      33.972 -12.260 -25.523  0.00  0.00    -0.347 OA
ATOM      2  O   UNL     1      32.877 -14.633 -23.125  0.00  0.00    -0.327 OA
ATOM      3  O   UNL     1      34.066 -15.295 -25.029  0.00  0.00    -0.327 OA
ATOM      4  C   UNL     1      32.644 -13.708 -24.182  0.00  0.00    +0.179 C 
ATOM      5  C   UNL     1      33.008 -14.429 -25.447  0.00  0.00    +0.177 C 
ATOM      6  C   UNL     1      33.637 -12.545 -24.148  0.00  0.00    +0.170 C 
ATOM      7  C   UNL     1      33.523 -13.340 -26.366  0.00  0.00    +0.174 C 
ATOM      8  C   UNL     1      33.700 -15.659 -23.694  0.00  0.00    +0.248 C 
ENDROOT
BRANCH   6  13
ATOM      9  O   UNL     1      32.343  -7.107 -21.753  0.00  0.00    -0.221 OA
ATOM     10  N   UNL     1      31.874 -10.034 -22.089  0.00  0.00    -0.302 N 
ATOM     11  N   UNL     1      34.601  -9.490 -24.185  0.00  0.00    -0.311 N 
ATOM     12  N   UNL     1      34.097  -7.315 -23.240  0.00  0.00    -0.179 NA
ATOM     13  C   UNL     1      33.106 -11.342 -23.418  0.00  0.00    +0.037 C 
ATOM     14  C   UNL     1      33.584 -10.025 -23.485  0.00  0.00    +0.071 C 
ATOM     15  C   UNL     1      32.041 -11.323 -22.542  0.00  0.00    +0.062 C 
ATOM     16  C   UNL     1      32.820  -9.226 -22.664  0.00  0.00    +0.146 C 
ATOM     17  C   UNL     1      33.030  -7.806 -22.488  0.00  0.00    +0.167 C 
ATOM     18  C   UNL     1      34.773  -8.134 -23.992  0.00  0.00    +0.229 C 
ATOM     19  H   UNL     1      31.184  -9.739 -21.452  0.00  0.00    +0.153 HD
ATOM     20  H   UNL     1      35.173 -10.022 -24.784  0.00  0.00    +0.149 HD
ENDBRANCH   6  13
BRANCH   7  21
ATOM     21  C   UNL     1      32.439 -12.796 -27.286  0.00  0.00    +0.169 C 
BRANCH  21  22
ATOM     22  O   UNL     1      31.458 -13.802 -27.478  0.00  0.00    -0.379 OA
ATOM     23  H   UNL     1      31.771 -14.434 -28.144  0.00  0.00    +0.211 HD
ENDBRANCH  21  22
ENDBRANCH   7  21
BRANCH   8  24
ATOM     24  C   UNL     1      34.944 -15.860 -22.852  0.00  0.00    +0.177 C 
BRANCH  24  25
ATOM     25  P   UNL     1      34.565 -16.022 -21.094  0.00  0.00    +0.342 P 
ATOM     26  O   UNL     1      34.919 -14.818 -20.293  0.00  0.00    -0.258 OA
BRANCH  25  27
ATOM     27  O   UNL     1      35.324 -17.386 -20.699  0.00  0.00    -0.323 OA
ATOM     28  H   UNL     1      35.606 -17.845 -21.506  0.00  0.00    +0.220 HD
ENDBRANCH  25  27
BRANCH  25  29
ATOM     29  O   UNL     1      33.009 -16.433 -21.109  0.00  0.00    -0.323 OA
ATOM     30  H   UNL     1      32.471 -15.655 -21.325  0.00  0.00    +0.220 HD
ENDBRANCH  25  29
ENDBRANCH  24  25
ENDBRANCH   8  24
TORSDOF 7
ENDMDL
MODEL 8
REMARK VINA RESULT:      -7.6     12.929     17.428
REMARK  Name = 5327013
REMARK  7 active torsions:
REMARK  status: ('A' for Active; 'I' for Inactive)
REMARK    1  A    between atoms: C_6  and  C_13
REMARK    2  A    between atoms: C_7  and  C_21
REMARK    3  A    between atoms: C_8  and  C_24
REMARK    4  A    between atoms: C_21  and  O_22
REMARK    5  A    between atoms: C_24  and  P_25
REMARK    6  A    between atoms: P_25  and  O_27
REMARK    7  A    between atoms: P_25  and  O_29
REMARK                            x       y       z     vdW  Elec       q    Type
REMARK                         _______ _______ _______ _____ _____    ______ ____
ROOT
ATOM      1  O   UNL     1      33.468  -7.526 -21.630  0.00  0.00    -0.347 OA
ATOM      2  O   UNL     1      31.261  -6.901 -24.335  0.00  0.00    -0.327 OA
ATOM      3  O   UNL     1      31.611  -5.301 -22.663  0.00  0.00    -0.327 OA
ATOM      4  C   UNL     1      31.611  -7.550 -23.117  0.00  0.00    +0.179 C 
ATOM      5  C   UNL     1      31.339  -6.553 -22.028  0.00  0.00    +0.177 C 
ATOM      6  C   UNL     1      33.119  -7.777 -23.009  0.00  0.00    +0.170 C 
ATOM      7  C   UNL     1      32.372  -6.864 -20.966  0.00  0.00    +0.174 C 
ATOM      8  C   UNL     1      31.186  -5.507 -24.015  0.00  0.00    +0.248 C 
ENDROOT
BRANCH   6  13
ATOM      9  O   UNL     1      33.971 -13.680 -24.197  0.00  0.00    -0.221 OA
ATOM     10  N   UNL     1      34.628 -10.789 -24.527  0.00  0.00    -0.302 N 
ATOM     11  N   UNL     1      31.979 -10.678 -22.269  0.00  0.00    -0.311 N 
ATOM     12  N   UNL     1      32.306 -13.036 -22.733  0.00  0.00    -0.179 NA
ATOM     13  C   UNL     1      33.541  -9.143 -23.475  0.00  0.00    +0.037 C 
ATOM     14  C   UNL     1      32.991 -10.379 -23.104  0.00  0.00    +0.071 C 
ATOM     15  C   UNL     1      34.560  -9.424 -24.361  0.00  0.00    +0.062 C 
ATOM     16  C   UNL     1      33.665 -11.387 -23.756  0.00  0.00    +0.146 C 
ATOM     17  C   UNL     1      33.362 -12.793 -23.611  0.00  0.00    +0.167 C 
ATOM     18  C   UNL     1      31.718 -12.029 -22.154  0.00  0.00    +0.229 C 
ATOM     19  H   UNL     1      35.268 -11.262 -25.106  0.00  0.00    +0.153 HD
ATOM     20  H   UNL     1      31.469  -9.992 -21.782  0.00  0.00    +0.149 HD
ENDBRANCH   6  13
BRANCH   7  21
ATOM     21  C   UNL     1      31.839  -7.803 -19.894  0.00  0.00    +0.169 C 
BRANCH  21  22
ATOM     22  O   UNL     1      32.763  -8.864 -19.718  0.00  0.00    -0.379 OA
ATOM     23  H   UNL     1      33.054  -9.186 -20.586  0.00  0.00    +0.211 HD
ENDBRANCH  21  22
ENDBRANCH   7  21
BRANCH   8  24
ATOM     24  C   UNL     1      32.058  -4.704 -24.960  0.00  0.00    +0.177 C 
BRANCH  24  25
ATOM     25  P   UNL     1      31.648  -2.946 -24.948  0.00  0.00    +0.342 P 
ATOM     26  O   UNL     1      32.381  -2.153 -25.973  0.00  0.00    -0.258 OA
BRANCH  25  27
ATOM     27  O   UNL     1      31.909  -2.537 -23.413  0.00  0.00    -0.323 OA
ATOM     28  H   UNL     1      31.335  -1.793 -23.174  0.00  0.00    +0.220 HD
ENDBRANCH  25  27
BRANCH  25  29
ATOM     29  O   UNL     1      30.043  -2.961 -25.078  0.00  0.00    -0.323 OA
ATOM     30  H   UNL     1      29.662  -2.324 -24.455  0.00  0.00    +0.220 HD
ENDBRANCH  25  29
ENDBRANCH  24  25
ENDBRANCH   8  24
TORSDOF 7
ENDMDL
MODEL 9
REMARK VINA RESULT:      -7.4     10.228     12.537
REMARK  Name = 5327013
REMARK  7 active torsions:
REMARK  status: ('A' for Active; 'I' for Inactive)
REMARK    1  A    between atoms: C_6  and  C_13
REMARK    2  A    between atoms: C_7  and  C_21
REMARK    3  A    between atoms: C_8  and  C_24
REMARK    4  A    between atoms: C_21  and  O_22
REMARK    5  A    between atoms: C_24  and  P_25
REMARK    6  A    between atoms: P_25  and  O_27
REMARK    7  A    between atoms: P_25  and  O_29
REMARK                            x       y       z     vdW  Elec       q    Type
REMARK                         _______ _______ _______ _____ _____    ______ ____
ROOT
ATOM      1  O   UNL     1      31.733 -12.060 -22.549  0.00  0.00    -0.347 OA
ATOM      2  O   UNL     1      34.573 -14.136 -23.006  0.00  0.00    -0.327 OA
ATOM      3  O   UNL     1      32.550 -15.007 -22.212  0.00  0.00    -0.327 OA
ATOM      4  C   UNL     1      33.851 -13.120 -22.317  0.00  0.00    +0.179 C 
ATOM      5  C   UNL     1      32.859 -13.838 -21.448  0.00  0.00    +0.177 C 
ATOM      6  C   UNL     1      32.961 -12.315 -23.265  0.00  0.00    +0.170 C 
ATOM      7  C   UNL     1      31.672 -12.900 -21.379  0.00  0.00    +0.174 C 
ATOM      8  C   UNL     1      33.786 -15.324 -22.860  0.00  0.00    +0.248 C 
ENDROOT
BRANCH   6  13
ATOM      9  O   UNL     1      34.941  -6.692 -24.468  0.00  0.00    -0.221 OA
ATOM     10  N   UNL     1      34.920  -9.643 -24.902  0.00  0.00    -0.302 N 
ATOM     11  N   UNL     1      32.558  -9.265 -22.371  0.00  0.00    -0.311 N 
ATOM     12  N   UNL     1      33.338  -7.017 -22.839  0.00  0.00    -0.179 NA
ATOM     13  C   UNL     1      33.618 -11.055 -23.758  0.00  0.00    +0.037 C 
ATOM     14  C   UNL     1      33.389  -9.744 -23.315  0.00  0.00    +0.071 C 
ATOM     15  C   UNL     1      34.575 -10.967 -24.747  0.00  0.00    +0.062 C 
ATOM     16  C   UNL     1      34.194  -8.881 -24.025  0.00  0.00    +0.146 C 
ATOM     17  C   UNL     1      34.220  -7.449 -23.829  0.00  0.00    +0.167 C 
ATOM     18  C   UNL     1      32.609  -7.894 -22.212  0.00  0.00    +0.229 C 
ATOM     19  H   UNL     1      35.582  -9.298 -25.544  0.00  0.00    +0.153 HD
ATOM     20  H   UNL     1      31.965  -9.843 -21.840  0.00  0.00    +0.149 HD
ENDBRANCH   6  13
BRANCH   7  21
ATOM     21  C   UNL     1      31.714 -11.999 -20.153  0.00  0.00    +0.169 C 
BRANCH  21  22
ATOM     22  O   UNL     1      30.896 -10.866 -20.393  0.00  0.00    -0.379 OA
ATOM     23  H   UNL     1      30.095 -10.926 -19.850  0.00  0.00    +0.211 HD
ENDBRANCH  21  22
ENDBRANCH   7  21
BRANCH   8  24
ATOM     24  C   UNL     1      33.515 -15.942 -24.218  0.00  0.00    +0.177 C 
BRANCH  24  25
ATOM     25  P   UNL     1      34.702 -17.240 -24.632  0.00  0.00    +0.342 P 
ATOM     26  O   UNL     1      34.098 -18.598 -24.715  0.00  0.00    -0.258 OA
BRANCH  25  27
ATOM     27  O   UNL     1      35.844 -17.036 -23.516  0.00  0.00    -0.323 OA
ATOM     28  H   UNL     1      36.624 -16.627 -23.921  0.00  0.00    +0.220 HD
ENDBRANCH  25  27
BRANCH  25  29
ATOM     29  O   UNL     1      35.374 -16.679 -25.983  0.00  0.00    -0.323 OA
ATOM     30  H   UNL     1      34.719 -16.168 -26.483  0.00  0.00    +0.220 HD
ENDBRANCH  25  29
ENDBRANCH  24  25
ENDBRANCH   8  24
TORSDOF 7
ENDMDL
