MODEL 1
REMARK VINA RESULT:      -8.6      0.000      0.000
REMARK  Name = 708346
REMARK  1 active torsions:
REMARK  status: ('A' for Active; 'I' for Inactive)
REMARK    1  A    between atoms: N_2  and  C_17
REMARK                            x       y       z     vdW  Elec       q    Type
REMARK                         _______ _______ _______ _____ _____    ______ ____
ROOT
ATOM      1  O   UNL     1      35.113 -16.512 -20.307  0.00  0.00    -0.267 OA
ATOM      2  N   UNL     1      34.292 -15.230 -22.090  0.00  0.00    -0.295 N 
ATOM      3  N   UNL     1      35.320 -19.420 -23.394  0.00  0.00    -0.280 N 
ATOM      4  N   UNL     1      34.842 -18.640 -24.382  0.00  0.00    -0.173 NA
ATOM      5  C   UNL     1      34.946 -17.521 -22.400  0.00  0.00    +0.088 A 
ATOM      6  C   UNL     1      33.936 -15.144 -23.499  0.00  0.00    +0.064 A 
ATOM      7  C   UNL     1      34.092 -16.262 -24.354  0.00  0.00    +0.035 A 
ATOM      8  C   UNL     1      34.614 -17.474 -23.766  0.00  0.00    +0.108 A 
ATOM      9  C   UNL     1      34.805 -16.409 -21.492  0.00  0.00    +0.263 A 
ATOM     10  C   UNL     1      35.404 -18.796 -22.182  0.00  0.00    +0.058 A 
ATOM     11  C   UNL     1      33.431 -13.958 -24.058  0.00  0.00    +0.017 C 
ATOM     12  C   UNL     1      33.752 -16.189 -25.711  0.00  0.00    +0.003 C 
ATOM     13  C   UNL     1      35.904 -19.488 -20.983  0.00  0.00    +0.052 C 
ATOM     14  C   UNL     1      33.094 -13.889 -25.413  0.00  0.00    +0.001 C 
ATOM     15  C   UNL     1      33.253 -15.000 -26.236  0.00  0.00    +0.000 C 
ATOM     16  H   UNL     1      35.586 -20.357 -23.533  0.00  0.00    +0.189 HD
ENDROOT
BRANCH   2  17
ATOM     17  C   UNL     1      34.112 -14.046 -21.254  0.00  0.00    +0.109 C 
ATOM     18  C   UNL     1      32.740 -14.066 -20.607  0.00  0.00    +0.027 C 
ENDBRANCH   2  17
TORSDOF 1
ENDMDL
MODEL 2
REMARK VINA RESULT:      -8.4      2.085      4.370
REMARK  Name = 708346
REMARK  1 active torsions:
REMARK  status: ('A' for Active; 'I' for Inactive)
REMARK    1  A    between atoms: N_2  and  C_17
REMARK                            x       y       z     vdW  Elec       q    Type
REMARK                         _______ _______ _______ _____ _____    ______ ____
ROOT
ATOM      1  O   UNL     1      33.664 -13.014 -22.760  0.00  0.00    -0.267 OA
ATOM      2  N   UNL     1      34.211 -15.270 -22.435  0.00  0.00    -0.295 N 
ATOM      3  N   UNL     1      33.347 -14.378 -26.768  0.00  0.00    -0.280 N 
ATOM      4  N   UNL     1      33.668 -15.663 -26.526  0.00  0.00    -0.173 NA
ATOM      5  C   UNL     1      33.687 -14.416 -24.619  0.00  0.00    +0.088 A 
ATOM      6  C   UNL     1      34.415 -16.594 -23.005  0.00  0.00    +0.064 A 
ATOM      7  C   UNL     1      34.251 -16.817 -24.393  0.00  0.00    +0.035 A 
ATOM      8  C   UNL     1      33.877 -15.681 -25.205  0.00  0.00    +0.108 A 
ATOM      9  C   UNL     1      33.843 -14.142 -23.212  0.00  0.00    +0.263 A 
ATOM     10  C   UNL     1      33.344 -13.585 -25.656  0.00  0.00    +0.058 A 
ATOM     11  C   UNL     1      34.778 -17.690 -22.205  0.00  0.00    +0.017 C 
ATOM     12  C   UNL     1      34.446 -18.087 -24.951  0.00  0.00    +0.003 C 
ATOM     13  C   UNL     1      33.016 -12.151 -25.723  0.00  0.00    +0.052 C 
ATOM     14  C   UNL     1      34.971 -18.956 -22.765  0.00  0.00    +0.001 C 
ATOM     15  C   UNL     1      34.807 -19.153 -24.133  0.00  0.00    +0.000 C 
ATOM     16  H   UNL     1      33.133 -14.039 -27.667  0.00  0.00    +0.189 HD
ENDROOT
BRANCH   2  17
ATOM     17  C   UNL     1      34.393 -15.096 -20.996  0.00  0.00    +0.109 C 
ATOM     18  C   UNL     1      33.050 -15.121 -20.293  0.00  0.00    +0.027 C 
ENDBRANCH   2  17
TORSDOF 1
ENDMDL
MODEL 3
REMARK VINA RESULT:      -8.2      8.755     10.798
REMARK  Name = 708346
REMARK  1 active torsions:
REMARK  status: ('A' for Active; 'I' for Inactive)
REMARK    1  A    between atoms: N_2  and  C_17
REMARK                            x       y       z     vdW  Elec       q    Type
REMARK                         _______ _______ _______ _____ _____    ______ ____
ROOT
ATOM      1  O   UNL     1      33.115 -24.429 -13.128  0.00  0.00    -0.267 OA
ATOM      2  N   UNL     1      33.265 -23.677 -15.344  0.00  0.00    -0.295 N 
ATOM      3  N   UNL     1      37.209 -23.305 -13.194  0.00  0.00    -0.280 N 
ATOM      4  N   UNL     1      37.240 -22.886 -14.474  0.00  0.00    -0.173 NA
ATOM      5  C   UNL     1      35.171 -23.635 -13.881  0.00  0.00    +0.088 A 
ATOM      6  C   UNL     1      34.076 -23.116 -16.413  0.00  0.00    +0.064 A 
ATOM      7  C   UNL     1      35.444 -22.816 -16.202  0.00  0.00    +0.035 A 
ATOM      8  C   UNL     1      35.985 -23.091 -14.891  0.00  0.00    +0.108 A 
ATOM      9  C   UNL     1      33.774 -23.956 -14.050  0.00  0.00    +0.263 A 
ATOM     10  C   UNL     1      35.988 -23.764 -12.787  0.00  0.00    +0.058 A 
ATOM     11  C   UNL     1      33.537 -22.852 -17.683  0.00  0.00    +0.017 C 
ATOM     12  C   UNL     1      36.233 -22.275 -17.226  0.00  0.00    +0.003 C 
ATOM     13  C   UNL     1      35.761 -24.263 -11.421  0.00  0.00    +0.052 C 
ATOM     14  C   UNL     1      34.327 -22.312 -18.701  0.00  0.00    +0.001 C 
ATOM     15  C   UNL     1      35.670 -22.026 -18.474  0.00  0.00    +0.000 C 
ATOM     16  H   UNL     1      37.996 -23.281 -12.604  0.00  0.00    +0.189 HD
ENDROOT
BRANCH   2  17
ATOM     17  C   UNL     1      31.859 -23.967 -15.615  0.00  0.00    +0.109 C 
ATOM     18  C   UNL     1      30.986 -22.827 -15.129  0.00  0.00    +0.027 C 
ENDBRANCH   2  17
TORSDOF 1
ENDMDL
MODEL 4
REMARK VINA RESULT:      -8.2      7.241     10.421
REMARK  Name = 708346
REMARK  1 active torsions:
REMARK  status: ('A' for Active; 'I' for Inactive)
REMARK    1  A    between atoms: N_2  and  C_17
REMARK                            x       y       z     vdW  Elec       q    Type
REMARK                         _______ _______ _______ _____ _____    ______ ____
ROOT
ATOM      1  O   UNL     1      36.787 -22.688 -16.651  0.00  0.00    -0.267 OA
ATOM      2  N   UNL     1      34.967 -23.452 -15.385  0.00  0.00    -0.295 N 
ATOM      3  N   UNL     1      33.657 -21.907 -19.412  0.00  0.00    -0.280 N 
ATOM      4  N   UNL     1      32.649 -22.359 -18.643  0.00  0.00    -0.173 NA
ATOM      5  C   UNL     1      34.661 -22.554 -17.593  0.00  0.00    +0.088 A 
ATOM      6  C   UNL     1      33.533 -23.676 -15.280  0.00  0.00    +0.064 A 
ATOM      7  C   UNL     1      32.667 -23.332 -16.347  0.00  0.00    +0.035 A 
ATOM      8  C   UNL     1      33.270 -22.756 -17.527  0.00  0.00    +0.108 A 
ATOM      9  C   UNL     1      35.581 -22.889 -16.533  0.00  0.00    +0.263 A 
ATOM     10  C   UNL     1      34.889 -22.001 -18.828  0.00  0.00    +0.058 A 
ATOM     11  C   UNL     1      32.959 -24.236 -14.127  0.00  0.00    +0.017 C 
ATOM     12  C   UNL     1      31.285 -23.544 -16.256  0.00  0.00    +0.003 C 
ATOM     13  C   UNL     1      36.112 -21.555 -19.515  0.00  0.00    +0.052 C 
ATOM     14  C   UNL     1      31.580 -24.445 -14.040  0.00  0.00    +0.001 C 
ATOM     15  C   UNL     1      30.746 -24.101 -15.100  0.00  0.00    +0.000 C 
ATOM     16  H   UNL     1      33.520 -21.540 -20.315  0.00  0.00    +0.189 HD
ENDROOT
BRANCH   2  17
ATOM     17  C   UNL     1      35.814 -23.824 -14.255  0.00  0.00    +0.109 C 
ATOM     18  C   UNL     1      36.365 -25.223 -14.453  0.00  0.00    +0.027 C 
ENDBRANCH   2  17
TORSDOF 1
ENDMDL
MODEL 5
REMARK VINA RESULT:      -8.1      1.968      3.678
REMARK  Name = 708346
REMARK  1 active torsions:
REMARK  status: ('A' for Active; 'I' for Inactive)
REMARK    1  A    between atoms: N_2  and  C_17
REMARK                            x       y       z     vdW  Elec       q    Type
REMARK                         _______ _______ _______ _____ _____    ______ ____
ROOT
ATOM      1  O   UNL     1      35.007 -16.591 -25.017  0.00  0.00    -0.267 OA
ATOM      2  N   UNL     1      33.727 -14.848 -24.110  0.00  0.00    -0.295 N 
ATOM      3  N   UNL     1      35.326 -17.578 -20.900  0.00  0.00    -0.280 N 
ATOM      4  N   UNL     1      34.583 -16.558 -20.432  0.00  0.00    -0.173 NA
ATOM      5  C   UNL     1      34.748 -16.508 -22.704  0.00  0.00    +0.088 A 
ATOM      6  C   UNL     1      33.174 -14.195 -22.933  0.00  0.00    +0.064 A 
ATOM      7  C   UNL     1      33.418 -14.712 -21.637  0.00  0.00    +0.035 A 
ATOM      8  C   UNL     1      34.230 -15.903 -21.544  0.00  0.00    +0.108 A 
ATOM      9  C   UNL     1      34.527 -16.017 -24.042  0.00  0.00    +0.263 A 
ATOM     10  C   UNL     1      35.457 -17.595 -22.259  0.00  0.00    +0.058 A 
ATOM     11  C   UNL     1      32.385 -13.037 -23.037  0.00  0.00    +0.017 C 
ATOM     12  C   UNL     1      32.891 -14.089 -20.498  0.00  0.00    +0.003 C 
ATOM     13  C   UNL     1      36.233 -18.636 -22.954  0.00  0.00    +0.052 C 
ATOM     14  C   UNL     1      31.860 -12.420 -21.899  0.00  0.00    +0.001 C 
ATOM     15  C   UNL     1      32.113 -12.943 -20.634  0.00  0.00    +0.000 C 
ATOM     16  H   UNL     1      35.739 -18.253 -20.314  0.00  0.00    +0.189 HD
ENDROOT
BRANCH   2  17
ATOM     17  C   UNL     1      33.444 -14.273 -25.422  0.00  0.00    +0.109 C 
ATOM     18  C   UNL     1      32.739 -15.290 -26.298  0.00  0.00    +0.027 C 
ENDBRANCH   2  17
TORSDOF 1
ENDMDL
MODEL 6
REMARK VINA RESULT:      -8.1      5.043      8.863
REMARK  Name = 708346
REMARK  1 active torsions:
REMARK  status: ('A' for Active; 'I' for Inactive)
REMARK    1  A    between atoms: N_2  and  C_17
REMARK                            x       y       z     vdW  Elec       q    Type
REMARK                         _______ _______ _______ _____ _____    ______ ____
ROOT
ATOM      1  O   UNL     1      32.781 -21.925 -19.823  0.00  0.00    -0.267 OA
ATOM      2  N   UNL     1      33.922 -22.747 -17.947  0.00  0.00    -0.295 N 
ATOM      3  N   UNL     1      36.464 -19.870 -20.308  0.00  0.00    -0.280 N 
ATOM      4  N   UNL     1      37.073 -20.372 -19.218  0.00  0.00    -0.173 NA
ATOM      5  C   UNL     1      34.957 -21.184 -19.450  0.00  0.00    +0.088 A 
ATOM      6  C   UNL     1      35.133 -22.768 -17.140  0.00  0.00    +0.064 A 
ATOM      7  C   UNL     1      36.257 -21.986 -17.501  0.00  0.00    +0.035 A 
ATOM      8  C   UNL     1      36.143 -21.179 -18.694  0.00  0.00    +0.108 A 
ATOM      9  C   UNL     1      33.788 -21.963 -19.121  0.00  0.00    +0.263 A 
ATOM     10  C   UNL     1      35.190 -20.326 -20.495  0.00  0.00    +0.058 A 
ATOM     11  C   UNL     1      35.230 -23.558 -15.982  0.00  0.00    +0.017 C 
ATOM     12  C   UNL     1      37.426 -21.999 -16.729  0.00  0.00    +0.003 C 
ATOM     13  C   UNL     1      34.366 -19.889 -21.634  0.00  0.00    +0.052 C 
ATOM     14  C   UNL     1      36.399 -23.569 -15.216  0.00  0.00    +0.001 C 
ATOM     15  C   UNL     1      37.492 -22.791 -15.587  0.00  0.00    +0.000 C 
ATOM     16  H   UNL     1      36.899 -19.231 -20.918  0.00  0.00    +0.189 HD
ENDROOT
BRANCH   2  17
ATOM     17  C   UNL     1      32.793 -23.574 -17.529  0.00  0.00    +0.109 C 
ATOM     18  C   UNL     1      31.814 -22.749 -16.716  0.00  0.00    +0.027 C 
ENDBRANCH   2  17
TORSDOF 1
ENDMDL
MODEL 7
REMARK VINA RESULT:      -8.1      4.694      6.640
REMARK  Name = 708346
REMARK  1 active torsions:
REMARK  status: ('A' for Active; 'I' for Inactive)
REMARK    1  A    between atoms: N_2  and  C_17
REMARK                            x       y       z     vdW  Elec       q    Type
REMARK                         _______ _______ _______ _____ _____    ______ ____
ROOT
ATOM      1  O   UNL     1      31.775 -13.029 -21.846  0.00  0.00    -0.267 OA
ATOM      2  N   UNL     1      31.780 -10.696 -21.613  0.00  0.00    -0.295 N 
ATOM      3  N   UNL     1      34.403 -12.029 -25.027  0.00  0.00    -0.280 N 
ATOM      4  N   UNL     1      34.369 -10.695 -24.850  0.00  0.00    -0.173 NA
ATOM      5  C   UNL     1      33.064 -11.780 -23.330  0.00  0.00    +0.088 A 
ATOM      6  C   UNL     1      32.256  -9.401 -22.078  0.00  0.00    +0.064 A 
ATOM      7  C   UNL     1      33.143  -9.310 -23.178  0.00  0.00    +0.035 A 
ATOM      8  C   UNL     1      33.545 -10.547 -23.807  0.00  0.00    +0.108 A 
ATOM      9  C   UNL     1      32.160 -11.922 -22.215  0.00  0.00    +0.263 A 
ATOM     10  C   UNL     1      33.636 -12.729 -24.140  0.00  0.00    +0.058 A 
ATOM     11  C   UNL     1      31.858  -8.206 -21.457  0.00  0.00    +0.017 C 
ATOM     12  C   UNL     1      33.607  -8.068 -23.632  0.00  0.00    +0.003 C 
ATOM     13  C   UNL     1      33.548 -14.198 -24.177  0.00  0.00    +0.052 C 
ATOM     14  C   UNL     1      32.324  -6.970 -21.913  0.00  0.00    +0.001 C 
ATOM     15  C   UNL     1      33.194  -6.901 -22.997  0.00  0.00    +0.000 C 
ATOM     16  H   UNL     1      34.934 -12.462 -25.734  0.00  0.00    +0.189 HD
ENDROOT
BRANCH   2  17
ATOM     17  C   UNL     1      30.866 -10.733 -20.474  0.00  0.00    +0.109 C 
ATOM     18  C   UNL     1      31.647 -10.887 -19.183  0.00  0.00    +0.027 C 
ENDBRANCH   2  17
TORSDOF 1
ENDMDL
MODEL 8
REMARK VINA RESULT:      -8.0      8.640     10.878
REMARK  Name = 708346
REMARK  1 active torsions:
REMARK  status: ('A' for Active; 'I' for Inactive)
REMARK    1  A    between atoms: N_2  and  C_17
REMARK                            x       y       z     vdW  Elec       q    Type
REMARK                         _______ _______ _______ _____ _____    ______ ____
ROOT
ATOM      1  O   UNL     1      34.052 -24.327 -12.739  0.00  0.00    -0.267 OA
ATOM      2  N   UNL     1      35.438 -23.402 -14.388  0.00  0.00    -0.295 N 
ATOM      3  N   UNL     1      31.223 -23.961 -15.884  0.00  0.00    -0.280 N 
ATOM      4  N   UNL     1      32.062 -23.431 -16.794  0.00  0.00    -0.173 NA
ATOM      5  C   UNL     1      33.116 -23.846 -14.816  0.00  0.00    +0.088 A 
ATOM      6  C   UNL     1      35.588 -22.894 -15.743  0.00  0.00    +0.064 A 
ATOM      7  C   UNL     1      34.486 -22.867 -16.632  0.00  0.00    +0.035 A 
ATOM      8  C   UNL     1      33.224 -23.362 -16.133  0.00  0.00    +0.108 A 
ATOM      9  C   UNL     1      34.209 -23.892 -13.877  0.00  0.00    +0.263 A 
ATOM     10  C   UNL     1      31.806 -24.230 -14.678  0.00  0.00    +0.058 A 
ATOM     11  C   UNL     1      36.822 -22.416 -16.216  0.00  0.00    +0.017 C 
ATOM     12  C   UNL     1      34.621 -22.379 -17.938  0.00  0.00    +0.003 C 
ATOM     13  C   UNL     1      31.046 -24.813 -13.559  0.00  0.00    +0.052 C 
ATOM     14  C   UNL     1      36.952 -21.931 -17.520  0.00  0.00    +0.001 C 
ATOM     15  C   UNL     1      35.856 -21.912 -18.378  0.00  0.00    +0.000 C 
ATOM     16  H   UNL     1      30.273 -24.140 -16.071  0.00  0.00    +0.189 HD
ENDROOT
BRANCH   2  17
ATOM     17  C   UNL     1      36.608 -23.407 -13.513  0.00  0.00    +0.109 C 
ATOM     18  C   UNL     1      37.308 -24.750 -13.585  0.00  0.00    +0.027 C 
ENDBRANCH   2  17
TORSDOF 1
ENDMDL
MODEL 9
REMARK VINA RESULT:      -7.8      4.719      6.950
REMARK  Name = 708346
REMARK  1 active torsions:
REMARK  status: ('A' for Active; 'I' for Inactive)
REMARK    1  A    between atoms: N_2  and  C_17
REMARK                            x       y       z     vdW  Elec       q    Type
REMARK                         _______ _______ _______ _____ _____    ______ ____
ROOT
ATOM      1  O   UNL     1      31.722  -8.634 -21.739  0.00  0.00    -0.267 OA
ATOM      2  N   UNL     1      31.844 -10.972 -21.873  0.00  0.00    -0.295 N 
ATOM      3  N   UNL     1      34.714  -8.993 -24.731  0.00  0.00    -0.280 N 
ATOM      4  N   UNL     1      34.744 -10.339 -24.766  0.00  0.00    -0.173 NA
ATOM      5  C   UNL     1      33.229  -9.570 -23.248  0.00  0.00    +0.088 A 
ATOM      6  C   UNL     1      32.444 -12.152 -22.476  0.00  0.00    +0.064 A 
ATOM      7  C   UNL     1      33.442 -12.027 -23.473  0.00  0.00    +0.035 A 
ATOM      8  C   UNL     1      33.830 -10.689 -23.854  0.00  0.00    +0.108 A 
ATOM      9  C   UNL     1      32.209  -9.649 -22.231  0.00  0.00    +0.263 A 
ATOM     10  C   UNL     1      33.819  -8.480 -23.835  0.00  0.00    +0.058 A 
ATOM     11  C   UNL     1      32.057 -13.449 -22.097  0.00  0.00    +0.017 C 
ATOM     12  C   UNL     1      34.026 -13.158 -24.059  0.00  0.00    +0.003 C 
ATOM     13  C   UNL     1      33.644  -7.029 -23.655  0.00  0.00    +0.052 C 
ATOM     14  C   UNL     1      32.641 -14.574 -22.686  0.00  0.00    +0.001 C 
ATOM     15  C   UNL     1      33.622 -14.429 -23.662  0.00  0.00    +0.000 C 
ATOM     16  H   UNL     1      35.285  -8.429 -25.301  0.00  0.00    +0.189 HD
ENDROOT
BRANCH   2  17
ATOM     17  C   UNL     1      30.818 -11.158 -20.850  0.00  0.00    +0.109 C 
ATOM     18  C   UNL     1      31.439 -11.095 -19.468  0.00  0.00    +0.027 C 
ENDBRANCH   2  17
TORSDOF 1
ENDMDL
