MODEL 1
REMARK VINA RESULT:     -11.0      0.000      0.000
REMARK  Name = 4369359
REMARK  6 active torsions:
REMARK  status: ('A' for Active; 'I' for Inactive)
REMARK    1  A    between atoms: C_1  and  C_11
REMARK    2  A    between atoms: C_1  and  C_17
REMARK    3  A    between atoms: C_12  and  C_16
REMARK    4  A    between atoms: C_17  and  N_18
REMARK    5  A    between atoms: C_17  and  C_22
REMARK    6  A    between atoms: C_22  and  C_26
REMARK                            x       y       z     vdW  Elec       q    Type
REMARK                         _______ _______ _______ _____ _____    ______ ____
ROOT
ATOM      1  C   UNL     1      31.669 -12.463 -22.268  0.00  0.00    +0.064 C 
ENDROOT
BRANCH   1  11
ATOM      2  O   UNL     1      32.569 -13.414 -20.292  0.00  0.00    -0.275 OA
ATOM      3  N   UNL     1      33.403 -14.222 -22.309  0.00  0.00    -0.271 N 
ATOM      4  N   UNL     1      34.246 -16.554 -23.562  0.00  0.00    -0.292 N 
ATOM      5  N   UNL     1      33.839 -15.906 -25.604  0.00  0.00    -0.132 NA
ATOM      6  N   UNL     1      34.296 -17.212 -25.633  0.00  0.00    -0.125 NA
ATOM      7  C   UNL     1      34.430 -15.048 -21.656  0.00  0.00    +0.118 C 
ATOM      8  C   UNL     1      34.336 -16.496 -22.122  0.00  0.00    +0.130 C 
ATOM      9  C   UNL     1      33.414 -14.203 -23.784  0.00  0.00    +0.160 C 
ATOM     10  C   UNL     1      33.812 -15.520 -24.344  0.00  0.00    +0.164 A 
ATOM     11  C   UNL     1      32.585 -13.403 -21.525  0.00  0.00    +0.224 C 
ATOM     12  C   UNL     1      34.535 -17.581 -24.395  0.00  0.00    +0.238 A 
BRANCH  12  16
ATOM     13  F   UNL     1      34.303 -19.411 -22.902  0.00  0.00    -0.163 F 
ATOM     14  F   UNL     1      35.003 -19.851 -24.912  0.00  0.00    -0.163 F 
ATOM     15  F   UNL     1      36.319 -18.836 -23.501  0.00  0.00    -0.163 F 
ATOM     16  C   UNL     1      35.027 -18.893 -23.938  0.00  0.00    +0.452 C 
ENDBRANCH  12  16
ENDBRANCH   1  11
BRANCH   1  17
ATOM     17  C   UNL     1      31.606 -11.088 -21.601  0.00  0.00    -0.052 C 
BRANCH  17  18
ATOM     18  N   UNL     1      30.656 -11.191 -20.485  0.00  0.00    +0.382 N 
ATOM     19  H   UNL     1      30.904 -11.990 -19.900  0.00  0.00    -0.089 HD
ATOM     20  H   UNL     1      29.714 -11.317 -20.852  0.00  0.00    -0.089 HD
ATOM     21  H   UNL     1      30.694 -10.338 -19.927  0.00  0.00    -0.089 HD
ENDBRANCH  17  18
BRANCH  17  22
ATOM     22  C   UNL     1      31.125  -9.967 -22.549  0.00  0.00    +0.007 C 
BRANCH  22  26
ATOM     23  F   UNL     1      30.854  -7.156 -22.602  0.00  0.00    -0.204 F 
ATOM     24  F   UNL     1      35.581  -9.260 -24.371  0.00  0.00    -0.202 F 
ATOM     25  F   UNL     1      35.199  -6.553 -24.374  0.00  0.00    -0.202 F 
ATOM     26  C   UNL     1      32.217  -9.049 -23.039  0.00  0.00    +0.006 C 
ATOM     27  C   UNL     1      32.009  -7.678 -23.035  0.00  0.00    +0.138 C 
ATOM     28  C   UNL     1      33.411  -9.594 -23.485  0.00  0.00    +0.030 C 
ATOM     29  C   UNL     1      34.422  -8.747 -23.939  0.00  0.00    +0.167 C 
ATOM     30  C   UNL     1      33.021  -6.832 -23.489  0.00  0.00    +0.061 C 
ATOM     31  C   UNL     1      34.227  -7.366 -23.940  0.00  0.00    +0.170 C 
ENDBRANCH  22  26
ENDBRANCH  17  22
ENDBRANCH   1  17
TORSDOF 6
ENDMDL
MODEL 2
REMARK VINA RESULT:     -10.8      7.944     10.751
REMARK  Name = 4369359
REMARK  6 active torsions:
REMARK  status: ('A' for Active; 'I' for Inactive)
REMARK    1  A    between atoms: C_1  and  C_11
REMARK    2  A    between atoms: C_1  and  C_17
REMARK    3  A    between atoms: C_12  and  C_16
REMARK    4  A    between atoms: C_17  and  N_18
REMARK    5  A    between atoms: C_17  and  C_22
REMARK    6  A    between atoms: C_22  and  C_26
REMARK                            x       y       z     vdW  Elec       q    Type
REMARK                         _______ _______ _______ _____ _____    ______ ____
ROOT
ATOM      1  C   UNL     1      35.184 -21.724 -19.706  0.00  0.00    +0.064 C 
ENDROOT
BRANCH   1  11
ATOM      2  O   UNL     1      33.239 -22.781 -18.855  0.00  0.00    -0.275 OA
ATOM      3  N   UNL     1      35.041 -22.589 -17.396  0.00  0.00    -0.271 N 
ATOM      4  N   UNL     1      36.400 -23.949 -15.390  0.00  0.00    -0.292 N 
ATOM      5  N   UNL     1      38.319 -22.949 -15.661  0.00  0.00    -0.132 NA
ATOM      6  N   UNL     1      38.452 -23.911 -14.674  0.00  0.00    -0.125 NA
ATOM      7  C   UNL     1      34.282 -23.106 -16.248  0.00  0.00    +0.118 C 
ATOM      8  C   UNL     1      35.010 -24.278 -15.601  0.00  0.00    +0.130 C 
ATOM      9  C   UNL     1      36.422 -22.143 -17.125  0.00  0.00    +0.160 C 
ATOM     10  C   UNL     1      37.072 -22.984 -16.087  0.00  0.00    +0.164 A 
ATOM     11  C   UNL     1      34.392 -22.411 -18.621  0.00  0.00    +0.224 C 
ATOM     12  C   UNL     1      37.286 -24.499 -14.528  0.00  0.00    +0.238 A 
BRANCH  12  16
ATOM     13  F   UNL     1      35.900 -25.301 -12.776  0.00  0.00    -0.163 F 
ATOM     14  F   UNL     1      36.613 -26.756 -14.225  0.00  0.00    -0.163 F 
ATOM     15  F   UNL     1      37.996 -25.903 -12.772  0.00  0.00    -0.163 F 
ATOM     16  C   UNL     1      36.953 -25.592 -13.597  0.00  0.00    +0.452 C 
ENDBRANCH  12  16
ENDBRANCH   1  11
BRANCH   1  17
ATOM     17  C   UNL     1      34.457 -20.491 -20.244  0.00  0.00    -0.052 C 
BRANCH  17  18
ATOM     18  N   UNL     1      33.016 -20.766 -20.160  0.00  0.00    +0.382 N 
ATOM     19  H   UNL     1      32.496 -19.972 -20.534  0.00  0.00    -0.089 HD
ATOM     20  H   UNL     1      32.755 -20.915 -19.186  0.00  0.00    -0.089 HD
ATOM     21  H   UNL     1      32.798 -21.602 -20.703  0.00  0.00    -0.089 HD
ENDBRANCH  17  18
BRANCH  17  22
ATOM     22  C   UNL     1      34.806 -20.165 -21.713  0.00  0.00    +0.007 C 
BRANCH  22  26
ATOM     23  F   UNL     1      34.820 -19.178 -24.359  0.00  0.00    -0.204 F 
ATOM     24  F   UNL     1      34.934 -15.509 -20.306  0.00  0.00    -0.202 F 
ATOM     25  F   UNL     1      34.944 -14.676 -22.910  0.00  0.00    -0.202 F 
ATOM     26  C   UNL     1      34.844 -18.692 -22.037  0.00  0.00    +0.006 C 
ATOM     27  C   UNL     1      34.849 -18.284 -23.361  0.00  0.00    +0.138 C 
ATOM     28  C   UNL     1      34.873 -17.772 -21.000  0.00  0.00    +0.030 C 
ATOM     29  C   UNL     1      34.907 -16.409 -21.297  0.00  0.00    +0.167 C 
ATOM     30  C   UNL     1      34.883 -16.922 -23.657  0.00  0.00    +0.061 C 
ATOM     31  C   UNL     1      34.913 -15.985 -22.626  0.00  0.00    +0.170 C 
ENDBRANCH  22  26
ENDBRANCH  17  22
ENDBRANCH   1  17
TORSDOF 6
ENDMDL
MODEL 3
REMARK VINA RESULT:     -10.7      2.908      9.581
REMARK  Name = 4369359
REMARK  6 active torsions:
REMARK  status: ('A' for Active; 'I' for Inactive)
REMARK    1  A    between atoms: C_1  and  C_11
REMARK    2  A    between atoms: C_1  and  C_17
REMARK    3  A    between atoms: C_12  and  C_16
REMARK    4  A    between atoms: C_17  and  N_18
REMARK    5  A    between atoms: C_17  and  C_22
REMARK    6  A    between atoms: C_22  and  C_26
REMARK                            x       y       z     vdW  Elec       q    Type
REMARK                         _______ _______ _______ _____ _____    ______ ____
ROOT
ATOM      1  C   UNL     1      33.880 -15.369 -22.784  0.00  0.00    +0.064 C 
ENDROOT
BRANCH   1  11
ATOM      2  O   UNL     1      32.076 -14.686 -21.405  0.00  0.00    -0.275 OA
ATOM      3  N   UNL     1      32.829 -13.142 -22.974  0.00  0.00    -0.271 N 
ATOM      4  N   UNL     1      33.303 -10.428 -23.335  0.00  0.00    -0.292 N 
ATOM      5  N   UNL     1      34.814 -10.639 -24.892  0.00  0.00    -0.132 NA
ATOM      6  N   UNL     1      34.666  -9.296 -24.594  0.00  0.00    -0.125 NA
ATOM      7  C   UNL     1      31.748 -12.187 -22.685  0.00  0.00    +0.118 C 
ATOM      8  C   UNL     1      32.316 -10.812 -22.353  0.00  0.00    +0.130 C 
ATOM      9  C   UNL     1      33.751 -12.779 -24.068  0.00  0.00    +0.160 C 
ATOM     10  C   UNL     1      33.985 -11.314 -24.122  0.00  0.00    +0.164 A 
ATOM     11  C   UNL     1      32.843 -14.376 -22.320  0.00  0.00    +0.224 C 
ATOM     12  C   UNL     1      33.753  -9.192 -23.654  0.00  0.00    +0.238 A 
BRANCH  12  16
ATOM     13  F   UNL     1      31.934  -7.737 -23.197  0.00  0.00    -0.163 F 
ATOM     14  F   UNL     1      33.464  -7.930 -21.664  0.00  0.00    -0.163 F 
ATOM     15  F   UNL     1      33.900  -6.844 -23.503  0.00  0.00    -0.163 F 
ATOM     16  C   UNL     1      33.271  -7.954 -23.016  0.00  0.00    +0.452 C 
ENDBRANCH  12  16
ENDBRANCH   1  11
BRANCH   1  17
ATOM     17  C   UNL     1      34.146 -16.444 -21.730  0.00  0.00    -0.052 C 
BRANCH  17  18
ATOM     18  N   UNL     1      34.764 -15.777 -20.576  0.00  0.00    +0.382 N 
ATOM     19  H   UNL     1      34.070 -15.191 -20.111  0.00  0.00    -0.089 HD
ATOM     20  H   UNL     1      35.541 -15.199 -20.894  0.00  0.00    -0.089 HD
ATOM     21  H   UNL     1      35.108 -16.480 -19.922  0.00  0.00    -0.089 HD
ENDBRANCH  17  18
BRANCH  17  22
ATOM     22  C   UNL     1      35.099 -17.558 -22.217  0.00  0.00    +0.007 C 
BRANCH  22  26
ATOM     23  F   UNL     1      37.477 -18.817 -21.356  0.00  0.00    -0.204 F 
ATOM     24  F   UNL     1      32.738 -21.053 -19.789  0.00  0.00    -0.202 F 
ATOM     25  F   UNL     1      35.107 -22.180 -19.019  0.00  0.00    -0.202 F 
ATOM     26  C   UNL     1      35.104 -18.800 -21.360  0.00  0.00    +0.006 C 
ATOM     27  C   UNL     1      36.312 -19.360 -20.976  0.00  0.00    +0.138 C 
ATOM     28  C   UNL     1      33.896 -19.357 -20.969  0.00  0.00    +0.030 C 
ATOM     29  C   UNL     1      33.898 -20.504 -20.175  0.00  0.00    +0.167 C 
ATOM     30  C   UNL     1      36.313 -20.507 -20.183  0.00  0.00    +0.061 C 
ATOM     31  C   UNL     1      35.106 -21.079 -19.783  0.00  0.00    +0.170 C 
ENDBRANCH  22  26
ENDBRANCH  17  22
ENDBRANCH   1  17
TORSDOF 6
ENDMDL
MODEL 4
REMARK VINA RESULT:     -10.6      0.707      1.738
REMARK  Name = 4369359
REMARK  6 active torsions:
REMARK  status: ('A' for Active; 'I' for Inactive)
REMARK    1  A    between atoms: C_1  and  C_11
REMARK    2  A    between atoms: C_1  and  C_17
REMARK    3  A    between atoms: C_12  and  C_16
REMARK    4  A    between atoms: C_17  and  N_18
REMARK    5  A    between atoms: C_17  and  C_22
REMARK    6  A    between atoms: C_22  and  C_26
REMARK                            x       y       z     vdW  Elec       q    Type
REMARK                         _______ _______ _______ _____ _____    ______ ____
ROOT
ATOM      1  C   UNL     1      31.628 -12.605 -22.203  0.00  0.00    +0.064 C 
ENDROOT
BRANCH   1  11
ATOM      2  O   UNL     1      32.569 -13.533 -20.234  0.00  0.00    -0.275 OA
ATOM      3  N   UNL     1      33.398 -14.327 -22.258  0.00  0.00    -0.271 N 
ATOM      4  N   UNL     1      34.278 -16.643 -23.516  0.00  0.00    -0.292 N 
ATOM      5  N   UNL     1      33.837 -16.008 -25.554  0.00  0.00    -0.132 NA
ATOM      6  N   UNL     1      34.321 -17.304 -25.586  0.00  0.00    -0.125 NA
ATOM      7  C   UNL     1      34.450 -15.129 -21.614  0.00  0.00    +0.118 C 
ATOM      8  C   UNL     1      34.381 -16.580 -22.077  0.00  0.00    +0.130 C 
ATOM      9  C   UNL     1      33.394 -14.311 -23.734  0.00  0.00    +0.160 C 
ATOM     10  C   UNL     1      33.814 -15.620 -24.295  0.00  0.00    +0.164 A 
ATOM     11  C   UNL     1      32.571 -13.524 -21.468  0.00  0.00    +0.224 C 
ATOM     12  C   UNL     1      34.580 -17.666 -24.349  0.00  0.00    +0.238 A 
BRANCH  12  16
ATOM     13  F   UNL     1      35.132 -19.912 -24.881  0.00  0.00    -0.163 F 
ATOM     14  F   UNL     1      36.384 -18.899 -23.421  0.00  0.00    -0.163 F 
ATOM     15  F   UNL     1      34.358 -19.499 -22.884  0.00  0.00    -0.163 F 
ATOM     16  C   UNL     1      35.105 -18.966 -23.895  0.00  0.00    +0.452 C 
ENDBRANCH  12  16
ENDBRANCH   1  11
BRANCH   1  17
ATOM     17  C   UNL     1      31.712 -11.171 -21.680  0.00  0.00    -0.052 C 
BRANCH  17  18
ATOM     18  N   UNL     1      30.854 -11.092 -20.490  0.00  0.00    +0.382 N 
ATOM     19  H   UNL     1      31.300 -11.585 -19.716  0.00  0.00    -0.089 HD
ATOM     20  H   UNL     1      29.952 -11.522 -20.693  0.00  0.00    -0.089 HD
ATOM     21  H   UNL     1      30.716 -10.114 -20.235  0.00  0.00    -0.089 HD
ENDBRANCH  17  18
BRANCH  17  22
ATOM     22  C   UNL     1      31.230 -10.116 -22.700  0.00  0.00    +0.007 C 
BRANCH  22  26
ATOM     23  F   UNL     1      33.756 -10.932 -23.667  0.00  0.00    -0.204 F 
ATOM     24  F   UNL     1      32.768  -5.558 -23.435  0.00  0.00    -0.202 F 
ATOM     25  F   UNL     1      35.176  -6.472 -24.353  0.00  0.00    -0.202 F 
ATOM     26  C   UNL     1      32.291  -9.140 -23.143  0.00  0.00    +0.006 C 
ATOM     27  C   UNL     1      33.507  -9.617 -23.607  0.00  0.00    +0.138 C 
ATOM     28  C   UNL     1      32.029  -7.780 -23.080  0.00  0.00    +0.030 C 
ATOM     29  C   UNL     1      33.008  -6.875 -23.490  0.00  0.00    +0.167 C 
ATOM     30  C   UNL     1      34.486  -8.711 -24.016  0.00  0.00    +0.061 C 
ATOM     31  C   UNL     1      34.237  -7.341 -23.958  0.00  0.00    +0.170 C 
ENDBRANCH  22  26
ENDBRANCH  17  22
ENDBRANCH   1  17
TORSDOF 6
ENDMDL
MODEL 5
REMARK VINA RESULT:     -10.6      2.352      3.465
REMARK  Name = 4369359
REMARK  6 active torsions:
REMARK  status: ('A' for Active; 'I' for Inactive)
REMARK    1  A    between atoms: C_1  and  C_11
REMARK    2  A    between atoms: C_1  and  C_17
REMARK    3  A    between atoms: C_12  and  C_16
REMARK    4  A    between atoms: C_17  and  N_18
REMARK    5  A    between atoms: C_17  and  C_22
REMARK    6  A    between atoms: C_22  and  C_26
REMARK                            x       y       z     vdW  Elec       q    Type
REMARK                         _______ _______ _______ _____ _____    ______ ____
ROOT
ATOM      1  C   UNL     1      33.877 -11.146 -23.615  0.00  0.00    +0.064 C 
ENDROOT
BRANCH   1  11
ATOM      2  O   UNL     1      33.690 -12.368 -25.638  0.00  0.00    -0.275 OA
ATOM      3  N   UNL     1      33.676 -13.607 -23.669  0.00  0.00    -0.271 N 
ATOM      4  N   UNL     1      34.590 -15.987 -22.564  0.00  0.00    -0.292 N 
ATOM      5  N   UNL     1      34.596 -15.317 -20.489  0.00  0.00    -0.132 NA
ATOM      6  N   UNL     1      35.083 -16.612 -20.541  0.00  0.00    -0.125 NA
ATOM      7  C   UNL     1      33.383 -14.871 -24.362  0.00  0.00    +0.118 C 
ATOM      8  C   UNL     1      34.407 -15.939 -23.995  0.00  0.00    +0.130 C 
ATOM      9  C   UNL     1      33.734 -13.663 -22.195  0.00  0.00    +0.160 C 
ATOM     10  C   UNL     1      34.302 -14.951 -21.720  0.00  0.00    +0.164 A 
ATOM     11  C   UNL     1      33.737 -12.422 -24.407  0.00  0.00    +0.224 C 
ATOM     12  C   UNL     1      35.071 -16.995 -21.798  0.00  0.00    +0.238 A 
BRANCH  12  16
ATOM     13  F   UNL     1      34.523 -18.962 -23.008  0.00  0.00    -0.163 F 
ATOM     14  F   UNL     1      36.547 -18.196 -23.217  0.00  0.00    -0.163 F 
ATOM     15  F   UNL     1      35.932 -19.143 -21.353  0.00  0.00    -0.163 F 
ATOM     16  C   UNL     1      35.509 -18.295 -22.335  0.00  0.00    +0.452 C 
ENDBRANCH  12  16
ENDBRANCH   1  11
BRANCH   1  17
ATOM     17  C   UNL     1      34.288  -9.971 -24.502  0.00  0.00    -0.052 C 
BRANCH  17  18
ATOM     18  N   UNL     1      35.578 -10.319 -25.113  0.00  0.00    +0.382 N 
ATOM     19  H   UNL     1      36.133 -10.860 -24.450  0.00  0.00    -0.089 HD
ATOM     20  H   UNL     1      36.078  -9.466 -25.360  0.00  0.00    -0.089 HD
ATOM     21  H   UNL     1      35.416 -10.875 -25.953  0.00  0.00    -0.089 HD
ENDBRANCH  17  18
BRANCH  17  22
ATOM     22  C   UNL     1      34.458  -8.646 -23.727  0.00  0.00    +0.007 C 
BRANCH  22  26
ATOM     23  F   UNL     1      31.843  -8.809 -22.670  0.00  0.00    -0.204 F 
ATOM     24  F   UNL     1      33.004  -4.520 -25.858  0.00  0.00    -0.202 F 
ATOM     25  F   UNL     1      30.508  -4.789 -24.777  0.00  0.00    -0.202 F 
ATOM     26  C   UNL     1      33.396  -7.613 -24.008  0.00  0.00    +0.006 C 
ATOM     27  C   UNL     1      32.134  -7.762 -23.453  0.00  0.00    +0.138 C 
ATOM     28  C   UNL     1      33.702  -6.530 -24.817  0.00  0.00    +0.030 C 
ATOM     29  C   UNL     1      32.722  -5.573 -25.079  0.00  0.00    +0.167 C 
ATOM     30  C   UNL     1      31.155  -6.804 -23.715  0.00  0.00    +0.061 C 
ATOM     31  C   UNL     1      31.448  -5.710 -24.527  0.00  0.00    +0.170 C 
ENDBRANCH  22  26
ENDBRANCH  17  22
ENDBRANCH   1  17
TORSDOF 6
ENDMDL
MODEL 6
REMARK VINA RESULT:     -10.5      2.303      3.582
REMARK  Name = 4369359
REMARK  6 active torsions:
REMARK  status: ('A' for Active; 'I' for Inactive)
REMARK    1  A    between atoms: C_1  and  C_11
REMARK    2  A    between atoms: C_1  and  C_17
REMARK    3  A    between atoms: C_12  and  C_16
REMARK    4  A    between atoms: C_17  and  N_18
REMARK    5  A    between atoms: C_17  and  C_22
REMARK    6  A    between atoms: C_22  and  C_26
REMARK                            x       y       z     vdW  Elec       q    Type
REMARK                         _______ _______ _______ _____ _____    ______ ____
ROOT
ATOM      1  C   UNL     1      33.949 -10.989 -23.730  0.00  0.00    +0.064 C 
ENDROOT
BRANCH   1  11
ATOM      2  O   UNL     1      33.651 -12.253 -25.714  0.00  0.00    -0.275 OA
ATOM      3  N   UNL     1      33.656 -13.442 -23.714  0.00  0.00    -0.271 N 
ATOM      4  N   UNL     1      34.516 -15.826 -22.576  0.00  0.00    -0.292 N 
ATOM      5  N   UNL     1      34.614 -15.105 -20.521  0.00  0.00    -0.132 NA
ATOM      6  N   UNL     1      35.051 -16.418 -20.554  0.00  0.00    -0.125 NA
ATOM      7  C   UNL     1      33.293 -14.711 -24.364  0.00  0.00    +0.118 C 
ATOM      8  C   UNL     1      34.289 -15.807 -24.002  0.00  0.00    +0.130 C 
ATOM      9  C   UNL     1      33.759 -13.463 -22.242  0.00  0.00    +0.160 C 
ATOM     10  C   UNL     1      34.294 -14.758 -21.751  0.00  0.00    +0.164 A 
ATOM     11  C   UNL     1      33.736 -12.278 -24.484  0.00  0.00    +0.224 C 
ATOM     12  C   UNL     1      34.984 -16.831 -21.800  0.00  0.00    +0.238 A 
BRANCH  12  16
ATOM     13  F   UNL     1      34.324 -18.809 -22.933  0.00  0.00    -0.163 F 
ATOM     14  F   UNL     1      36.363 -18.122 -23.239  0.00  0.00    -0.163 F 
ATOM     15  F   UNL     1      35.787 -18.997 -21.327  0.00  0.00    -0.163 F 
ATOM     16  C   UNL     1      35.356 -18.160 -22.316  0.00  0.00    +0.452 C 
ENDBRANCH  12  16
ENDBRANCH   1  11
BRANCH   1  17
ATOM     17  C   UNL     1      34.484  -9.883 -24.640  0.00  0.00    -0.052 C 
BRANCH  17  18
ATOM     18  N   UNL     1      35.657 -10.425 -25.339  0.00  0.00    +0.382 N 
ATOM     19  H   UNL     1      35.695 -11.436 -25.205  0.00  0.00    -0.089 HD
ATOM     20  H   UNL     1      36.503  -9.999 -24.963  0.00  0.00    -0.089 HD
ATOM     21  H   UNL     1      35.584 -10.217 -26.335  0.00  0.00    -0.089 HD
ENDBRANCH  17  18
BRANCH  17  22
ATOM     22  C   UNL     1      34.916  -8.613 -23.874  0.00  0.00    +0.007 C 
BRANCH  22  26
ATOM     23  F   UNL     1      33.876  -6.466 -25.386  0.00  0.00    -0.204 F 
ATOM     24  F   UNL     1      31.585  -7.458 -20.520  0.00  0.00    -0.202 F 
ATOM     25  F   UNL     1      30.665  -5.407 -22.076  0.00  0.00    -0.202 F 
ATOM     26  C   UNL     1      33.776  -7.750 -23.393  0.00  0.00    +0.006 C 
ATOM     27  C   UNL     1      33.320  -6.714 -24.193  0.00  0.00    +0.138 C 
ATOM     28  C   UNL     1      33.204  -8.012 -22.158  0.00  0.00    +0.030 C 
ATOM     29  C   UNL     1      32.149  -7.216 -21.711  0.00  0.00    +0.167 C 
ATOM     30  C   UNL     1      32.265  -5.919 -23.745  0.00  0.00    +0.061 C 
ATOM     31  C   UNL     1      31.680  -6.170 -22.505  0.00  0.00    +0.170 C 
ENDBRANCH  22  26
ENDBRANCH  17  22
ENDBRANCH   1  17
TORSDOF 6
ENDMDL
MODEL 7
REMARK VINA RESULT:     -10.5      3.107      9.603
REMARK  Name = 4369359
REMARK  6 active torsions:
REMARK  status: ('A' for Active; 'I' for Inactive)
REMARK    1  A    between atoms: C_1  and  C_11
REMARK    2  A    between atoms: C_1  and  C_17
REMARK    3  A    between atoms: C_12  and  C_16
REMARK    4  A    between atoms: C_17  and  N_18
REMARK    5  A    between atoms: C_17  and  C_22
REMARK    6  A    between atoms: C_22  and  C_26
REMARK                            x       y       z     vdW  Elec       q    Type
REMARK                         _______ _______ _______ _____ _____    ______ ____
ROOT
ATOM      1  C   UNL     1      33.899 -15.836 -22.510  0.00  0.00    +0.064 C 
ENDROOT
BRANCH   1  11
ATOM      2  O   UNL     1      32.112 -15.096 -21.139  0.00  0.00    -0.275 OA
ATOM      3  N   UNL     1      32.793 -13.651 -22.831  0.00  0.00    -0.271 N 
ATOM      4  N   UNL     1      33.197 -10.961 -23.393  0.00  0.00    -0.292 N 
ATOM      5  N   UNL     1      34.677 -11.250 -24.968  0.00  0.00    -0.132 NA
ATOM      6  N   UNL     1      34.505  -9.892 -24.762  0.00  0.00    -0.125 NA
ATOM      7  C   UNL     1      31.698 -12.701 -22.584  0.00  0.00    +0.118 C 
ATOM      8  C   UNL     1      32.241 -11.294 -22.364  0.00  0.00    +0.130 C 
ATOM      9  C   UNL     1      33.682 -13.348 -23.970  0.00  0.00    +0.160 C 
ATOM     10  C   UNL     1      33.881 -11.885 -24.132  0.00  0.00    +0.164 A 
ATOM     11  C   UNL     1      32.851 -14.836 -22.092  0.00  0.00    +0.224 C 
ATOM     12  C   UNL     1      33.610  -9.741 -23.810  0.00  0.00    +0.238 A 
BRANCH  12  16
ATOM     13  F   UNL     1      31.793  -8.245 -23.510  0.00  0.00    -0.163 F 
ATOM     14  F   UNL     1      33.236  -8.394 -21.892  0.00  0.00    -0.163 F 
ATOM     15  F   UNL     1      33.785  -7.391 -23.747  0.00  0.00    -0.163 F 
ATOM     16  C   UNL     1      33.115  -8.471 -23.250  0.00  0.00    +0.452 C 
ENDBRANCH  12  16
ENDBRANCH   1  11
BRANCH   1  17
ATOM     17  C   UNL     1      34.044 -16.965 -21.488  0.00  0.00    -0.052 C 
BRANCH  17  18
ATOM     18  N   UNL     1      35.005 -16.512 -20.474  0.00  0.00    +0.382 N 
ATOM     19  H   UNL     1      35.682 -17.254 -20.291  0.00  0.00    -0.089 HD
ATOM     20  H   UNL     1      34.509 -16.284 -19.613  0.00  0.00    -0.089 HD
ATOM     21  H   UNL     1      35.494 -15.684 -20.815  0.00  0.00    -0.089 HD
ENDBRANCH  17  18
BRANCH  17  22
ATOM     22  C   UNL     1      34.566 -18.284 -22.100  0.00  0.00    +0.007 C 
BRANCH  22  26
ATOM     23  F   UNL     1      32.226 -19.447 -21.026  0.00  0.00    -0.204 F 
ATOM     24  F   UNL     1      37.023 -21.595 -19.516  0.00  0.00    -0.202 F 
ATOM     25  F   UNL     1      34.689 -22.634 -18.544  0.00  0.00    -0.202 F 
ATOM     26  C   UNL     1      34.596 -19.451 -21.145  0.00  0.00    +0.006 C 
ATOM     27  C   UNL     1      33.405 -19.968 -20.660  0.00  0.00    +0.138 C 
ATOM     28  C   UNL     1      35.818 -19.986 -20.769  0.00  0.00    +0.030 C 
ATOM     29  C   UNL     1      35.849 -21.066 -19.886  0.00  0.00    +0.167 C 
ATOM     30  C   UNL     1      33.437 -21.047 -19.777  0.00  0.00    +0.061 C 
ATOM     31  C   UNL     1      34.659 -21.596 -19.390  0.00  0.00    +0.170 C 
ENDBRANCH  22  26
ENDBRANCH  17  22
ENDBRANCH   1  17
TORSDOF 6
ENDMDL
MODEL 8
REMARK VINA RESULT:     -10.4      5.943      8.244
REMARK  Name = 4369359
REMARK  6 active torsions:
REMARK  status: ('A' for Active; 'I' for Inactive)
REMARK    1  A    between atoms: C_1  and  C_11
REMARK    2  A    between atoms: C_1  and  C_17
REMARK    3  A    between atoms: C_12  and  C_16
REMARK    4  A    between atoms: C_17  and  N_18
REMARK    5  A    between atoms: C_17  and  C_22
REMARK    6  A    between atoms: C_22  and  C_26
REMARK                            x       y       z     vdW  Elec       q    Type
REMARK                         _______ _______ _______ _____ _____    ______ ____
ROOT
ATOM      1  C   UNL     1      34.144 -19.029 -21.331  0.00  0.00    +0.064 C 
ENDROOT
BRANCH   1  11
ATOM      2  O   UNL     1      36.445 -19.062 -20.757  0.00  0.00    -0.275 OA
ATOM      3  N   UNL     1      35.142 -20.805 -19.933  0.00  0.00    -0.271 N 
ATOM      4  N   UNL     1      34.779 -22.408 -17.693  0.00  0.00    -0.292 N 
ATOM      5  N   UNL     1      32.681 -22.880 -18.057  0.00  0.00    -0.132 NA
ATOM      6  N   UNL     1      33.069 -23.464 -16.863  0.00  0.00    -0.125 NA
ATOM      7  C   UNL     1      36.299 -21.526 -19.381  0.00  0.00    +0.118 C 
ATOM      8  C   UNL     1      36.088 -21.835 -17.903  0.00  0.00    +0.130 C 
ATOM      9  C   UNL     1      33.832 -21.473 -19.814  0.00  0.00    +0.160 C 
ATOM     10  C   UNL     1      33.725 -22.243 -18.548  0.00  0.00    +0.164 A 
ATOM     11  C   UNL     1      35.353 -19.626 -20.654  0.00  0.00    +0.224 C 
ATOM     12  C   UNL     1      34.334 -23.167 -16.664  0.00  0.00    +0.238 A 
BRANCH  12  16
ATOM     13  F   UNL     1      34.537 -24.414 -14.655  0.00  0.00    -0.163 F 
ATOM     14  F   UNL     1      36.320 -24.207 -15.881  0.00  0.00    -0.163 F 
ATOM     15  F   UNL     1      35.562 -22.492 -14.768  0.00  0.00    -0.163 F 
ATOM     16  C   UNL     1      35.170 -23.564 -15.518  0.00  0.00    +0.452 C 
ENDBRANCH  12  16
ENDBRANCH   1  11
BRANCH   1  17
ATOM     17  C   UNL     1      34.521 -18.294 -22.618  0.00  0.00    -0.052 C 
BRANCH  17  18
ATOM     18  N   UNL     1      35.438 -19.167 -23.363  0.00  0.00    +0.382 N 
ATOM     19  H   UNL     1      36.034 -19.673 -22.707  0.00  0.00    -0.089 HD
ATOM     20  H   UNL     1      36.017 -18.601 -23.983  0.00  0.00    -0.089 HD
ATOM     21  H   UNL     1      34.899 -19.834 -23.915  0.00  0.00    -0.089 HD
ENDBRANCH  17  18
BRANCH  17  22
ATOM     22  C   UNL     1      35.228 -16.944 -22.368  0.00  0.00    +0.007 C 
BRANCH  22  26
ATOM     23  F   UNL     1      34.738 -15.805 -19.830  0.00  0.00    -0.204 F 
ATOM     24  F   UNL     1      32.150 -13.605 -24.116  0.00  0.00    -0.202 F 
ATOM     25  F   UNL     1      31.757 -12.590 -21.608  0.00  0.00    -0.202 F 
ATOM     26  C   UNL     1      34.296 -15.776 -22.161  0.00  0.00    +0.006 C 
ATOM     27  C   UNL     1      34.107 -15.271 -20.884  0.00  0.00    +0.138 C 
ATOM     28  C   UNL     1      33.646 -15.227 -23.255  0.00  0.00    +0.030 C 
ATOM     29  C   UNL     1      32.784 -14.146 -23.067  0.00  0.00    +0.167 C 
ATOM     30  C   UNL     1      33.244 -14.191 -20.697  0.00  0.00    +0.061 C 
ATOM     31  C   UNL     1      32.583 -13.629 -21.788  0.00  0.00    +0.170 C 
ENDBRANCH  22  26
ENDBRANCH  17  22
ENDBRANCH   1  17
TORSDOF 6
ENDMDL
MODEL 9
REMARK VINA RESULT:     -10.3      2.582      3.836
REMARK  Name = 4369359
REMARK  6 active torsions:
REMARK  status: ('A' for Active; 'I' for Inactive)
REMARK    1  A    between atoms: C_1  and  C_11
REMARK    2  A    between atoms: C_1  and  C_17
REMARK    3  A    between atoms: C_12  and  C_16
REMARK    4  A    between atoms: C_17  and  N_18
REMARK    5  A    between atoms: C_17  and  C_22
REMARK    6  A    between atoms: C_22  and  C_26
REMARK                            x       y       z     vdW  Elec       q    Type
REMARK                         _______ _______ _______ _____ _____    ______ ____
ROOT
ATOM      1  C   UNL     1      34.124 -11.203 -23.638  0.00  0.00    +0.064 C 
ENDROOT
BRANCH   1  11
ATOM      2  O   UNL     1      33.729 -12.398 -25.647  0.00  0.00    -0.275 OA
ATOM      3  N   UNL     1      33.757 -13.646 -23.683  0.00  0.00    -0.271 N 
ATOM      4  N   UNL     1      34.578 -16.087 -22.641  0.00  0.00    -0.292 N 
ATOM      5  N   UNL     1      34.760 -15.430 -20.570  0.00  0.00    -0.132 NA
ATOM      6  N   UNL     1      35.155 -16.754 -20.654  0.00  0.00    -0.125 NA
ATOM      7  C   UNL     1      33.337 -14.883 -24.357  0.00  0.00    +0.118 C 
ATOM      8  C   UNL     1      34.308 -16.019 -24.058  0.00  0.00    +0.130 C 
ATOM      9  C   UNL     1      33.904 -13.713 -22.216  0.00  0.00    +0.160 C 
ATOM     10  C   UNL     1      34.414 -15.038 -21.780  0.00  0.00    +0.164 A 
ATOM     11  C   UNL     1      33.850 -12.463 -24.421  0.00  0.00    +0.224 C 
ATOM     12  C   UNL     1      35.038 -17.128 -21.909  0.00  0.00    +0.238 A 
BRANCH  12  16
ATOM     13  F   UNL     1      36.253 -18.401 -23.502  0.00  0.00    -0.163 F 
ATOM     14  F   UNL     1      35.891 -19.317 -21.564  0.00  0.00    -0.163 F 
ATOM     15  F   UNL     1      34.247 -19.077 -22.975  0.00  0.00    -0.163 F 
ATOM     16  C   UNL     1      35.353 -18.452 -22.475  0.00  0.00    +0.452 C 
ENDBRANCH  12  16
ENDBRANCH   1  11
BRANCH   1  17
ATOM     17  C   UNL     1      33.673  -9.955 -24.397  0.00  0.00    -0.052 C 
BRANCH  17  18
ATOM     18  N   UNL     1      34.766  -8.977 -24.314  0.00  0.00    +0.382 N 
ATOM     19  H   UNL     1      35.235  -8.914 -25.218  0.00  0.00    -0.089 HD
ATOM     20  H   UNL     1      35.435  -9.275 -23.604  0.00  0.00    -0.089 HD
ATOM     21  H   UNL     1      34.387  -8.064 -24.063  0.00  0.00    -0.089 HD
ENDBRANCH  17  18
BRANCH  17  22
ATOM     22  C   UNL     1      32.397  -9.310 -23.813  0.00  0.00    +0.007 C 
BRANCH  22  26
ATOM     23  F   UNL     1      33.090  -7.364 -21.885  0.00  0.00    -0.204 F 
ATOM     24  F   UNL     1      30.975 -12.066 -20.063  0.00  0.00    -0.202 F 
ATOM     25  F   UNL     1      31.685 -10.106 -18.295  0.00  0.00    -0.202 F 
ATOM     26  C   UNL     1      32.208  -9.521 -22.331  0.00  0.00    +0.006 C 
ATOM     27  C   UNL     1      32.572  -8.519 -21.446  0.00  0.00    +0.138 C 
ATOM     28  C   UNL     1      31.670 -10.718 -21.881  0.00  0.00    +0.030 C 
ATOM     29  C   UNL     1      31.494 -10.916 -20.512  0.00  0.00    +0.167 C 
ATOM     30  C   UNL     1      32.395  -8.718 -20.077  0.00  0.00    +0.061 C 
ATOM     31  C   UNL     1      31.857  -9.916 -19.610  0.00  0.00    +0.170 C 
ENDBRANCH  22  26
ENDBRANCH  17  22
ENDBRANCH   1  17
TORSDOF 6
ENDMDL
