MODEL 1
REMARK VINA RESULT:      -8.0      0.000      0.000
REMARK  Name = 443600
REMARK  13 active torsions:
REMARK  status: ('A' for Active; 'I' for Inactive)
REMARK    1  A    between atoms: N_2  and  CA_5
REMARK    2  A    between atoms: C_3  and  C_19
REMARK    3  A    between atoms: CA_5  and  C_12
REMARK    4  A    between atoms: CA_5  and  CB_16
REMARK    5  A    between atoms: CA_8  and  C_13
REMARK    6  A    between atoms: C_13  and  O_14
REMARK    7  A    between atoms: C_19  and  C_20
REMARK    8  A    between atoms: C_19  and  C_25
REMARK    9  A    between atoms: C_20  and  C_21
REMARK   10  A    between atoms: C_21  and  C_22
REMARK   11  A    between atoms: C_22  and  C_23
REMARK   12  A    between atoms: C_25  and  C_28
REMARK   13  A    between atoms: N_27  and  O_30
REMARK                            x       y       z     vdW  Elec       q    Type
REMARK                         _______ _______ _______ _____ _____    ______ ____
ROOT
ATOM      1  O   UNL     1      37.193 -21.600 -16.671  0.00  0.00    -0.275 OA
ATOM      2  N   UNL     1      35.177 -22.731 -16.513  0.00  0.00    -0.298 N 
ATOM      3  C   ACE A   0      36.186 -22.069 -17.199  0.00  0.00    +0.223 C 
ATOM      4  H   UNL     1      34.405 -23.075 -17.016  0.00  0.00    +0.150 HD
ENDROOT
BRANCH   2   5
ATOM      5  CA  UNL     1      35.226 -22.929 -15.084  0.00  0.00    +0.149 C 
BRANCH   5  12
ATOM      6  O   UNL     1      35.808 -25.143 -15.736  0.00  0.00    -0.273 OA
ATOM      7  N   UNL     1      36.935 -24.244 -13.927  0.00  0.00    -0.277 N 
ATOM      8  CA  UNL     1      37.847 -25.371 -13.721  0.00  0.00    +0.105 C 
ATOM      9  CB  UNL     1      38.932 -24.799 -12.804  0.00  0.00    +0.024 C 
ATOM     10  CD  UNL     1      37.207 -23.164 -12.981  0.00  0.00    +0.094 C 
ATOM     11  CG  UNL     1      38.184 -23.760 -11.978  0.00  0.00    +0.023 C 
ATOM     12  C   UNL     1      36.010 -24.211 -14.957  0.00  0.00    +0.244 C 
BRANCH   8  13
ATOM     13  C   UNL     1      37.129 -26.563 -13.091  0.00  0.00    +0.157 C 
BRANCH  13  14
ATOM     14  O   UNL     1      36.730 -27.444 -14.124  0.00  0.00    -0.380 OA
ATOM     15  H   UNL     1      36.449 -28.289 -13.739  0.00  0.00    +0.211 HD
ENDBRANCH  13  14
ENDBRANCH   8  13
ENDBRANCH   5  12
BRANCH   5  16
ATOM     16  CB  UNL     1      33.829 -23.037 -14.450  0.00  0.00    +0.027 C 
ATOM     17  CG1 UNL     1      33.733 -24.251 -13.519  0.00  0.00    +0.002 C 
ATOM     18  CG2 UNL     1      32.742 -23.139 -15.524  0.00  0.00    +0.002 C 
ENDBRANCH   5  16
ENDBRANCH   2   5
BRANCH   3  19
ATOM     19  C   UNL     1      35.911 -21.966 -18.702  0.00  0.00    +0.086 C 
BRANCH  19  20
ATOM     20  C   UNL     1      36.519 -20.669 -19.279  0.00  0.00    +0.010 C 
BRANCH  20  21
ATOM     21  C   UNL     1      36.141 -20.372 -20.736  0.00  0.00    +0.001 C 
BRANCH  21  22
ATOM     22  C   UNL     1      35.553 -18.964 -20.873  0.00  0.00    +0.000 C 
BRANCH  22  23
ATOM     23  C   UNL     1      34.209 -18.936 -21.606  0.00  0.00    +0.000 C 
ATOM     24  C   UNL     1      33.087 -19.624 -20.844  0.00  0.00    +0.000 C 
ENDBRANCH  22  23
ENDBRANCH  21  22
ENDBRANCH  20  21
ENDBRANCH  19  20
BRANCH  19  25
ATOM     25  C   UNL     1      34.410 -22.127 -18.989  0.00  0.00    +0.096 C 
BRANCH  25  28
ATOM     26  O   UNL     1      33.408 -24.181 -18.187  0.00  0.00    -0.273 OA
ATOM     27  N   UNL     1      34.269 -24.109 -20.328  0.00  0.00    -0.197 N 
ATOM     28  C   UNL     1      33.960 -23.574 -19.100  0.00  0.00    +0.245 C 
ATOM     29  H   UNL     1      34.712 -23.583 -21.032  0.00  0.00    +0.182 HD
BRANCH  27  30
ATOM     30  O   UNL     1      33.914 -25.452 -20.516  0.00  0.00    -0.295 OA
ATOM     31  H   UNL     1      34.410 -25.815 -21.267  0.00  0.00    +0.241 HD
ENDBRANCH  27  30
ENDBRANCH  25  28
ENDBRANCH  19  25
ENDBRANCH   3  19
TORSDOF 13
ENDMDL
MODEL 2
REMARK VINA RESULT:      -7.7      8.384     11.939
REMARK  Name = 443600
REMARK  13 active torsions:
REMARK  status: ('A' for Active; 'I' for Inactive)
REMARK    1  A    between atoms: N_2  and  CA_5
REMARK    2  A    between atoms: C_3  and  C_19
REMARK    3  A    between atoms: CA_5  and  C_12
REMARK    4  A    between atoms: CA_5  and  CB_16
REMARK    5  A    between atoms: CA_8  and  C_13
REMARK    6  A    between atoms: C_13  and  O_14
REMARK    7  A    between atoms: C_19  and  C_20
REMARK    8  A    between atoms: C_19  and  C_25
REMARK    9  A    between atoms: C_20  and  C_21
REMARK   10  A    between atoms: C_21  and  C_22
REMARK   11  A    between atoms: C_22  and  C_23
REMARK   12  A    between atoms: C_25  and  C_28
REMARK   13  A    between atoms: N_27  and  O_30
REMARK                            x       y       z     vdW  Elec       q    Type
REMARK                         _______ _______ _______ _____ _____    ______ ____
ROOT
ATOM      1  O   UNL     1      32.218 -13.344 -23.736  0.00  0.00    -0.275 OA
ATOM      2  N   UNL     1      34.432 -13.663 -23.133  0.00  0.00    -0.298 N 
ATOM      3  C   ACE A   0      33.405 -13.033 -23.821  0.00  0.00    +0.223 C 
ATOM      4  H   UNL     1      35.355 -13.348 -23.262  0.00  0.00    +0.150 HD
ENDROOT
BRANCH   2   5
ATOM      5  CA  UNL     1      34.188 -14.765 -22.234  0.00  0.00    +0.149 C 
BRANCH   5  12
ATOM      6  O   UNL     1      34.168 -15.958 -24.294  0.00  0.00    -0.273 OA
ATOM      7  N   UNL     1      35.083 -17.032 -22.461  0.00  0.00    -0.277 N 
ATOM      8  CA  UNL     1      35.519 -18.236 -23.172  0.00  0.00    +0.105 C 
ATOM      9  CB  UNL     1      36.492 -18.903 -22.198  0.00  0.00    +0.024 C 
ATOM     10  CD  UNL     1      35.464 -17.085 -21.051  0.00  0.00    +0.094 C 
ATOM     11  CG  UNL     1      35.948 -18.510 -20.830  0.00  0.00    +0.023 C 
ATOM     12  C   UNL     1      34.475 -15.966 -23.101  0.00  0.00    +0.244 C 
BRANCH   8  13
ATOM     13  C   UNL     1      34.336 -19.140 -23.516  0.00  0.00    +0.157 C 
BRANCH  13  14
ATOM     14  O   UNL     1      34.033 -18.980 -24.889  0.00  0.00    -0.380 OA
ATOM     15  H   UNL     1      34.129 -19.832 -25.343  0.00  0.00    +0.211 HD
ENDBRANCH  13  14
ENDBRANCH   8  13
ENDBRANCH   5  12
BRANCH   5  16
ATOM     16  CB  UNL     1      32.754 -14.777 -21.681  0.00  0.00    +0.027 C 
ATOM     17  CG1 UNL     1      32.561 -13.697 -20.611  0.00  0.00    +0.002 C 
ATOM     18  CG2 UNL     1      32.403 -16.145 -21.085  0.00  0.00    +0.002 C 
ENDBRANCH   5  16
ENDBRANCH   2   5
BRANCH   3  19
ATOM     19  C   UNL     1      33.904 -11.903 -24.726  0.00  0.00    +0.086 C 
BRANCH  19  20
ATOM     20  C   UNL     1      33.753 -10.536 -24.025  0.00  0.00    +0.010 C 
BRANCH  20  21
ATOM     21  C   UNL     1      34.837  -9.508 -24.374  0.00  0.00    +0.001 C 
BRANCH  21  22
ATOM     22  C   UNL     1      34.625  -8.203 -23.601  0.00  0.00    +0.000 C 
BRANCH  22  23
ATOM     23  C   UNL     1      34.508  -6.974 -24.506  0.00  0.00    +0.000 C 
ATOM     24  C   UNL     1      33.137  -6.316 -24.464  0.00  0.00    +0.000 C 
ENDBRANCH  22  23
ENDBRANCH  21  22
ENDBRANCH  20  21
ENDBRANCH  19  20
BRANCH  19  25
ATOM     25  C   UNL     1      33.221 -11.972 -26.102  0.00  0.00    +0.096 C 
BRANCH  25  28
ATOM     26  O   UNL     1      34.223 -13.360 -27.814  0.00  0.00    -0.273 OA
ATOM     27  N   UNL     1      32.746 -14.311 -26.316  0.00  0.00    -0.197 N 
ATOM     28  C   UNL     1      33.473 -13.273 -26.846  0.00  0.00    +0.245 C 
ATOM     29  H   UNL     1      32.157 -14.193 -25.536  0.00  0.00    +0.182 HD
BRANCH  27  30
ATOM     30  O   UNL     1      32.895 -15.550 -26.955  0.00  0.00    -0.295 OA
ATOM     31  H   UNL     1      32.129 -15.711 -27.529  0.00  0.00    +0.241 HD
ENDBRANCH  27  30
ENDBRANCH  25  28
ENDBRANCH  19  25
ENDBRANCH   3  19
TORSDOF 13
ENDMDL
MODEL 3
REMARK VINA RESULT:      -7.7      8.029     13.196
REMARK  Name = 443600
REMARK  13 active torsions:
REMARK  status: ('A' for Active; 'I' for Inactive)
REMARK    1  A    between atoms: N_2  and  CA_5
REMARK    2  A    between atoms: C_3  and  C_19
REMARK    3  A    between atoms: CA_5  and  C_12
REMARK    4  A    between atoms: CA_5  and  CB_16
REMARK    5  A    between atoms: CA_8  and  C_13
REMARK    6  A    between atoms: C_13  and  O_14
REMARK    7  A    between atoms: C_19  and  C_20
REMARK    8  A    between atoms: C_19  and  C_25
REMARK    9  A    between atoms: C_20  and  C_21
REMARK   10  A    between atoms: C_21  and  C_22
REMARK   11  A    between atoms: C_22  and  C_23
REMARK   12  A    between atoms: C_25  and  C_28
REMARK   13  A    between atoms: N_27  and  O_30
REMARK                            x       y       z     vdW  Elec       q    Type
REMARK                         _______ _______ _______ _____ _____    ______ ____
ROOT
ATOM      1  O   UNL     1      35.704 -15.754 -24.278  0.00  0.00    -0.275 OA
ATOM      2  N   UNL     1      33.786 -14.702 -23.516  0.00  0.00    -0.298 N 
ATOM      3  C   ACE A   0      34.785 -15.663 -23.465  0.00  0.00    +0.223 C 
ATOM      4  H   UNL     1      33.088 -14.703 -22.823  0.00  0.00    +0.150 HD
ENDROOT
BRANCH   2   5
ATOM      5  CA  UNL     1      33.738 -13.702 -24.556  0.00  0.00    +0.149 C 
BRANCH   5  12
ATOM      6  O   UNL     1      32.425 -12.569 -22.924  0.00  0.00    -0.273 OA
ATOM      7  N   UNL     1      33.866 -11.284 -24.198  0.00  0.00    -0.277 N 
ATOM      8  CA  UNL     1      33.607 -10.015 -23.515  0.00  0.00    +0.105 C 
ATOM      9  CB  UNL     1      34.759  -9.114 -23.969  0.00  0.00    +0.024 C 
ATOM     10  CD  UNL     1      34.876 -11.125 -25.242  0.00  0.00    +0.094 C 
ATOM     11  CG  UNL     1      35.073  -9.622 -25.370  0.00  0.00    +0.023 C 
ATOM     12  C   UNL     1      33.276 -12.475 -23.810  0.00  0.00    +0.244 C 
BRANCH   8  13
ATOM     13  C   UNL     1      32.243  -9.444 -23.899  0.00  0.00    +0.157 C 
BRANCH  13  14
ATOM     14  O   UNL     1      31.337  -9.695 -22.841  0.00  0.00    -0.380 OA
ATOM     15  H   UNL     1      31.299  -8.922 -22.256  0.00  0.00    +0.211 HD
ENDBRANCH  13  14
ENDBRANCH   8  13
ENDBRANCH   5  12
BRANCH   5  16
ATOM     16  CB  UNL     1      32.784 -14.078 -25.702  0.00  0.00    +0.027 C 
ATOM     17  CG1 UNL     1      32.918 -15.559 -26.074  0.00  0.00    +0.002 C 
ATOM     18  CG2 UNL     1      33.049 -13.221 -26.944  0.00  0.00    +0.002 C 
ENDBRANCH   5  16
ENDBRANCH   2   5
BRANCH   3  19
ATOM     19  C   UNL     1      34.623 -16.625 -22.285  0.00  0.00    +0.086 C 
BRANCH  19  20
ATOM     20  C   UNL     1      34.583 -18.088 -22.775  0.00  0.00    +0.010 C 
BRANCH  20  21
ATOM     21  C   UNL     1      35.670 -18.997 -22.186  0.00  0.00    +0.001 C 
BRANCH  21  22
ATOM     22  C   UNL     1      35.129 -19.801 -21.001  0.00  0.00    +0.000 C 
BRANCH  22  23
ATOM     23  C   UNL     1      33.601 -19.901 -20.982  0.00  0.00    +0.000 C 
ATOM     24  C   UNL     1      33.062 -20.749 -19.840  0.00  0.00    +0.000 C 
ENDBRANCH  22  23
ENDBRANCH  21  22
ENDBRANCH  20  21
ENDBRANCH  19  20
BRANCH  19  25
ATOM     25  C   UNL     1      33.412 -16.226 -21.426  0.00  0.00    +0.096 C 
BRANCH  25  28
ATOM     26  O   UNL     1      34.657 -14.490 -20.287  0.00  0.00    -0.273 OA
ATOM     27  N   UNL     1      32.382 -14.233 -20.585  0.00  0.00    -0.197 N 
ATOM     28  C   UNL     1      33.579 -14.896 -20.712  0.00  0.00    +0.245 C 
ATOM     29  H   UNL     1      31.541 -14.598 -20.943  0.00  0.00    +0.182 HD
BRANCH  27  30
ATOM     30  O   UNL     1      32.433 -13.003 -19.915  0.00  0.00    -0.295 OA
ATOM     31  H   UNL     1      33.352 -12.805 -19.673  0.00  0.00    +0.241 HD
ENDBRANCH  27  30
ENDBRANCH  25  28
ENDBRANCH  19  25
ENDBRANCH   3  19
TORSDOF 13
ENDMDL
MODEL 4
REMARK VINA RESULT:      -7.5      2.338      4.893
REMARK  Name = 443600
REMARK  13 active torsions:
REMARK  status: ('A' for Active; 'I' for Inactive)
REMARK    1  A    between atoms: N_2  and  CA_5
REMARK    2  A    between atoms: C_3  and  C_19
REMARK    3  A    between atoms: CA_5  and  C_12
REMARK    4  A    between atoms: CA_5  and  CB_16
REMARK    5  A    between atoms: CA_8  and  C_13
REMARK    6  A    between atoms: C_13  and  O_14
REMARK    7  A    between atoms: C_19  and  C_20
REMARK    8  A    between atoms: C_19  and  C_25
REMARK    9  A    between atoms: C_20  and  C_21
REMARK   10  A    between atoms: C_21  and  C_22
REMARK   11  A    between atoms: C_22  and  C_23
REMARK   12  A    between atoms: C_25  and  C_28
REMARK   13  A    between atoms: N_27  and  O_30
REMARK                            x       y       z     vdW  Elec       q    Type
REMARK                         _______ _______ _______ _____ _____    ______ ____
ROOT
ATOM      1  O   UNL     1      33.763 -24.227 -18.348  0.00  0.00    -0.275 OA
ATOM      2  N   UNL     1      34.269 -23.089 -16.394  0.00  0.00    -0.298 N 
ATOM      3  C   ACE A   0      34.046 -23.184 -17.760  0.00  0.00    +0.223 C 
ATOM      4  H   UNL     1      34.491 -22.213 -16.007  0.00  0.00    +0.150 HD
ENDROOT
BRANCH   2   5
ATOM      5  CA  UNL     1      34.186 -24.238 -15.523  0.00  0.00    +0.149 C 
BRANCH   5  12
ATOM      6  O   UNL     1      33.645 -23.546 -13.310  0.00  0.00    -0.273 OA
ATOM      7  N   UNL     1      31.916 -23.620 -14.846  0.00  0.00    -0.277 N 
ATOM      8  CA  UNL     1      30.883 -23.081 -13.960  0.00  0.00    +0.105 C 
ATOM      9  CB  UNL     1      29.750 -22.694 -14.915  0.00  0.00    +0.024 C 
ATOM     10  CD  UNL     1      31.387 -23.871 -16.185  0.00  0.00    +0.094 C 
ATOM     11  CG  UNL     1      29.881 -23.705 -16.046  0.00  0.00    +0.023 C 
ATOM     12  C   UNL     1      33.235 -23.768 -14.451  0.00  0.00    +0.244 C 
BRANCH   8  13
ATOM     13  C   UNL     1      30.438 -24.115 -12.928  0.00  0.00    +0.157 C 
BRANCH  13  14
ATOM     14  O   UNL     1      31.194 -25.296 -13.121  0.00  0.00    -0.380 OA
ATOM     15  H   UNL     1      31.833 -25.159 -13.837  0.00  0.00    +0.211 HD
ENDBRANCH  13  14
ENDBRANCH   8  13
ENDBRANCH   5  12
BRANCH   5  16
ATOM     16  CB  UNL     1      35.551 -24.651 -14.950  0.00  0.00    +0.027 C 
ATOM     17  CG1 UNL     1      36.652 -23.672 -15.372  0.00  0.00    +0.002 C 
ATOM     18  CG2 UNL     1      35.934 -26.065 -15.402  0.00  0.00    +0.002 C 
ENDBRANCH   5  16
ENDBRANCH   2   5
BRANCH   3  19
ATOM     19  C   UNL     1      34.203 -21.842 -18.481  0.00  0.00    +0.086 C 
BRANCH  19  20
ATOM     20  C   UNL     1      32.891 -21.447 -19.191  0.00  0.00    +0.010 C 
BRANCH  20  21
ATOM     21  C   UNL     1      33.068 -20.887 -20.609  0.00  0.00    +0.001 C 
BRANCH  21  22
ATOM     22  C   UNL     1      32.901 -19.364 -20.621  0.00  0.00    +0.000 C 
BRANCH  22  23
ATOM     23  C   UNL     1      34.084 -18.629 -21.257  0.00  0.00    +0.000 C 
ATOM     24  C   UNL     1      34.630 -19.316 -22.499  0.00  0.00    +0.000 C 
ENDBRANCH  22  23
ENDBRANCH  21  22
ENDBRANCH  20  21
ENDBRANCH  19  20
BRANCH  19  25
ATOM     25  C   UNL     1      35.428 -21.869 -19.410  0.00  0.00    +0.096 C 
BRANCH  25  28
ATOM     26  O   UNL     1      36.934 -20.038 -19.898  0.00  0.00    -0.273 OA
ATOM     27  N   UNL     1      36.855 -20.890 -17.753  0.00  0.00    -0.197 N 
ATOM     28  C   UNL     1      36.477 -20.823 -19.073  0.00  0.00    +0.245 C 
ATOM     29  H   UNL     1      36.458 -21.538 -17.128  0.00  0.00    +0.182 HD
BRANCH  27  30
ATOM     30  O   UNL     1      37.840 -19.977 -17.353  0.00  0.00    -0.295 OA
ATOM     31  H   UNL     1      37.592 -19.085 -17.647  0.00  0.00    +0.241 HD
ENDBRANCH  27  30
ENDBRANCH  25  28
ENDBRANCH  19  25
ENDBRANCH   3  19
TORSDOF 13
ENDMDL
MODEL 5
REMARK VINA RESULT:      -7.5      6.294      9.669
REMARK  Name = 443600
REMARK  13 active torsions:
REMARK  status: ('A' for Active; 'I' for Inactive)
REMARK    1  A    between atoms: N_2  and  CA_5
REMARK    2  A    between atoms: C_3  and  C_19
REMARK    3  A    between atoms: CA_5  and  C_12
REMARK    4  A    between atoms: CA_5  and  CB_16
REMARK    5  A    between atoms: CA_8  and  C_13
REMARK    6  A    between atoms: C_13  and  O_14
REMARK    7  A    between atoms: C_19  and  C_20
REMARK    8  A    between atoms: C_19  and  C_25
REMARK    9  A    between atoms: C_20  and  C_21
REMARK   10  A    between atoms: C_21  and  C_22
REMARK   11  A    between atoms: C_22  and  C_23
REMARK   12  A    between atoms: C_25  and  C_28
REMARK   13  A    between atoms: N_27  and  O_30
REMARK                            x       y       z     vdW  Elec       q    Type
REMARK                         _______ _______ _______ _____ _____    ______ ____
ROOT
ATOM      1  O   UNL     1      32.485 -16.911 -21.002  0.00  0.00    -0.275 OA
ATOM      2  N   UNL     1      34.432 -16.773 -22.248  0.00  0.00    -0.298 N 
ATOM      3  C   ACE A   0      33.444 -16.264 -21.419  0.00  0.00    +0.223 C 
ATOM      4  H   UNL     1      35.165 -16.183 -22.535  0.00  0.00    +0.150 HD
ENDROOT
BRANCH   2   5
ATOM      5  CA  UNL     1      34.419 -18.143 -22.704  0.00  0.00    +0.149 C 
BRANCH   5  12
ATOM      6  O   UNL     1      36.350 -18.582 -21.382  0.00  0.00    -0.273 OA
ATOM      7  N   UNL     1      34.450 -19.820 -20.922  0.00  0.00    -0.277 N 
ATOM      8  CA  UNL     1      34.996 -20.541 -19.769  0.00  0.00    +0.105 C 
ATOM      9  CB  UNL     1      33.758 -21.131 -19.089  0.00  0.00    +0.024 C 
ATOM     10  CD  UNL     1      33.055 -20.182 -21.159  0.00  0.00    +0.094 C 
ATOM     11  CG  UNL     1      32.800 -21.374 -20.249  0.00  0.00    +0.023 C 
ATOM     12  C   UNL     1      35.172 -18.860 -21.611  0.00  0.00    +0.244 C 
BRANCH   8  13
ATOM     13  C   UNL     1      35.985 -21.620 -20.203  0.00  0.00    +0.157 C 
BRANCH  13  14
ATOM     14  O   UNL     1      37.298 -21.132 -20.006  0.00  0.00    -0.380 OA
ATOM     15  H   UNL     1      37.867 -21.426 -20.735  0.00  0.00    +0.211 HD
ENDBRANCH  13  14
ENDBRANCH   8  13
ENDBRANCH   5  12
BRANCH   5  16
ATOM     16  CB  UNL     1      35.083 -18.320 -24.079  0.00  0.00    +0.027 C 
ATOM     17  CG1 UNL     1      34.640 -17.227 -25.056  0.00  0.00    +0.002 C 
ATOM     18  CG2 UNL     1      34.755 -19.693 -24.677  0.00  0.00    +0.002 C 
ENDBRANCH   5  16
ENDBRANCH   2   5
BRANCH   3  19
ATOM     19  C   UNL     1      33.658 -14.786 -21.079  0.00  0.00    +0.086 C 
BRANCH  19  20
ATOM     20  C   UNL     1      32.305 -14.064 -20.907  0.00  0.00    +0.010 C 
BRANCH  20  21
ATOM     21  C   UNL     1      32.341 -12.832 -19.993  0.00  0.00    +0.001 C 
BRANCH  21  22
ATOM     22  C   UNL     1      31.524 -11.683 -20.589  0.00  0.00    +0.000 C 
BRANCH  22  23
ATOM     23  C   UNL     1      31.187 -10.587 -19.574  0.00  0.00    +0.000 C 
ATOM     24  C   UNL     1      31.954  -9.294 -19.799  0.00  0.00    +0.000 C 
ENDBRANCH  22  23
ENDBRANCH  21  22
ENDBRANCH  20  21
ENDBRANCH  19  20
BRANCH  19  25
ATOM     25  C   UNL     1      34.587 -14.125 -22.111  0.00  0.00    +0.096 C 
BRANCH  25  28
ATOM     26  O   UNL     1      33.147 -14.387 -24.040  0.00  0.00    -0.273 OA
ATOM     27  N   UNL     1      34.162 -12.348 -23.662  0.00  0.00    -0.197 N 
ATOM     28  C   UNL     1      33.873 -13.659 -23.368  0.00  0.00    +0.245 C 
ATOM     29  H   UNL     1      34.751 -11.802 -23.092  0.00  0.00    +0.182 HD
BRANCH  27  30
ATOM     30  O   UNL     1      33.566 -11.836 -24.823  0.00  0.00    -0.295 OA
ATOM     31  H   UNL     1      34.189 -11.241 -25.270  0.00  0.00    +0.241 HD
ENDBRANCH  27  30
ENDBRANCH  25  28
ENDBRANCH  19  25
ENDBRANCH   3  19
TORSDOF 13
ENDMDL
MODEL 6
REMARK VINA RESULT:      -7.5     11.266     15.967
REMARK  Name = 443600
REMARK  13 active torsions:
REMARK  status: ('A' for Active; 'I' for Inactive)
REMARK    1  A    between atoms: N_2  and  CA_5
REMARK    2  A    between atoms: C_3  and  C_19
REMARK    3  A    between atoms: CA_5  and  C_12
REMARK    4  A    between atoms: CA_5  and  CB_16
REMARK    5  A    between atoms: CA_8  and  C_13
REMARK    6  A    between atoms: C_13  and  O_14
REMARK    7  A    between atoms: C_19  and  C_20
REMARK    8  A    between atoms: C_19  and  C_25
REMARK    9  A    between atoms: C_20  and  C_21
REMARK   10  A    between atoms: C_21  and  C_22
REMARK   11  A    between atoms: C_22  and  C_23
REMARK   12  A    between atoms: C_25  and  C_28
REMARK   13  A    between atoms: N_27  and  O_30
REMARK                            x       y       z     vdW  Elec       q    Type
REMARK                         _______ _______ _______ _____ _____    ______ ____
ROOT
ATOM      1  O   UNL     1      31.939 -10.817 -21.513  0.00  0.00    -0.275 OA
ATOM      2  N   UNL     1      33.223 -10.454 -23.407  0.00  0.00    -0.298 N 
ATOM      3  C   ACE A   0      32.433 -11.222 -22.564  0.00  0.00    +0.223 C 
ATOM      4  H   UNL     1      33.578 -10.860 -24.229  0.00  0.00    +0.150 HD
ENDROOT
BRANCH   2   5
ATOM      5  CA  UNL     1      33.539  -9.076 -23.114  0.00  0.00    +0.149 C 
BRANCH   5  12
ATOM      6  O   UNL     1      31.769  -8.716 -24.665  0.00  0.00    -0.273 OA
ATOM      7  N   UNL     1      31.916  -7.259 -22.873  0.00  0.00    -0.277 N 
ATOM      8  CA  UNL     1      30.703  -6.498 -23.177  0.00  0.00    +0.105 C 
ATOM      9  CB  UNL     1      30.421  -5.730 -21.883  0.00  0.00    +0.024 C 
ATOM     10  CD  UNL     1      32.545  -6.783 -21.644  0.00  0.00    +0.094 C 
ATOM     11  CG  UNL     1      31.810  -5.496 -21.302  0.00  0.00    +0.023 C 
ATOM     12  C   UNL     1      32.326  -8.344 -23.631  0.00  0.00    +0.244 C 
BRANCH   8  13
ATOM     13  C   UNL     1      30.913  -5.564 -24.367  0.00  0.00    +0.157 C 
BRANCH  13  14
ATOM     14  O   UNL     1      30.476  -4.268 -24.004  0.00  0.00    -0.380 OA
ATOM     15  H   UNL     1      29.819  -3.955 -24.646  0.00  0.00    +0.211 HD
ENDBRANCH  13  14
ENDBRANCH   8  13
ENDBRANCH   5  12
BRANCH   5  16
ATOM     16  CB  UNL     1      34.835  -8.605 -23.793  0.00  0.00    +0.027 C 
ATOM     17  CG1 UNL     1      34.667  -7.212 -24.409  0.00  0.00    +0.002 C 
ATOM     18  CG2 UNL     1      35.275  -9.588 -24.884  0.00  0.00    +0.002 C 
ENDBRANCH   5  16
ENDBRANCH   2   5
BRANCH   3  19
ATOM     19  C   UNL     1      32.246 -12.655 -23.070  0.00  0.00    +0.086 C 
BRANCH  19  20
ATOM     20  C   UNL     1      31.969 -13.617 -21.895  0.00  0.00    +0.010 C 
BRANCH  20  21
ATOM     21  C   UNL     1      33.183 -13.917 -21.006  0.00  0.00    +0.001 C 
BRANCH  21  22
ATOM     22  C   UNL     1      33.291 -15.416 -20.713  0.00  0.00    +0.000 C 
BRANCH  22  23
ATOM     23  C   UNL     1      34.724 -15.949 -20.792  0.00  0.00    +0.000 C 
ATOM     24  C   UNL     1      34.810 -17.397 -21.247  0.00  0.00    +0.000 C 
ENDBRANCH  22  23
ENDBRANCH  21  22
ENDBRANCH  20  21
ENDBRANCH  19  20
BRANCH  19  25
ATOM     25  C   UNL     1      33.435 -13.077 -23.949  0.00  0.00    +0.096 C 
BRANCH  25  28
ATOM     26  O   UNL     1      33.613 -15.479 -24.196  0.00  0.00    -0.273 OA
ATOM     27  N   UNL     1      32.603 -14.247 -25.868  0.00  0.00    -0.197 N 
ATOM     28  C   UNL     1      33.233 -14.406 -24.656  0.00  0.00    +0.245 C 
ATOM     29  H   UNL     1      32.316 -13.364 -26.196  0.00  0.00    +0.182 HD
BRANCH  27  30
ATOM     30  O   UNL     1      32.396 -15.419 -26.607  0.00  0.00    -0.295 OA
ATOM     31  H   UNL     1      32.812 -15.329 -27.479  0.00  0.00    +0.241 HD
ENDBRANCH  27  30
ENDBRANCH  25  28
ENDBRANCH  19  25
ENDBRANCH   3  19
TORSDOF 13
ENDMDL
MODEL 7
REMARK VINA RESULT:      -7.4      2.354      5.408
REMARK  Name = 443600
REMARK  13 active torsions:
REMARK  status: ('A' for Active; 'I' for Inactive)
REMARK    1  A    between atoms: N_2  and  CA_5
REMARK    2  A    between atoms: C_3  and  C_19
REMARK    3  A    between atoms: CA_5  and  C_12
REMARK    4  A    between atoms: CA_5  and  CB_16
REMARK    5  A    between atoms: CA_8  and  C_13
REMARK    6  A    between atoms: C_13  and  O_14
REMARK    7  A    between atoms: C_19  and  C_20
REMARK    8  A    between atoms: C_19  and  C_25
REMARK    9  A    between atoms: C_20  and  C_21
REMARK   10  A    between atoms: C_21  and  C_22
REMARK   11  A    between atoms: C_22  and  C_23
REMARK   12  A    between atoms: C_25  and  C_28
REMARK   13  A    between atoms: N_27  and  O_30
REMARK                            x       y       z     vdW  Elec       q    Type
REMARK                         _______ _______ _______ _____ _____    ______ ____
ROOT
ATOM      1  O   UNL     1      33.665 -23.823 -17.865  0.00  0.00    -0.275 OA
ATOM      2  N   UNL     1      34.683 -23.151 -15.896  0.00  0.00    -0.298 N 
ATOM      3  C   ACE A   0      33.599 -23.532 -16.672  0.00  0.00    +0.223 C 
ATOM      4  H   UNL     1      34.538 -22.934 -14.947  0.00  0.00    +0.150 HD
ENDROOT
BRANCH   2   5
ATOM      5  CA  UNL     1      36.019 -23.061 -16.437  0.00  0.00    +0.149 C 
BRANCH   5  12
ATOM      6  O   UNL     1      37.435 -22.424 -14.633  0.00  0.00    -0.273 OA
ATOM      7  N   UNL     1      36.993 -24.681 -14.882  0.00  0.00    -0.277 N 
ATOM      8  CA  UNL     1      37.710 -25.125 -13.685  0.00  0.00    +0.105 C 
ATOM      9  CB  UNL     1      37.207 -26.554 -13.468  0.00  0.00    +0.024 C 
ATOM     10  CD  UNL     1      36.355 -25.805 -15.564  0.00  0.00    +0.094 C 
ATOM     11  CG  UNL     1      36.915 -27.044 -14.881  0.00  0.00    +0.023 C 
ATOM     12  C   UNL     1      36.881 -23.346 -15.233  0.00  0.00    +0.244 C 
BRANCH   8  13
ATOM     13  C   UNL     1      39.222 -25.070 -13.888  0.00  0.00    +0.157 C 
BRANCH  13  14
ATOM     14  O   UNL     1      39.783 -26.280 -13.415  0.00  0.00    -0.380 OA
ATOM     15  H   UNL     1      39.820 -26.264 -12.446  0.00  0.00    +0.211 HD
ENDBRANCH  13  14
ENDBRANCH   8  13
ENDBRANCH   5  12
BRANCH   5  16
ATOM     16  CB  UNL     1      36.320 -21.687 -17.056  0.00  0.00    +0.027 C 
ATOM     17  CG1 UNL     1      36.143 -21.710 -18.578  0.00  0.00    +0.002 C 
ATOM     18  CG2 UNL     1      37.744 -21.231 -16.722  0.00  0.00    +0.002 C 
ENDBRANCH   5  16
ENDBRANCH   2   5
BRANCH   3  19
ATOM     19  C   UNL     1      32.283 -23.540 -15.888  0.00  0.00    +0.086 C 
BRANCH  19  20
ATOM     20  C   UNL     1      31.188 -22.764 -16.651  0.00  0.00    +0.010 C 
BRANCH  20  21
ATOM     21  C   UNL     1      29.932 -22.445 -15.830  0.00  0.00    +0.001 C 
BRANCH  21  22
ATOM     22  C   UNL     1      28.690 -23.084 -16.458  0.00  0.00    +0.000 C 
BRANCH  22  23
ATOM     23  C   UNL     1      28.621 -24.601 -16.260  0.00  0.00    +0.000 C 
ATOM     24  C   UNL     1      29.019 -25.049 -14.862  0.00  0.00    +0.000 C 
ENDBRANCH  22  23
ENDBRANCH  21  22
ENDBRANCH  20  21
ENDBRANCH  19  20
BRANCH  19  25
ATOM     25  C   UNL     1      32.508 -23.043 -14.451  0.00  0.00    +0.096 C 
BRANCH  25  28
ATOM     26  O   UNL     1      32.149 -25.093 -13.213  0.00  0.00    -0.273 OA
ATOM     27  N   UNL     1      34.119 -23.926 -12.913  0.00  0.00    -0.197 N 
ATOM     28  C   UNL     1      32.883 -24.144 -13.473  0.00  0.00    +0.245 C 
ATOM     29  H   UNL     1      34.673 -23.149 -13.154  0.00  0.00    +0.182 HD
BRANCH  27  30
ATOM     30  O   UNL     1      34.541 -24.879 -11.976  0.00  0.00    -0.295 OA
ATOM     31  H   UNL     1      35.482 -25.075 -12.116  0.00  0.00    +0.241 HD
ENDBRANCH  27  30
ENDBRANCH  25  28
ENDBRANCH  19  25
ENDBRANCH   3  19
TORSDOF 13
ENDMDL
MODEL 8
REMARK VINA RESULT:      -7.4      9.252     14.155
REMARK  Name = 443600
REMARK  13 active torsions:
REMARK  status: ('A' for Active; 'I' for Inactive)
REMARK    1  A    between atoms: N_2  and  CA_5
REMARK    2  A    between atoms: C_3  and  C_19
REMARK    3  A    between atoms: CA_5  and  C_12
REMARK    4  A    between atoms: CA_5  and  CB_16
REMARK    5  A    between atoms: CA_8  and  C_13
REMARK    6  A    between atoms: C_13  and  O_14
REMARK    7  A    between atoms: C_19  and  C_20
REMARK    8  A    between atoms: C_19  and  C_25
REMARK    9  A    between atoms: C_20  and  C_21
REMARK   10  A    between atoms: C_21  and  C_22
REMARK   11  A    between atoms: C_22  and  C_23
REMARK   12  A    between atoms: C_25  and  C_28
REMARK   13  A    between atoms: N_27  and  O_30
REMARK                            x       y       z     vdW  Elec       q    Type
REMARK                         _______ _______ _______ _____ _____    ______ ____
ROOT
ATOM      1  O   UNL     1      34.752 -13.304 -22.062  0.00  0.00    -0.275 OA
ATOM      2  N   UNL     1      33.782 -13.021 -24.147  0.00  0.00    -0.298 N 
ATOM      3  C   ACE A   0      34.127 -13.754 -23.021  0.00  0.00    +0.223 C 
ATOM      4  H   UNL     1      33.280 -13.463 -24.868  0.00  0.00    +0.150 HD
ENDROOT
BRANCH   2   5
ATOM      5  CA  UNL     1      34.138 -11.629 -24.292  0.00  0.00    +0.149 C 
BRANCH   5  12
ATOM      6  O   UNL     1      32.060 -11.545 -23.133  0.00  0.00    -0.273 OA
ATOM      7  N   UNL     1      33.299  -9.593 -23.224  0.00  0.00    -0.277 N 
ATOM      8  CA  UNL     1      32.410  -8.791 -22.381  0.00  0.00    +0.105 C 
ATOM      9  CB  UNL     1      33.260  -7.574 -22.008  0.00  0.00    +0.024 C 
ATOM     10  CD  UNL     1      34.473  -8.826 -23.633  0.00  0.00    +0.094 C 
ATOM     11  CG  UNL     1      34.168  -7.394 -23.218  0.00  0.00    +0.023 C 
ATOM     12  C   UNL     1      33.065 -10.931 -23.495  0.00  0.00    +0.244 C 
BRANCH   8  13
ATOM     13  C   UNL     1      31.137  -8.398 -23.129  0.00  0.00    +0.157 C 
BRANCH  13  14
ATOM     14  O   UNL     1      30.800  -7.070 -22.775  0.00  0.00    -0.380 OA
ATOM     15  H   UNL     1      30.389  -7.063 -21.896  0.00  0.00    +0.211 HD
ENDBRANCH  13  14
ENDBRANCH   8  13
ENDBRANCH   5  12
BRANCH   5  16
ATOM     16  CB  UNL     1      34.163 -11.171 -25.760  0.00  0.00    +0.027 C 
ATOM     17  CG1 UNL     1      33.771 -12.311 -26.706  0.00  0.00    +0.002 C 
ATOM     18  CG2 UNL     1      35.549 -10.647 -26.150  0.00  0.00    +0.002 C 
ENDBRANCH   5  16
ENDBRANCH   2   5
BRANCH   3  19
ATOM     19  C   UNL     1      33.657 -15.210 -23.095  0.00  0.00    +0.086 C 
BRANCH  19  20
ATOM     20  C   UNL     1      33.477 -15.798 -21.679  0.00  0.00    +0.010 C 
BRANCH  20  21
ATOM     21  C   UNL     1      34.463 -16.915 -21.314  0.00  0.00    +0.001 C 
BRANCH  21  22
ATOM     22  C   UNL     1      33.722 -18.210 -20.968  0.00  0.00    +0.000 C 
BRANCH  22  23
ATOM     23  C   UNL     1      34.458 -19.471 -21.428  0.00  0.00    +0.000 C 
ATOM     24  C   UNL     1      34.957 -19.395 -22.862  0.00  0.00    +0.000 C 
ENDBRANCH  22  23
ENDBRANCH  21  22
ENDBRANCH  20  21
ENDBRANCH  19  20
BRANCH  19  25
ATOM     25  C   UNL     1      34.593 -16.034 -23.994  0.00  0.00    +0.096 C 
BRANCH  25  28
ATOM     26  O   UNL     1      34.187 -17.647 -25.753  0.00  0.00    -0.273 OA
ATOM     27  N   UNL     1      33.035 -15.646 -25.773  0.00  0.00    -0.197 N 
ATOM     28  C   UNL     1      33.929 -16.554 -25.257  0.00  0.00    +0.245 C 
ATOM     29  H   UNL     1      32.860 -14.780 -25.338  0.00  0.00    +0.182 HD
BRANCH  27  30
ATOM     30  O   UNL     1      32.389 -16.029 -26.956  0.00  0.00    -0.295 OA
ATOM     31  H   UNL     1      32.324 -16.997 -26.990  0.00  0.00    +0.241 HD
ENDBRANCH  27  30
ENDBRANCH  25  28
ENDBRANCH  19  25
ENDBRANCH   3  19
TORSDOF 13
ENDMDL
MODEL 9
REMARK VINA RESULT:      -7.4     11.880     15.811
REMARK  Name = 443600
REMARK  13 active torsions:
REMARK  status: ('A' for Active; 'I' for Inactive)
REMARK    1  A    between atoms: N_2  and  CA_5
REMARK    2  A    between atoms: C_3  and  C_19
REMARK    3  A    between atoms: CA_5  and  C_12
REMARK    4  A    between atoms: CA_5  and  CB_16
REMARK    5  A    between atoms: CA_8  and  C_13
REMARK    6  A    between atoms: C_13  and  O_14
REMARK    7  A    between atoms: C_19  and  C_20
REMARK    8  A    between atoms: C_19  and  C_25
REMARK    9  A    between atoms: C_20  and  C_21
REMARK   10  A    between atoms: C_21  and  C_22
REMARK   11  A    between atoms: C_22  and  C_23
REMARK   12  A    between atoms: C_25  and  C_28
REMARK   13  A    between atoms: N_27  and  O_30
REMARK                            x       y       z     vdW  Elec       q    Type
REMARK                         _______ _______ _______ _____ _____    ______ ____
ROOT
ATOM      1  O   UNL     1      31.723  -8.397 -24.701  0.00  0.00    -0.275 OA
ATOM      2  N   UNL     1      32.865  -9.869 -23.325  0.00  0.00    -0.298 N 
ATOM      3  C   ACE A   0      31.992  -8.822 -23.579  0.00  0.00    +0.223 C 
ATOM      4  H   UNL     1      33.023 -10.144 -22.394  0.00  0.00    +0.150 HD
ENDROOT
BRANCH   2   5
ATOM      5  CA  UNL     1      33.551 -10.569 -24.386  0.00  0.00    +0.149 C 
BRANCH   5  12
ATOM      6  O   UNL     1      33.406 -12.300 -22.759  0.00  0.00    -0.273 OA
ATOM      7  N   UNL     1      33.382 -12.936 -24.983  0.00  0.00    -0.277 N 
ATOM      8  CA  UNL     1      33.175 -14.366 -24.746  0.00  0.00    +0.105 C 
ATOM      9  CB  UNL     1      32.747 -14.905 -26.113  0.00  0.00    +0.024 C 
ATOM     10  CD  UNL     1      33.417 -12.637 -26.413  0.00  0.00    +0.094 C 
ATOM     11  CG  UNL     1      33.477 -13.996 -27.094  0.00  0.00    +0.023 C 
ATOM     12  C   UNL     1      33.438 -12.010 -23.955  0.00  0.00    +0.244 C 
BRANCH   8  13
ATOM     13  C   UNL     1      34.448 -15.037 -24.235  0.00  0.00    +0.157 C 
BRANCH  13  14
ATOM     14  O   UNL     1      34.336 -15.205 -22.834  0.00  0.00    -0.380 OA
ATOM     15  H   UNL     1      33.494 -14.832 -22.529  0.00  0.00    +0.211 HD
ENDBRANCH  13  14
ENDBRANCH   8  13
ENDBRANCH   5  12
BRANCH   5  16
ATOM     16  CB  UNL     1      35.013 -10.122 -24.546  0.00  0.00    +0.027 C 
ATOM     17  CG1 UNL     1      35.201  -8.664 -24.115  0.00  0.00    +0.002 C 
ATOM     18  CG2 UNL     1      35.483 -10.283 -25.996  0.00  0.00    +0.002 C 
ENDBRANCH   5  16
ENDBRANCH   2   5
BRANCH   3  19
ATOM     19  C   UNL     1      31.396  -8.224 -22.301  0.00  0.00    +0.086 C 
BRANCH  19  20
ATOM     20  C   UNL     1      30.842  -6.808 -22.567  0.00  0.00    +0.010 C 
BRANCH  20  21
ATOM     21  C   UNL     1      31.867  -5.676 -22.422  0.00  0.00    +0.001 C 
BRANCH  21  22
ATOM     22  C   UNL     1      31.474  -4.467 -23.275  0.00  0.00    +0.000 C 
BRANCH  22  23
ATOM     23  C   UNL     1      31.279  -4.806 -24.756  0.00  0.00    +0.000 C 
ATOM     24  C   UNL     1      32.580  -5.082 -25.492  0.00  0.00    +0.000 C 
ENDBRANCH  22  23
ENDBRANCH  21  22
ENDBRANCH  20  21
ENDBRANCH  19  20
BRANCH  19  25
ATOM     25  C   UNL     1      32.414  -8.285 -21.151  0.00  0.00    +0.096 C 
BRANCH  25  28
ATOM     26  O   UNL     1      31.748  -8.690 -18.858  0.00  0.00    -0.273 OA
ATOM     27  N   UNL     1      31.858 -10.467 -20.329  0.00  0.00    -0.197 N 
ATOM     28  C   UNL     1      31.964  -9.142 -19.979  0.00  0.00    +0.245 C 
ATOM     29  H   UNL     1      32.041 -10.783 -21.243  0.00  0.00    +0.182 HD
BRANCH  27  30
ATOM     30  O   UNL     1      31.471 -11.340 -19.303  0.00  0.00    -0.295 OA
ATOM     31  H   UNL     1      30.503 -11.346 -19.231  0.00  0.00    +0.241 HD
ENDBRANCH  27  30
ENDBRANCH  25  28
ENDBRANCH  19  25
ENDBRANCH   3  19
TORSDOF 13
ENDMDL
