MODEL 1
REMARK VINA RESULT:      -9.4      0.000      0.000
REMARK  Name = 9904
REMARK  1 active torsions:
REMARK  status: ('A' for Active; 'I' for Inactive)
REMARK    1  A    between atoms: C_7  and  O_20
REMARK                            x       y       z     vdW  Elec       q    Type
REMARK                         _______ _______ _______ _____ _____    ______ ____
ROOT
ATOM      1  O   UNL     1      33.851 -18.911 -21.146  0.00  0.00    -0.291 OA
ATOM      2  C   UNL     1      35.713 -22.721 -15.308  0.00  0.00    +0.002 C 
ATOM      3  C   UNL     1      34.707 -23.796 -14.852  0.00  0.00    +0.025 C 
ATOM      4  C   UNL     1      35.904 -22.708 -16.826  0.00  0.00    +0.001 C 
ATOM      5  C   UNL     1      34.521 -22.403 -17.500  0.00  0.00    +0.004 C 
ATOM      6  C   UNL     1      33.340 -23.466 -15.466  0.00  0.00    +0.002 C 
ATOM      7  C   UNL     1      34.797 -23.589 -13.328  0.00  0.00    +0.110 C 
ATOM      8  C   UNL     1      36.920 -22.956 -14.406  0.00  0.00    +0.003 C 
ATOM      9  C   UNL     1      33.414 -23.360 -17.001  0.00  0.00    +0.000 C 
ATOM     10  C   UNL     1      34.699 -22.412 -19.042  0.00  0.00    +0.019 C 
ATOM     11  C   UNL     1      36.978 -21.695 -17.268  0.00  0.00    +0.004 C 
ATOM     12  C   UNL     1      36.303 -23.392 -13.066  0.00  0.00    +0.029 C 
ATOM     13  C   UNL     1      35.098 -25.249 -15.222  0.00  0.00    +0.002 C 
ATOM     14  C   UNL     1      37.094 -21.615 -18.794  0.00  0.00    +0.022 C 
ATOM     15  C   UNL     1      35.735 -21.356 -19.386  0.00  0.00    -0.042 C 
ATOM     16  C   UNL     1      33.420 -22.230 -19.874  0.00  0.00    +0.012 C 
ATOM     17  C   UNL     1      32.965 -20.782 -19.934  0.00  0.00    +0.069 C 
ATOM     18  C   UNL     1      35.471 -20.234 -20.073  0.00  0.00    +0.029 C 
ATOM     19  C   UNL     1      34.078 -19.910 -20.468  0.00  0.00    +0.173 C 
ENDROOT
BRANCH   7  20
ATOM     20  O   UNL     1      34.274 -24.676 -12.589  0.00  0.00    -0.384 OA
ATOM     21  H   UNL     1      34.818 -24.823 -11.800  0.00  0.00    +0.210 HD
ENDBRANCH   7  20
TORSDOF 1
ENDMDL
MODEL 2
REMARK VINA RESULT:      -9.2      6.586      9.736
REMARK  Name = 9904
REMARK  1 active torsions:
REMARK  status: ('A' for Active; 'I' for Inactive)
REMARK    1  A    between atoms: C_7  and  O_20
REMARK                            x       y       z     vdW  Elec       q    Type
REMARK                         _______ _______ _______ _____ _____    ______ ____
ROOT
ATOM      1  O   UNL     1      34.096 -10.483 -25.502  0.00  0.00    -0.291 OA
ATOM      2  C   UNL     1      35.059 -17.256 -23.208  0.00  0.00    +0.002 C 
ATOM      3  C   UNL     1      34.820 -17.502 -21.705  0.00  0.00    +0.025 C 
ATOM      4  C   UNL     1      33.990 -16.355 -23.828  0.00  0.00    +0.001 C 
ATOM      5  C   UNL     1      34.017 -14.969 -23.094  0.00  0.00    +0.004 C 
ATOM      6  C   UNL     1      34.903 -16.154 -20.978  0.00  0.00    +0.002 C 
ATOM      7  C   UNL     1      35.992 -18.462 -21.421  0.00  0.00    +0.110 C 
ATOM      8  C   UNL     1      35.272 -18.658 -23.770  0.00  0.00    +0.003 C 
ATOM      9  C   UNL     1      33.910 -15.129 -21.560  0.00  0.00    +0.000 C 
ATOM     10  C   UNL     1      32.918 -14.056 -23.699  0.00  0.00    +0.019 C 
ATOM     11  C   UNL     1      34.181 -16.187 -25.348  0.00  0.00    +0.004 C 
ATOM     12  C   UNL     1      36.008 -19.402 -22.643  0.00  0.00    +0.029 C 
ATOM     13  C   UNL     1      33.471 -18.185 -21.366  0.00  0.00    +0.002 C 
ATOM     14  C   UNL     1      33.168 -15.206 -25.946  0.00  0.00    +0.022 C 
ATOM     15  C   UNL     1      33.215 -13.911 -25.182  0.00  0.00    -0.042 C 
ATOM     16  C   UNL     1      32.730 -12.685 -23.032  0.00  0.00    +0.012 C 
ATOM     17  C   UNL     1      33.793 -11.684 -23.448  0.00  0.00    +0.069 C 
ATOM     18  C   UNL     1      33.581 -12.762 -25.770  0.00  0.00    +0.029 C 
ATOM     19  C   UNL     1      33.816 -11.545 -24.952  0.00  0.00    +0.173 C 
ENDROOT
BRANCH   7  20
ATOM     20  O   UNL     1      35.842 -19.177 -20.211  0.00  0.00    -0.384 OA
ATOM     21  H   UNL     1      36.565 -18.946 -19.607  0.00  0.00    +0.210 HD
ENDBRANCH   7  20
TORSDOF 1
ENDMDL
MODEL 3
REMARK VINA RESULT:      -9.2      3.402      6.030
REMARK  Name = 9904
REMARK  1 active torsions:
REMARK  status: ('A' for Active; 'I' for Inactive)
REMARK    1  A    between atoms: C_7  and  O_20
REMARK                            x       y       z     vdW  Elec       q    Type
REMARK                         _______ _______ _______ _____ _____    ______ ____
ROOT
ATOM      1  O   UNL     1      39.296 -26.492 -14.383  0.00  0.00    -0.291 OA
ATOM      2  C   UNL     1      32.837 -23.614 -15.820  0.00  0.00    +0.002 C 
ATOM      3  C   UNL     1      31.765 -23.776 -14.724  0.00  0.00    +0.025 C 
ATOM      4  C   UNL     1      34.203 -23.234 -15.248  0.00  0.00    +0.001 C 
ATOM      5  C   UNL     1      34.668 -24.369 -14.270  0.00  0.00    +0.004 C 
ATOM      6  C   UNL     1      32.191 -24.924 -13.800  0.00  0.00    +0.002 C 
ATOM      7  C   UNL     1      30.544 -24.081 -15.614  0.00  0.00    +0.110 C 
ATOM      8  C   UNL     1      32.171 -22.693 -16.838  0.00  0.00    +0.003 C 
ATOM      9  C   UNL     1      33.592 -24.688 -13.206  0.00  0.00    +0.000 C 
ATOM     10  C   UNL     1      36.043 -23.981 -13.664  0.00  0.00    +0.019 C 
ATOM     11  C   UNL     1      35.248 -22.985 -16.353  0.00  0.00    +0.004 C 
ATOM     12  C   UNL     1      30.689 -23.102 -16.796  0.00  0.00    +0.029 C 
ATOM     13  C   UNL     1      31.507 -22.504 -13.877  0.00  0.00    +0.002 C 
ATOM     14  C   UNL     1      36.637 -22.701 -15.772  0.00  0.00    +0.022 C 
ATOM     15  C   UNL     1      37.014 -23.803 -14.819  0.00  0.00    -0.042 C 
ATOM     16  C   UNL     1      36.610 -24.933 -12.601  0.00  0.00    +0.012 C 
ATOM     17  C   UNL     1      37.229 -26.181 -13.206  0.00  0.00    +0.069 C 
ATOM     18  C   UNL     1      38.069 -24.599 -15.047  0.00  0.00    +0.029 C 
ATOM     19  C   UNL     1      38.297 -25.799 -14.204  0.00  0.00    +0.173 C 
ENDROOT
BRANCH   7  20
ATOM     20  O   UNL     1      29.312 -23.913 -14.942  0.00  0.00    -0.384 OA
ATOM     21  H   UNL     1      28.858 -24.768 -14.879  0.00  0.00    +0.210 HD
ENDBRANCH   7  20
TORSDOF 1
ENDMDL
MODEL 4
REMARK VINA RESULT:      -9.0      9.986     14.242
REMARK  Name = 9904
REMARK  1 active torsions:
REMARK  status: ('A' for Active; 'I' for Inactive)
REMARK    1  A    between atoms: C_7  and  O_20
REMARK                            x       y       z     vdW  Elec       q    Type
REMARK                         _______ _______ _______ _____ _____    ______ ____
ROOT
ATOM      1  O   UNL     1      34.627 -15.642 -21.230  0.00  0.00    -0.291 OA
ATOM      2  C   UNL     1      32.457  -8.782 -21.771  0.00  0.00    +0.002 C 
ATOM      3  C   UNL     1      32.502  -8.167 -23.184  0.00  0.00    +0.025 C 
ATOM      4  C   UNL     1      31.898 -10.206 -21.773  0.00  0.00    +0.001 C 
ATOM      5  C   UNL     1      32.821 -11.103 -22.669  0.00  0.00    +0.004 C 
ATOM      6  C   UNL     1      33.449  -9.011 -24.046  0.00  0.00    +0.002 C 
ATOM      7  C   UNL     1      33.031  -6.764 -22.827  0.00  0.00    +0.110 C 
ATOM      8  C   UNL     1      31.763  -7.709 -20.937  0.00  0.00    +0.003 C 
ATOM      9  C   UNL     1      33.027 -10.492 -24.074  0.00  0.00    +0.000 C 
ATOM     10  C   UNL     1      32.248 -12.545 -22.698  0.00  0.00    +0.019 C 
ATOM     11  C   UNL     1      31.769 -10.782 -20.349  0.00  0.00    +0.004 C 
ATOM     12  C   UNL     1      32.256  -6.386 -21.549  0.00  0.00    +0.029 C 
ATOM     13  C   UNL     1      31.126  -8.059 -23.889  0.00  0.00    +0.002 C 
ATOM     14  C   UNL     1      31.303 -12.241 -20.364  0.00  0.00    +0.022 C 
ATOM     15  C   UNL     1      32.203 -13.044 -21.263  0.00  0.00    -0.042 C 
ATOM     16  C   UNL     1      32.971 -13.545 -23.613  0.00  0.00    +0.012 C 
ATOM     17  C   UNL     1      34.259 -14.068 -23.002  0.00  0.00    +0.069 C 
ATOM     18  C   UNL     1      32.956 -14.048 -20.789  0.00  0.00    +0.029 C 
ATOM     19  C   UNL     1      33.980 -14.686 -21.652  0.00  0.00    +0.173 C 
ENDROOT
BRANCH   7  20
ATOM     20  O   UNL     1      32.833  -5.818 -23.859  0.00  0.00    -0.384 OA
ATOM     21  H   UNL     1      33.032  -4.929 -23.526  0.00  0.00    +0.210 HD
ENDBRANCH   7  20
TORSDOF 1
ENDMDL
MODEL 5
REMARK VINA RESULT:      -8.4      3.040      4.685
REMARK  Name = 9904
REMARK  1 active torsions:
REMARK  status: ('A' for Active; 'I' for Inactive)
REMARK    1  A    between atoms: C_7  and  O_20
REMARK                            x       y       z     vdW  Elec       q    Type
REMARK                         _______ _______ _______ _____ _____    ______ ____
ROOT
ATOM      1  O   UNL     1      28.380 -21.893 -15.280  0.00  0.00    -0.291 OA
ATOM      2  C   UNL     1      35.489 -23.123 -15.247  0.00  0.00    +0.002 C 
ATOM      3  C   UNL     1      36.014 -24.032 -14.118  0.00  0.00    +0.025 C 
ATOM      4  C   UNL     1      34.198 -23.654 -15.870  0.00  0.00    +0.001 C 
ATOM      5  C   UNL     1      33.100 -23.731 -14.753  0.00  0.00    +0.004 C 
ATOM      6  C   UNL     1      34.965 -24.063 -12.999  0.00  0.00    +0.002 C 
ATOM      7  C   UNL     1      37.309 -23.273 -13.769  0.00  0.00    +0.110 C 
ATOM      8  C   UNL     1      36.714 -22.911 -16.132  0.00  0.00    +0.003 C 
ATOM      9  C   UNL     1      33.590 -24.524 -13.519  0.00  0.00    +0.000 C 
ATOM     10  C   UNL     1      31.791 -24.293 -15.370  0.00  0.00    +0.019 C 
ATOM     11  C   UNL     1      33.728 -22.791 -17.057  0.00  0.00    +0.004 C 
ATOM     12  C   UNL     1      37.889 -22.872 -15.139  0.00  0.00    +0.029 C 
ATOM     13  C   UNL     1      36.343 -25.483 -14.553  0.00  0.00    +0.002 C 
ATOM     14  C   UNL     1      32.383 -23.269 -17.614  0.00  0.00    +0.022 C 
ATOM     15  C   UNL     1      31.382 -23.357 -16.494  0.00  0.00    -0.042 C 
ATOM     16  C   UNL     1      30.629 -24.534 -14.395  0.00  0.00    +0.012 C 
ATOM     17  C   UNL     1      29.905 -23.252 -14.023  0.00  0.00    +0.069 C 
ATOM     18  C   UNL     1      30.279 -22.593 -16.477  0.00  0.00    +0.029 C 
ATOM     19  C   UNL     1      29.418 -22.551 -15.269  0.00  0.00    +0.173 C 
ENDROOT
BRANCH   7  20
ATOM     20  O   UNL     1      38.222 -24.050 -13.020  0.00  0.00    -0.384 OA
ATOM     21  H   UNL     1      38.271 -23.707 -12.113  0.00  0.00    +0.210 HD
ENDBRANCH   7  20
TORSDOF 1
ENDMDL
MODEL 6
REMARK VINA RESULT:      -8.4      8.064     11.824
REMARK  Name = 9904
REMARK  1 active torsions:
REMARK  status: ('A' for Active; 'I' for Inactive)
REMARK    1  A    between atoms: C_7  and  O_20
REMARK                            x       y       z     vdW  Elec       q    Type
REMARK                         _______ _______ _______ _____ _____    ______ ____
ROOT
ATOM      1  O   UNL     1      36.010 -17.512 -22.578  0.00  0.00    -0.291 OA
ATOM      2  C   UNL     1      32.317 -11.611 -20.680  0.00  0.00    +0.002 C 
ATOM      3  C   UNL     1      32.007 -10.612 -21.813  0.00  0.00    +0.025 C 
ATOM      4  C   UNL     1      32.094 -13.063 -21.105  0.00  0.00    +0.001 C 
ATOM      5  C   UNL     1      33.043 -13.381 -22.312  0.00  0.00    +0.004 C 
ATOM      6  C   UNL     1      32.973 -10.886 -22.972  0.00  0.00    +0.002 C 
ATOM      7  C   UNL     1      32.260  -9.293 -21.057  0.00  0.00    +0.110 C 
ATOM      8  C   UNL     1      31.540 -11.054 -19.490  0.00  0.00    +0.003 C 
ATOM      9  C   UNL     1      32.890 -12.347 -23.452  0.00  0.00    +0.000 C 
ATOM     10  C   UNL     1      32.807 -14.845 -22.768  0.00  0.00    +0.019 C 
ATOM     11  C   UNL     1      32.317 -14.050 -19.943  0.00  0.00    +0.004 C 
ATOM     12  C   UNL     1      31.627  -9.528 -19.672  0.00  0.00    +0.029 C 
ATOM     13  C   UNL     1      30.549 -10.659 -22.338  0.00  0.00    +0.002 C 
ATOM     14  C   UNL     1      32.189 -15.507 -20.398  0.00  0.00    +0.022 C 
ATOM     15  C   UNL     1      33.095 -15.743 -21.576  0.00  0.00    -0.042 C 
ATOM     16  C   UNL     1      33.584 -15.304 -24.011  0.00  0.00    +0.012 C 
ATOM     17  C   UNL     1      35.034 -15.632 -23.705  0.00  0.00    +0.069 C 
ATOM     18  C   UNL     1      34.116 -16.612 -21.515  0.00  0.00    +0.029 C 
ATOM     19  C   UNL     1      35.110 -16.675 -22.614  0.00  0.00    +0.173 C 
ENDROOT
BRANCH   7  20
ATOM     20  O   UNL     1      31.701  -8.168 -21.706  0.00  0.00    -0.384 OA
ATOM     21  H   UNL     1      32.035  -7.357 -21.291  0.00  0.00    +0.210 HD
ENDBRANCH   7  20
TORSDOF 1
ENDMDL
MODEL 7
REMARK VINA RESULT:      -7.9      3.048      7.983
REMARK  Name = 9904
REMARK  1 active torsions:
REMARK  status: ('A' for Active; 'I' for Inactive)
REMARK    1  A    between atoms: C_7  and  O_20
REMARK                            x       y       z     vdW  Elec       q    Type
REMARK                         _______ _______ _______ _____ _____    ______ ____
ROOT
ATOM      1  O   UNL     1      35.879 -22.799 -17.007  0.00  0.00    -0.291 OA
ATOM      2  C   UNL     1      33.698 -17.318 -21.162  0.00  0.00    +0.002 C 
ATOM      3  C   UNL     1      34.753 -16.735 -22.123  0.00  0.00    +0.025 C 
ATOM      4  C   UNL     1      33.719 -18.847 -21.131  0.00  0.00    +0.001 C 
ATOM      5  C   UNL     1      35.135 -19.317 -20.648  0.00  0.00    +0.004 C 
ATOM      6  C   UNL     1      36.142 -17.147 -21.619  0.00  0.00    +0.002 C 
ATOM      7  C   UNL     1      34.428 -15.236 -21.969  0.00  0.00    +0.110 C 
ATOM      8  C   UNL     1      32.414 -16.597 -21.561  0.00  0.00    +0.003 C 
ATOM      9  C   UNL     1      36.269 -18.676 -21.481  0.00  0.00    +0.000 C 
ATOM     10  C   UNL     1      35.175 -20.869 -20.638  0.00  0.00    +0.019 C 
ATOM     11  C   UNL     1      32.603 -19.426 -20.240  0.00  0.00    +0.004 C 
ATOM     12  C   UNL     1      32.887 -15.187 -21.957  0.00  0.00    +0.029 C 
ATOM     13  C   UNL     1      34.594 -17.170 -23.602  0.00  0.00    +0.002 C 
ATOM     14  C   UNL     1      32.690 -20.952 -20.135  0.00  0.00    +0.022 C 
ATOM     15  C   UNL     1      34.076 -21.344 -19.702  0.00  0.00    -0.042 C 
ATOM     16  C   UNL     1      36.525 -21.511 -20.285  0.00  0.00    +0.012 C 
ATOM     17  C   UNL     1      36.806 -21.493 -18.792  0.00  0.00    +0.069 C 
ATOM     18  C   UNL     1      34.297 -21.977 -18.540  0.00  0.00    +0.029 C 
ATOM     19  C   UNL     1      35.682 -22.169 -18.044  0.00  0.00    +0.173 C 
ENDROOT
BRANCH   7  20
ATOM     20  O   UNL     1      34.971 -14.443 -23.006  0.00  0.00    -0.384 OA
ATOM     21  H   UNL     1      34.475 -14.597 -23.825  0.00  0.00    +0.210 HD
ENDBRANCH   7  20
TORSDOF 1
ENDMDL
MODEL 8
REMARK VINA RESULT:      -7.7      7.888     11.122
REMARK  Name = 9904
REMARK  1 active torsions:
REMARK  status: ('A' for Active; 'I' for Inactive)
REMARK    1  A    between atoms: C_7  and  O_20
REMARK                            x       y       z     vdW  Elec       q    Type
REMARK                         _______ _______ _______ _____ _____    ______ ____
ROOT
ATOM      1  O   UNL     1      32.306  -7.830 -20.106  0.00  0.00    -0.291 OA
ATOM      2  C   UNL     1      34.090 -14.490 -22.233  0.00  0.00    +0.002 C 
ATOM      3  C   UNL     1      33.712 -15.633 -21.269  0.00  0.00    +0.025 C 
ATOM      4  C   UNL     1      32.970 -13.458 -22.381  0.00  0.00    +0.001 C 
ATOM      5  C   UNL     1      32.677 -12.835 -20.972  0.00  0.00    +0.004 C 
ATOM      6  C   UNL     1      33.481 -15.031 -19.877  0.00  0.00    +0.002 C 
ATOM      7  C   UNL     1      34.983 -16.495 -21.397  0.00  0.00    +0.110 C 
ATOM      8  C   UNL     1      34.599 -15.222 -23.471  0.00  0.00    +0.003 C 
ATOM      9  C   UNL     1      32.411 -13.923 -19.906  0.00  0.00    +0.000 C 
ATOM     10  C   UNL     1      31.525 -11.804 -21.106  0.00  0.00    +0.019 C 
ATOM     11  C   UNL     1      33.316 -12.369 -23.414  0.00  0.00    +0.004 C 
ATOM     12  C   UNL     1      35.305 -16.466 -22.904  0.00  0.00    +0.029 C 
ATOM     13  C   UNL     1      32.464 -16.450 -21.689  0.00  0.00    +0.002 C 
ATOM     14  C   UNL     1      32.236 -11.286 -23.485  0.00  0.00    +0.022 C 
ATOM     15  C   UNL     1      31.974 -10.750 -22.104  0.00  0.00    -0.042 C 
ATOM     16  C   UNL     1      31.032 -11.162 -19.801  0.00  0.00    +0.012 C 
ATOM     17  C   UNL     1      31.957 -10.064 -19.305  0.00  0.00    +0.069 C 
ATOM     18  C   UNL     1      32.214  -9.468 -21.790  0.00  0.00    +0.029 C 
ATOM     19  C   UNL     1      32.141  -9.017 -20.379  0.00  0.00    +0.173 C 
ENDROOT
BRANCH   7  20
ATOM     20  O   UNL     1      34.806 -17.816 -20.924  0.00  0.00    -0.384 OA
ATOM     21  H   UNL     1      34.978 -17.844 -19.970  0.00  0.00    +0.210 HD
ENDBRANCH   7  20
TORSDOF 1
ENDMDL
MODEL 9
REMARK VINA RESULT:      -7.7     13.867     18.034
REMARK  Name = 9904
REMARK  1 active torsions:
REMARK  status: ('A' for Active; 'I' for Inactive)
REMARK    1  A    between atoms: C_7  and  O_20
REMARK                            x       y       z     vdW  Elec       q    Type
REMARK                         _______ _______ _______ _____ _____    ______ ____
ROOT
ATOM      1  O   UNL     1      32.780 -12.284 -23.261  0.00  0.00    -0.291 OA
ATOM      2  C   UNL     1      32.277  -5.310 -25.041  0.00  0.00    +0.002 C 
ATOM      3  C   UNL     1      31.294  -4.466 -24.204  0.00  0.00    +0.025 C 
ATOM      4  C   UNL     1      33.114  -6.256 -24.178  0.00  0.00    +0.001 C 
ATOM      5  C   UNL     1      32.146  -7.234 -23.426  0.00  0.00    +0.004 C 
ATOM      6  C   UNL     1      30.311  -5.419 -23.512  0.00  0.00    +0.002 C 
ATOM      7  C   UNL     1      30.681  -3.610 -25.329  0.00  0.00    +0.110 C 
ATOM      8  C   UNL     1      32.981  -4.275 -25.914  0.00  0.00    +0.003 C 
ATOM      9  C   UNL     1      31.042  -6.472 -22.657  0.00  0.00    +0.000 C 
ATOM     10  C   UNL     1      32.984  -8.182 -22.528  0.00  0.00    +0.019 C 
ATOM     11  C   UNL     1      34.157  -7.029 -25.008  0.00  0.00    +0.004 C 
ATOM     12  C   UNL     1      31.887  -3.235 -26.213  0.00  0.00    +0.029 C 
ATOM     13  C   UNL     1      31.961  -3.558 -23.140  0.00  0.00    +0.002 C 
ATOM     14  C   UNL     1      34.924  -8.045 -24.157  0.00  0.00    +0.022 C 
ATOM     15  C   UNL     1      33.946  -8.932 -23.435  0.00  0.00    -0.042 C 
ATOM     16  C   UNL     1      32.192  -9.149 -21.635  0.00  0.00    +0.012 C 
ATOM     17  C   UNL     1      31.657 -10.346 -22.402  0.00  0.00    +0.069 C 
ATOM     18  C   UNL     1      33.893 -10.253 -23.664  0.00  0.00    +0.029 C 
ATOM     19  C   UNL     1      32.791 -11.067 -23.095  0.00  0.00    +0.173 C 
ENDROOT
BRANCH   7  20
ATOM     20  O   UNL     1      30.006  -2.465 -24.848  0.00  0.00    -0.384 OA
ATOM     21  H   UNL     1      29.090  -2.470 -25.168  0.00  0.00    +0.210 HD
ENDBRANCH   7  20
TORSDOF 1
ENDMDL
