MODEL 1
REMARK VINA RESULT:      -8.8      0.000      0.000
REMARK  Name = 107841
REMARK  8 active torsions:
REMARK  status: ('A' for Active; 'I' for Inactive)
REMARK    1  A    between atoms: C_4  and  C_24
REMARK    2  A    between atoms: C_12  and  N_18
REMARK    3  A    between atoms: C_19  and  O_21
REMARK    4  A    between atoms: O_21  and  C_22
REMARK    5  A    between atoms: C_24  and  C_25
REMARK    6  A    between atoms: C_25  and  N_26
REMARK    7  A    between atoms: N_26  and  C_28
REMARK    8  A    between atoms: N_26  and  C_30
REMARK                            x       y       z     vdW  Elec       q    Type
REMARK                         _______ _______ _______ _____ _____    ______ ____
ROOT
ATOM      1  S   UNL     1      34.049 -16.719 -25.466  0.00  0.00    -0.084 S 
ATOM      2  O   UNL     1      34.790 -14.657 -20.480  0.00  0.00    -0.274 OA
ATOM      3  N   UNL     1      34.018 -15.296 -22.595  0.00  0.00    -0.236 N 
ATOM      4  C   UNL     1      33.901 -14.694 -21.331  0.00  0.00    +0.231 C 
ATOM      5  C   UNL     1      33.861 -14.488 -23.782  0.00  0.00    +0.065 C 
ATOM      6  C   UNL     1      34.383 -16.691 -22.681  0.00  0.00    +0.064 C 
ATOM      7  C   UNL     1      33.857 -15.007 -25.083  0.00  0.00    +0.044 C 
ATOM      8  C   UNL     1      34.465 -17.398 -23.889  0.00  0.00    +0.043 C 
ATOM      9  C   UNL     1      33.745 -13.083 -23.653  0.00  0.00    +0.030 C 
ATOM     10  C   UNL     1      34.641 -17.420 -21.497  0.00  0.00    +0.016 C 
ATOM     11  C   UNL     1      33.698 -14.151 -26.193  0.00  0.00    +0.009 C 
ATOM     12  C   UNL     1      33.590 -12.241 -24.757  0.00  0.00    +0.054 C 
ATOM     13  C   UNL     1      34.840 -18.758 -23.898  0.00  0.00    +0.008 C 
ATOM     14  C   UNL     1      33.560 -12.777 -26.032  0.00  0.00    +0.015 C 
ATOM     15  C   UNL     1      35.011 -18.768 -21.513  0.00  0.00    +0.001 C 
ATOM     16  C   UNL     1      35.119 -19.438 -22.718  0.00  0.00    +0.001 C 
ENDROOT
BRANCH  12  18
ATOM     17  O   UNL     1      35.683 -10.133 -24.301  0.00  0.00    -0.226 OA
ATOM     18  N   UNL     1      33.470 -10.863 -24.574  0.00  0.00    -0.250 N 
ATOM     19  C   UNL     1      34.477  -9.924 -24.365  0.00  0.00    +0.405 C 
ATOM     20  H   UNL     1      32.553 -10.507 -24.595  0.00  0.00    +0.158 HD
BRANCH  19  21
ATOM     21  O   UNL     1      33.918  -8.681 -24.235  0.00  0.00    -0.434 OA
BRANCH  21  22
ATOM     22  C   UNL     1      34.523  -7.816 -23.266  0.00  0.00    +0.210 C 
ATOM     23  C   UNL     1      33.490  -7.441 -22.226  0.00  0.00    +0.051 C 
ENDBRANCH  21  22
ENDBRANCH  19  21
ENDBRANCH  12  18
BRANCH   4  24
ATOM     24  C   UNL     1      32.524 -14.137 -21.037  0.00  0.00    +0.063 C 
BRANCH  24  25
ATOM     25  C   UNL     1      32.674 -12.890 -20.191  0.00  0.00    -0.068 C 
BRANCH  25  26
ATOM     26  N   UNL     1      31.514 -12.029 -20.380  0.00  0.00    +0.387 N 
ATOM     27  H   UNL     1      30.714 -12.469 -19.922  0.00  0.00    -0.080 HD
BRANCH  26  28
ATOM     28  C   UNL     1      31.737 -10.718 -19.769  0.00  0.00    -0.077 C 
ATOM     29  C   UNL     1      31.321 -10.714 -18.308  0.00  0.00    -0.025 C 
ENDBRANCH  26  28
BRANCH  26  30
ATOM     30  C   UNL     1      31.210 -11.878 -21.805  0.00  0.00    -0.077 C 
ATOM     31  C   UNL     1      31.119 -10.413 -22.194  0.00  0.00    -0.025 C 
ENDBRANCH  26  30
ENDBRANCH  25  26
ENDBRANCH  24  25
ENDBRANCH   4  24
TORSDOF 8
ENDMDL
MODEL 2
REMARK VINA RESULT:      -7.7      2.211      4.413
REMARK  Name = 107841
REMARK  8 active torsions:
REMARK  status: ('A' for Active; 'I' for Inactive)
REMARK    1  A    between atoms: C_4  and  C_24
REMARK    2  A    between atoms: C_12  and  N_18
REMARK    3  A    between atoms: C_19  and  O_21
REMARK    4  A    between atoms: O_21  and  C_22
REMARK    5  A    between atoms: C_24  and  C_25
REMARK    6  A    between atoms: C_25  and  N_26
REMARK    7  A    between atoms: N_26  and  C_28
REMARK    8  A    between atoms: N_26  and  C_30
REMARK                            x       y       z     vdW  Elec       q    Type
REMARK                         _______ _______ _______ _____ _____    ______ ____
ROOT
ATOM      1  S   UNL     1      33.341 -15.277 -20.260  0.00  0.00    -0.084 S 
ATOM      2  O   UNL     1      33.029 -14.474 -25.638  0.00  0.00    -0.274 OA
ATOM      3  N   UNL     1      33.409 -14.364 -23.332  0.00  0.00    -0.236 N 
ATOM      4  C   UNL     1      33.535 -13.924 -24.660  0.00  0.00    +0.231 C 
ATOM      5  C   UNL     1      32.789 -13.498 -22.354  0.00  0.00    +0.065 C 
ATOM      6  C   UNL     1      33.817 -15.707 -22.991  0.00  0.00    +0.064 C 
ATOM      7  C   UNL     1      32.708 -13.799 -20.988  0.00  0.00    +0.044 C 
ATOM      8  C   UNL     1      33.790 -16.219 -21.686  0.00  0.00    +0.043 C 
ATOM      9  C   UNL     1      32.187 -12.291 -22.781  0.00  0.00    +0.030 C 
ATOM     10  C   UNL     1      34.312 -16.564 -24.002  0.00  0.00    +0.016 C 
ATOM     11  C   UNL     1      32.087 -12.901 -20.095  0.00  0.00    +0.009 C 
ATOM     12  C   UNL     1      31.571 -11.408 -21.892  0.00  0.00    +0.054 C 
ATOM     13  C   UNL     1      34.193 -17.546 -21.430  0.00  0.00    +0.008 C 
ATOM     14  C   UNL     1      31.526 -11.710 -20.542  0.00  0.00    +0.015 C 
ATOM     15  C   UNL     1      34.712 -17.877 -23.741  0.00  0.00    +0.001 C 
ATOM     16  C   UNL     1      34.644 -18.374 -22.451  0.00  0.00    +0.001 C 
ENDROOT
BRANCH  12  18
ATOM     17  O   UNL     1      32.483  -8.555 -21.649  0.00  0.00    -0.226 OA
ATOM     18  N   UNL     1      30.999 -10.225 -22.363  0.00  0.00    -0.250 N 
ATOM     19  C   UNL     1      31.464  -8.920 -22.223  0.00  0.00    +0.405 C 
ATOM     20  H   UNL     1      30.155 -10.326 -22.859  0.00  0.00    +0.158 HD
BRANCH  19  21
ATOM     21  O   UNL     1      30.594  -8.061 -22.838  0.00  0.00    -0.434 OA
BRANCH  21  22
ATOM     22  C   UNL     1      31.002  -6.689 -22.902  0.00  0.00    +0.210 C 
ATOM     23  C   UNL     1      31.473  -6.379 -24.306  0.00  0.00    +0.051 C 
ENDBRANCH  21  22
ENDBRANCH  19  21
ENDBRANCH  12  18
BRANCH   4  24
ATOM     24  C   UNL     1      34.437 -12.720 -24.829  0.00  0.00    +0.063 C 
BRANCH  24  25
ATOM     25  C   UNL     1      33.789 -11.758 -25.803  0.00  0.00    -0.068 C 
BRANCH  25  26
ATOM     26  N   UNL     1      34.362 -10.430 -25.630  0.00  0.00    +0.387 N 
ATOM     27  H   UNL     1      33.755  -9.759 -26.103  0.00  0.00    -0.080 HD
BRANCH  26  28
ATOM     28  C   UNL     1      34.428 -10.076 -24.210  0.00  0.00    -0.077 C 
ATOM     29  C   UNL     1      34.815  -8.619 -24.024  0.00  0.00    -0.025 C 
ENDBRANCH  26  28
BRANCH  26  30
ATOM     30  C   UNL     1      35.695 -10.359 -26.232  0.00  0.00    -0.077 C 
ATOM     31  C   UNL     1      35.741 -11.111 -27.551  0.00  0.00    -0.025 C 
ENDBRANCH  26  30
ENDBRANCH  25  26
ENDBRANCH  24  25
ENDBRANCH   4  24
TORSDOF 8
ENDMDL
MODEL 3
REMARK VINA RESULT:      -7.5      8.981     13.355
REMARK  Name = 107841
REMARK  8 active torsions:
REMARK  status: ('A' for Active; 'I' for Inactive)
REMARK    1  A    between atoms: C_4  and  C_24
REMARK    2  A    between atoms: C_12  and  N_18
REMARK    3  A    between atoms: C_19  and  O_21
REMARK    4  A    between atoms: O_21  and  C_22
REMARK    5  A    between atoms: C_24  and  C_25
REMARK    6  A    between atoms: C_25  and  N_26
REMARK    7  A    between atoms: N_26  and  C_28
REMARK    8  A    between atoms: N_26  and  C_30
REMARK                            x       y       z     vdW  Elec       q    Type
REMARK                         _______ _______ _______ _____ _____    ______ ____
ROOT
ATOM      1  S   UNL     1      36.858 -20.739 -18.612  0.00  0.00    -0.084 S 
ATOM      2  O   UNL     1      32.437 -23.868 -18.038  0.00  0.00    -0.274 OA
ATOM      3  N   UNL     1      34.270 -22.437 -17.779  0.00  0.00    -0.236 N 
ATOM      4  C   UNL     1      33.111 -23.103 -17.348  0.00  0.00    +0.231 C 
ATOM      5  C   UNL     1      35.524 -22.688 -17.104  0.00  0.00    +0.065 C 
ATOM      6  C   UNL     1      34.205 -21.587 -18.945  0.00  0.00    +0.064 C 
ATOM      7  C   UNL     1      36.712 -22.002 -17.388  0.00  0.00    +0.044 C 
ATOM      8  C   UNL     1      35.288 -20.833 -19.417  0.00  0.00    +0.043 C 
ATOM      9  C   UNL     1      35.591 -23.708 -16.125  0.00  0.00    +0.030 C 
ATOM     10  C   UNL     1      32.983 -21.459 -19.647  0.00  0.00    +0.016 C 
ATOM     11  C   UNL     1      37.896 -22.305 -16.683  0.00  0.00    +0.009 C 
ATOM     12  C   UNL     1      36.768 -24.003 -15.433  0.00  0.00    +0.054 C 
ATOM     13  C   UNL     1      35.154 -20.033 -20.572  0.00  0.00    +0.008 C 
ATOM     14  C   UNL     1      37.924 -23.295 -15.708  0.00  0.00    +0.015 C 
ATOM     15  C   UNL     1      32.856 -20.663 -20.789  0.00  0.00    +0.001 C 
ATOM     16  C   UNL     1      33.948 -19.954 -21.258  0.00  0.00    +0.001 C 
ENDROOT
BRANCH  12  18
ATOM     17  O   UNL     1      36.874 -26.992 -15.726  0.00  0.00    -0.226 OA
ATOM     18  N   UNL     1      36.779 -25.013 -14.470  0.00  0.00    -0.250 N 
ATOM     19  C   UNL     1      36.829 -26.392 -14.659  0.00  0.00    +0.405 C 
ATOM     20  H   UNL     1      36.745 -24.712 -13.534  0.00  0.00    +0.158 HD
BRANCH  19  21
ATOM     21  O   UNL     1      36.821 -27.016 -13.440  0.00  0.00    -0.434 OA
BRANCH  21  22
ATOM     22  C   UNL     1      37.136 -26.194 -12.309  0.00  0.00    +0.210 C 
ATOM     23  C   UNL     1      38.576 -25.739 -12.416  0.00  0.00    +0.051 C 
ENDBRANCH  21  22
ENDBRANCH  19  21
ENDBRANCH  12  18
BRANCH   4  24
ATOM     24  C   UNL     1      32.679 -22.744 -15.942  0.00  0.00    +0.063 C 
BRANCH  24  25
ATOM     25  C   UNL     1      31.183 -22.949 -15.824  0.00  0.00    -0.068 C 
BRANCH  25  26
ATOM     26  N   UNL     1      30.897 -24.365 -15.643  0.00  0.00    +0.387 N 
ATOM     27  H   UNL     1      31.368 -24.882 -16.387  0.00  0.00    -0.080 HD
BRANCH  26  28
ATOM     28  C   UNL     1      31.409 -24.836 -14.354  0.00  0.00    -0.077 C 
ATOM     29  C   UNL     1      30.561 -24.319 -13.204  0.00  0.00    -0.025 C 
ENDBRANCH  26  28
BRANCH  26  30
ATOM     30  C   UNL     1      29.458 -24.619 -15.739  0.00  0.00    -0.077 C 
ATOM     31  C   UNL     1      28.746 -23.478 -16.446  0.00  0.00    -0.025 C 
ENDBRANCH  26  30
ENDBRANCH  25  26
ENDBRANCH  24  25
ENDBRANCH   4  24
TORSDOF 8
ENDMDL
MODEL 4
REMARK VINA RESULT:      -7.4      8.457     12.129
REMARK  Name = 107841
REMARK  8 active torsions:
REMARK  status: ('A' for Active; 'I' for Inactive)
REMARK    1  A    between atoms: C_4  and  C_24
REMARK    2  A    between atoms: C_12  and  N_18
REMARK    3  A    between atoms: C_19  and  O_21
REMARK    4  A    between atoms: O_21  and  C_22
REMARK    5  A    between atoms: C_24  and  C_25
REMARK    6  A    between atoms: C_25  and  N_26
REMARK    7  A    between atoms: N_26  and  C_28
REMARK    8  A    between atoms: N_26  and  C_30
REMARK                            x       y       z     vdW  Elec       q    Type
REMARK                         _______ _______ _______ _____ _____    ______ ____
ROOT
ATOM      1  S   UNL     1      37.862 -23.516 -15.133  0.00  0.00    -0.084 S 
ATOM      2  O   UNL     1      32.549 -22.571 -14.400  0.00  0.00    -0.274 OA
ATOM      3  N   UNL     1      34.672 -23.217 -15.144  0.00  0.00    -0.236 N 
ATOM      4  C   UNL     1      33.268 -23.183 -15.190  0.00  0.00    +0.231 C 
ATOM      5  C   UNL     1      35.430 -22.707 -16.264  0.00  0.00    +0.065 C 
ATOM      6  C   UNL     1      35.328 -23.674 -13.941  0.00  0.00    +0.064 C 
ATOM      7  C   UNL     1      36.825 -22.788 -16.361  0.00  0.00    +0.044 C 
ATOM      8  C   UNL     1      36.718 -23.804 -13.817  0.00  0.00    +0.043 C 
ATOM      9  C   UNL     1      34.752 -22.048 -17.317  0.00  0.00    +0.030 C 
ATOM     10  C   UNL     1      34.549 -24.056 -12.823  0.00  0.00    +0.016 C 
ATOM     11  C   UNL     1      37.494 -22.268 -17.489  0.00  0.00    +0.009 C 
ATOM     12  C   UNL     1      35.421 -21.532 -18.429  0.00  0.00    +0.054 C 
ATOM     13  C   UNL     1      37.290 -24.247 -12.606  0.00  0.00    +0.008 C 
ATOM     14  C   UNL     1      36.797 -21.647 -18.519  0.00  0.00    +0.015 C 
ATOM     15  C   UNL     1      35.122 -24.495 -11.627  0.00  0.00    +0.001 C 
ATOM     16  C   UNL     1      36.498 -24.583 -11.514  0.00  0.00    +0.001 C 
ENDROOT
BRANCH  12  18
ATOM     17  O   UNL     1      32.784 -22.222 -19.694  0.00  0.00    -0.226 OA
ATOM     18  N   UNL     1      34.705 -20.898 -19.445  0.00  0.00    -0.250 N 
ATOM     19  C   UNL     1      33.480 -21.260 -19.999  0.00  0.00    +0.405 C 
ATOM     20  H   UNL     1      35.120 -20.089 -19.820  0.00  0.00    +0.158 HD
BRANCH  19  21
ATOM     21  O   UNL     1      33.139 -20.360 -20.972  0.00  0.00    -0.434 OA
BRANCH  21  22
ATOM     22  C   UNL     1      33.993 -19.215 -21.098  0.00  0.00    +0.210 C 
ATOM     23  C   UNL     1      34.525 -19.150 -22.513  0.00  0.00    +0.051 C 
ENDBRANCH  21  22
ENDBRANCH  19  21
ENDBRANCH  12  18
BRANCH   4  24
ATOM     24  C   UNL     1      32.664 -24.048 -16.276  0.00  0.00    +0.063 C 
BRANCH  24  25
ATOM     25  C   UNL     1      31.428 -23.360 -16.817  0.00  0.00    -0.068 C 
BRANCH  25  26
ATOM     26  N   UNL     1      30.337 -23.498 -15.862  0.00  0.00    +0.387 N 
ATOM     27  H   UNL     1      30.670 -23.182 -14.951  0.00  0.00    -0.080 HD
BRANCH  26  28
ATOM     28  C   UNL     1      29.198 -22.666 -16.256  0.00  0.00    -0.077 C 
ATOM     29  C   UNL     1      28.218 -23.445 -17.115  0.00  0.00    -0.025 C 
ENDBRANCH  26  28
BRANCH  26  30
ATOM     30  C   UNL     1      29.924 -24.899 -15.748  0.00  0.00    -0.077 C 
ATOM     31  C   UNL     1      29.872 -25.339 -14.295  0.00  0.00    -0.025 C 
ENDBRANCH  26  30
ENDBRANCH  25  26
ENDBRANCH  24  25
ENDBRANCH   4  24
TORSDOF 8
ENDMDL
MODEL 5
REMARK VINA RESULT:      -7.2      9.545     14.283
REMARK  Name = 107841
REMARK  8 active torsions:
REMARK  status: ('A' for Active; 'I' for Inactive)
REMARK    1  A    between atoms: C_4  and  C_24
REMARK    2  A    between atoms: C_12  and  N_18
REMARK    3  A    between atoms: C_19  and  O_21
REMARK    4  A    between atoms: O_21  and  C_22
REMARK    5  A    between atoms: C_24  and  C_25
REMARK    6  A    between atoms: C_25  and  N_26
REMARK    7  A    between atoms: N_26  and  C_28
REMARK    8  A    between atoms: N_26  and  C_30
REMARK                            x       y       z     vdW  Elec       q    Type
REMARK                         _______ _______ _______ _____ _____    ______ ____
ROOT
ATOM      1  S   UNL     1      33.058 -22.791 -18.081  0.00  0.00    -0.084 S 
ATOM      2  O   UNL     1      37.910 -21.219 -16.172  0.00  0.00    -0.274 OA
ATOM      3  N   UNL     1      35.972 -22.359 -16.820  0.00  0.00    -0.236 N 
ATOM      4  C   UNL     1      37.276 -22.265 -16.305  0.00  0.00    +0.231 C 
ATOM      5  C   UNL     1      34.918 -22.895 -15.989  0.00  0.00    +0.065 C 
ATOM      6  C   UNL     1      35.693 -21.833 -18.136  0.00  0.00    +0.064 C 
ATOM      7  C   UNL     1      33.612 -23.126 -16.439  0.00  0.00    +0.044 C 
ATOM      8  C   UNL     1      34.444 -21.934 -18.764  0.00  0.00    +0.043 C 
ATOM      9  C   UNL     1      35.184 -23.173 -14.627  0.00  0.00    +0.030 C 
ATOM     10  C   UNL     1      36.729 -21.211 -18.873  0.00  0.00    +0.016 C 
ATOM     11  C   UNL     1      32.638 -23.653 -15.566  0.00  0.00    +0.009 C 
ATOM     12  C   UNL     1      34.214 -23.692 -13.767  0.00  0.00    +0.054 C 
ATOM     13  C   UNL     1      34.241 -21.385 -20.047  0.00  0.00    +0.008 C 
ATOM     14  C   UNL     1      32.937 -23.939 -14.239  0.00  0.00    +0.015 C 
ATOM     15  C   UNL     1      36.522 -20.671 -20.145  0.00  0.00    +0.001 C 
ATOM     16  C   UNL     1      35.272 -20.751 -20.732  0.00  0.00    +0.001 C 
ENDROOT
BRANCH  12  18
ATOM     17  O   UNL     1      36.015 -25.769 -12.554  0.00  0.00    -0.226 OA
ATOM     18  N   UNL     1      34.530 -23.957 -12.434  0.00  0.00    -0.250 N 
ATOM     19  C   UNL     1      35.375 -24.938 -11.921  0.00  0.00    +0.405 C 
ATOM     20  H   UNL     1      34.098 -23.376 -11.768  0.00  0.00    +0.158 HD
BRANCH  19  21
ATOM     21  O   UNL     1      35.399 -24.846 -10.555  0.00  0.00    -0.434 OA
BRANCH  21  22
ATOM     22  C   UNL     1      36.065 -23.699 -10.012  0.00  0.00    +0.210 C 
ATOM     23  C   UNL     1      37.058 -23.178 -11.029  0.00  0.00    +0.051 C 
ENDBRANCH  21  22
ENDBRANCH  19  21
ENDBRANCH  12  18
BRANCH   4  24
ATOM     24  C   UNL     1      37.909 -23.602 -15.980  0.00  0.00    +0.063 C 
BRANCH  24  25
ATOM     25  C   UNL     1      38.094 -23.702 -14.480  0.00  0.00    -0.068 C 
BRANCH  25  26
ATOM     26  N   UNL     1      38.245 -25.100 -14.100  0.00  0.00    +0.387 N 
ATOM     27  H   UNL     1      37.495 -25.336 -13.450  0.00  0.00    -0.080 HD
BRANCH  26  28
ATOM     28  C   UNL     1      38.134 -25.970 -15.274  0.00  0.00    -0.077 C 
ATOM     29  C   UNL     1      36.893 -26.843 -15.195  0.00  0.00    -0.025 C 
ENDBRANCH  26  28
BRANCH  26  30
ATOM     30  C   UNL     1      39.529 -25.317 -13.430  0.00  0.00    -0.077 C 
ATOM     31  C   UNL     1      40.540 -25.948 -14.372  0.00  0.00    -0.025 C 
ENDBRANCH  26  30
ENDBRANCH  25  26
ENDBRANCH  24  25
ENDBRANCH   4  24
TORSDOF 8
ENDMDL
MODEL 6
REMARK VINA RESULT:      -7.1      2.864      6.887
REMARK  Name = 107841
REMARK  8 active torsions:
REMARK  status: ('A' for Active; 'I' for Inactive)
REMARK    1  A    between atoms: C_4  and  C_24
REMARK    2  A    between atoms: C_12  and  N_18
REMARK    3  A    between atoms: C_19  and  O_21
REMARK    4  A    between atoms: O_21  and  C_22
REMARK    5  A    between atoms: C_24  and  C_25
REMARK    6  A    between atoms: C_25  and  N_26
REMARK    7  A    between atoms: N_26  and  C_28
REMARK    8  A    between atoms: N_26  and  C_30
REMARK                            x       y       z     vdW  Elec       q    Type
REMARK                         _______ _______ _______ _____ _____    ______ ____
ROOT
ATOM      1  S   UNL     1      32.600 -10.404 -23.302  0.00  0.00    -0.084 S 
ATOM      2  O   UNL     1      32.062 -14.806 -20.141  0.00  0.00    -0.274 OA
ATOM      3  N   UNL     1      32.769 -13.101 -21.579  0.00  0.00    -0.236 N 
ATOM      4  C   UNL     1      32.944 -14.259 -20.803  0.00  0.00    +0.231 C 
ATOM      5  C   UNL     1      33.004 -13.160 -23.004  0.00  0.00    +0.065 C 
ATOM      6  C   UNL     1      32.268 -11.900 -20.952  0.00  0.00    +0.064 C 
ATOM      7  C   UNL     1      32.958 -12.043 -23.848  0.00  0.00    +0.044 C 
ATOM      8  C   UNL     1      32.118 -10.678 -21.624  0.00  0.00    +0.043 C 
ATOM      9  C   UNL     1      33.258 -14.412 -23.612  0.00  0.00    +0.030 C 
ATOM     10  C   UNL     1      31.940 -11.915 -19.576  0.00  0.00    +0.016 C 
ATOM     11  C   UNL     1      33.200 -12.183 -25.230  0.00  0.00    +0.009 C 
ATOM     12  C   UNL     1      33.494 -14.544 -24.982  0.00  0.00    +0.054 C 
ATOM     13  C   UNL     1      31.611  -9.548 -20.949  0.00  0.00    +0.008 C 
ATOM     14  C   UNL     1      33.472 -13.424 -25.795  0.00  0.00    +0.015 C 
ATOM     15  C   UNL     1      31.440 -10.791 -18.913  0.00  0.00    +0.001 C 
ATOM     16  C   UNL     1      31.267  -9.605 -19.603  0.00  0.00    +0.001 C 
ENDROOT
BRANCH  12  18
ATOM     17  O   UNL     1      35.420 -16.695 -24.150  0.00  0.00    -0.226 OA
ATOM     18  N   UNL     1      33.749 -15.801 -25.532  0.00  0.00    -0.250 N 
ATOM     19  C   UNL     1      34.657 -16.766 -25.106  0.00  0.00    +0.405 C 
ATOM     20  H   UNL     1      33.217 -16.036 -26.325  0.00  0.00    +0.158 HD
BRANCH  19  21
ATOM     21  O   UNL     1      34.582 -17.855 -25.933  0.00  0.00    -0.434 OA
BRANCH  21  22
ATOM     22  C   UNL     1      33.912 -19.005 -25.402  0.00  0.00    +0.210 C 
ATOM     23  C   UNL     1      34.926 -19.891 -24.711  0.00  0.00    +0.051 C 
ENDBRANCH  21  22
ENDBRANCH  19  21
ENDBRANCH  12  18
BRANCH   4  24
ATOM     24  C   UNL     1      34.368 -14.771 -20.769  0.00  0.00    +0.063 C 
BRANCH  24  25
ATOM     25  C   UNL     1      34.376 -16.151 -20.146  0.00  0.00    -0.068 C 
BRANCH  25  26
ATOM     26  N   UNL     1      34.659 -17.147 -21.170  0.00  0.00    +0.387 N 
ATOM     27  H   UNL     1      34.992 -16.660 -22.003  0.00  0.00    -0.080 HD
BRANCH  26  28
ATOM     28  C   UNL     1      35.706 -18.067 -20.721  0.00  0.00    -0.077 C 
ATOM     29  C   UNL     1      36.610 -18.475 -21.871  0.00  0.00    -0.025 C 
ENDBRANCH  26  28
BRANCH  26  30
ATOM     30  C   UNL     1      33.447 -17.891 -21.517  0.00  0.00    -0.077 C 
ATOM     31  C   UNL     1      33.464 -19.283 -20.909  0.00  0.00    -0.025 C 
ENDBRANCH  26  30
ENDBRANCH  25  26
ENDBRANCH  24  25
ENDBRANCH   4  24
TORSDOF 8
ENDMDL
MODEL 7
REMARK VINA RESULT:      -6.7      2.957      7.077
REMARK  Name = 107841
REMARK  8 active torsions:
REMARK  status: ('A' for Active; 'I' for Inactive)
REMARK    1  A    between atoms: C_4  and  C_24
REMARK    2  A    between atoms: C_12  and  N_18
REMARK    3  A    between atoms: C_19  and  O_21
REMARK    4  A    between atoms: O_21  and  C_22
REMARK    5  A    between atoms: C_24  and  C_25
REMARK    6  A    between atoms: C_25  and  N_26
REMARK    7  A    between atoms: N_26  and  C_28
REMARK    8  A    between atoms: N_26  and  C_30
REMARK                            x       y       z     vdW  Elec       q    Type
REMARK                         _______ _______ _______ _____ _____    ______ ____
ROOT
ATOM      1  S   UNL     1      34.428  -8.017 -24.124  0.00  0.00    -0.084 S 
ATOM      2  O   UNL     1      30.442 -10.805 -21.674  0.00  0.00    -0.274 OA
ATOM      3  N   UNL     1      32.455  -9.985 -22.541  0.00  0.00    -0.236 N 
ATOM      4  C   UNL     1      31.668 -10.862 -21.777  0.00  0.00    +0.231 C 
ATOM      5  C   UNL     1      33.253 -10.511 -23.626  0.00  0.00    +0.065 C 
ATOM      6  C   UNL     1      32.380  -8.565 -22.287  0.00  0.00    +0.064 C 
ATOM      7  C   UNL     1      34.146  -9.740 -24.380  0.00  0.00    +0.044 C 
ATOM      8  C   UNL     1      33.169  -7.615 -22.950  0.00  0.00    +0.043 C 
ATOM      9  C   UNL     1      33.110 -11.870 -23.995  0.00  0.00    +0.030 C 
ATOM     10  C   UNL     1      31.499  -8.080 -21.291  0.00  0.00    +0.016 C 
ATOM     11  C   UNL     1      34.891 -10.328 -25.424  0.00  0.00    +0.009 C 
ATOM     12  C   UNL     1      33.848 -12.444 -25.032  0.00  0.00    +0.054 C 
ATOM     13  C   UNL     1      33.033  -6.242 -22.658  0.00  0.00    +0.008 C 
ATOM     14  C   UNL     1      34.747 -11.673 -25.746  0.00  0.00    +0.015 C 
ATOM     15  C   UNL     1      31.371  -6.718 -21.005  0.00  0.00    +0.001 C 
ATOM     16  C   UNL     1      32.134  -5.794 -21.697  0.00  0.00    +0.001 C 
ENDROOT
BRANCH  12  18
ATOM     17  O   UNL     1      33.532 -13.808 -27.691  0.00  0.00    -0.226 OA
ATOM     18  N   UNL     1      33.677 -13.792 -25.350  0.00  0.00    -0.250 N 
ATOM     19  C   UNL     1      33.534 -14.376 -26.605  0.00  0.00    +0.405 C 
ATOM     20  H   UNL     1      33.653 -14.412 -24.586  0.00  0.00    +0.158 HD
BRANCH  19  21
ATOM     21  O   UNL     1      33.390 -15.730 -26.461  0.00  0.00    -0.434 OA
BRANCH  21  22
ATOM     22  C   UNL     1      34.236 -16.353 -25.486  0.00  0.00    +0.210 C 
ATOM     23  C   UNL     1      33.950 -17.840 -25.464  0.00  0.00    +0.051 C 
ENDBRANCH  21  22
ENDBRANCH  19  21
ENDBRANCH  12  18
BRANCH   4  24
ATOM     24  C   UNL     1      32.465 -11.882 -20.990  0.00  0.00    +0.063 C 
BRANCH  24  25
ATOM     25  C   UNL     1      31.945 -13.266 -21.319  0.00  0.00    -0.068 C 
BRANCH  25  26
ATOM     26  N   UNL     1      32.962 -14.258 -20.995  0.00  0.00    +0.387 N 
ATOM     27  H   UNL     1      33.785 -13.766 -20.645  0.00  0.00    -0.080 HD
BRANCH  26  28
ATOM     28  C   UNL     1      32.483 -15.166 -19.951  0.00  0.00    -0.077 C 
ATOM     29  C   UNL     1      31.925 -16.446 -20.550  0.00  0.00    -0.025 C 
ENDBRANCH  26  28
BRANCH  26  30
ATOM     30  C   UNL     1      33.343 -15.015 -22.189  0.00  0.00    -0.077 C 
ATOM     31  C   UNL     1      34.842 -15.259 -22.228  0.00  0.00    -0.025 C 
ENDBRANCH  26  30
ENDBRANCH  25  26
ENDBRANCH  24  25
ENDBRANCH   4  24
TORSDOF 8
ENDMDL
MODEL 8
REMARK VINA RESULT:      -6.6      2.251      7.829
REMARK  Name = 107841
REMARK  8 active torsions:
REMARK  status: ('A' for Active; 'I' for Inactive)
REMARK    1  A    between atoms: C_4  and  C_24
REMARK    2  A    between atoms: C_12  and  N_18
REMARK    3  A    between atoms: C_19  and  O_21
REMARK    4  A    between atoms: O_21  and  C_22
REMARK    5  A    between atoms: C_24  and  C_25
REMARK    6  A    between atoms: C_25  and  N_26
REMARK    7  A    between atoms: N_26  and  C_28
REMARK    8  A    between atoms: N_26  and  C_30
REMARK                            x       y       z     vdW  Elec       q    Type
REMARK                         _______ _______ _______ _____ _____    ______ ____
ROOT
ATOM      1  S   UNL     1      31.581  -9.601 -20.698  0.00  0.00    -0.084 S 
ATOM      2  O   UNL     1      34.918 -10.895 -24.804  0.00  0.00    -0.274 OA
ATOM      3  N   UNL     1      33.175 -10.693 -23.256  0.00  0.00    -0.236 N 
ATOM      4  C   UNL     1      33.780 -11.177 -24.427  0.00  0.00    +0.231 C 
ATOM      5  C   UNL     1      32.762 -11.626 -22.232  0.00  0.00    +0.065 C 
ATOM      6  C   UNL     1      33.061  -9.266 -23.058  0.00  0.00    +0.064 C 
ATOM      7  C   UNL     1      32.060 -11.257 -21.078  0.00  0.00    +0.044 C 
ATOM      8  C   UNL     1      32.419  -8.684 -21.956  0.00  0.00    +0.043 C 
ATOM      9  C   UNL     1      33.111 -12.992 -22.360  0.00  0.00    +0.030 C 
ATOM     10  C   UNL     1      33.582  -8.382 -24.032  0.00  0.00    +0.016 C 
ATOM     11  C   UNL     1      31.692 -12.229 -20.125  0.00  0.00    +0.009 C 
ATOM     12  C   UNL     1      32.746 -13.949 -21.410  0.00  0.00    +0.054 C 
ATOM     13  C   UNL     1      32.356  -7.282 -21.822  0.00  0.00    +0.008 C 
ATOM     14  C   UNL     1      32.028 -13.568 -20.291  0.00  0.00    +0.015 C 
ATOM     15  C   UNL     1      33.515  -6.993 -23.895  0.00  0.00    +0.001 C 
ATOM     16  C   UNL     1      32.907  -6.440 -22.782  0.00  0.00    +0.001 C 
ENDROOT
BRANCH  12  18
ATOM     17  O   UNL     1      34.934 -15.574 -20.145  0.00  0.00    -0.226 OA
ATOM     18  N   UNL     1      33.107 -15.285 -21.588  0.00  0.00    -0.250 N 
ATOM     19  C   UNL     1      34.136 -15.995 -20.973  0.00  0.00    +0.405 C 
ATOM     20  H   UNL     1      32.565 -15.792 -22.233  0.00  0.00    +0.158 HD
BRANCH  19  21
ATOM     21  O   UNL     1      34.138 -17.282 -21.439  0.00  0.00    -0.434 OA
BRANCH  21  22
ATOM     22  C   UNL     1      35.389 -17.770 -21.937  0.00  0.00    +0.210 C 
ATOM     23  C   UNL     1      35.130 -18.941 -22.860  0.00  0.00    +0.051 C 
ENDBRANCH  21  22
ENDBRANCH  19  21
ENDBRANCH  12  18
BRANCH   4  24
ATOM     24  C   UNL     1      32.877 -12.048 -25.275  0.00  0.00    +0.063 C 
BRANCH  24  25
ATOM     25  C   UNL     1      33.337 -13.486 -25.158  0.00  0.00    -0.068 C 
BRANCH  25  26
ATOM     26  N   UNL     1      32.600 -14.312 -26.104  0.00  0.00    +0.387 N 
ATOM     27  H   UNL     1      31.615 -14.302 -25.836  0.00  0.00    -0.080 HD
BRANCH  26  28
ATOM     28  C   UNL     1      32.717 -13.773 -27.461  0.00  0.00    -0.077 C 
ATOM     29  C   UNL     1      34.125 -13.272 -27.733  0.00  0.00    -0.025 C 
ENDBRANCH  26  28
BRANCH  26  30
ATOM     30  C   UNL     1      33.079 -15.695 -26.066  0.00  0.00    -0.077 C 
ATOM     31  C   UNL     1      34.088 -15.895 -24.948  0.00  0.00    -0.025 C 
ENDBRANCH  26  30
ENDBRANCH  25  26
ENDBRANCH  24  25
ENDBRANCH   4  24
TORSDOF 8
ENDMDL
MODEL 9
REMARK VINA RESULT:      -6.6      2.179      4.349
REMARK  Name = 107841
REMARK  8 active torsions:
REMARK  status: ('A' for Active; 'I' for Inactive)
REMARK    1  A    between atoms: C_4  and  C_24
REMARK    2  A    between atoms: C_12  and  N_18
REMARK    3  A    between atoms: C_19  and  O_21
REMARK    4  A    between atoms: O_21  and  C_22
REMARK    5  A    between atoms: C_24  and  C_25
REMARK    6  A    between atoms: C_25  and  N_26
REMARK    7  A    between atoms: N_26  and  C_28
REMARK    8  A    between atoms: N_26  and  C_30
REMARK                            x       y       z     vdW  Elec       q    Type
REMARK                         _______ _______ _______ _____ _____    ______ ____
ROOT
ATOM      1  S   UNL     1      33.974 -16.677 -21.249  0.00  0.00    -0.084 S 
ATOM      2  O   UNL     1      32.690 -13.743 -25.654  0.00  0.00    -0.274 OA
ATOM      3  N   UNL     1      33.499 -14.577 -23.622  0.00  0.00    -0.236 N 
ATOM      4  C   UNL     1      33.390 -13.623 -24.648  0.00  0.00    +0.231 C 
ATOM      5  C   UNL     1      33.105 -14.221 -22.278  0.00  0.00    +0.065 C 
ATOM      6  C   UNL     1      33.915 -15.921 -23.950  0.00  0.00    +0.064 C 
ATOM      7  C   UNL     1      33.269 -15.061 -21.170  0.00  0.00    +0.044 C 
ATOM      8  C   UNL     1      34.115 -16.926 -22.993  0.00  0.00    +0.043 C 
ATOM      9  C   UNL     1      32.476 -12.974 -22.049  0.00  0.00    +0.030 C 
ATOM     10  C   UNL     1      34.182 -16.261 -25.297  0.00  0.00    +0.016 C 
ATOM     11  C   UNL     1      32.858 -14.640 -19.888  0.00  0.00    +0.009 C 
ATOM     12  C   UNL     1      32.069 -12.565 -20.777  0.00  0.00    +0.054 C 
ATOM     13  C   UNL     1      34.510 -18.221 -23.387  0.00  0.00    +0.008 C 
ATOM     14  C   UNL     1      32.267 -13.398 -19.690  0.00  0.00    +0.015 C 
ATOM     15  C   UNL     1      34.576 -17.546 -25.681  0.00  0.00    +0.001 C 
ATOM     16  C   UNL     1      34.733 -18.532 -24.724  0.00  0.00    +0.001 C 
ENDROOT
BRANCH  12  18
ATOM     17  O   UNL     1      32.747 -10.293 -18.930  0.00  0.00    -0.226 OA
ATOM     18  N   UNL     1      31.462 -11.321 -20.602  0.00  0.00    -0.250 N 
ATOM     19  C   UNL     1      31.817 -10.297 -19.728  0.00  0.00    +0.405 C 
ATOM     20  H   UNL     1      30.679 -11.143 -21.172  0.00  0.00    +0.158 HD
BRANCH  19  21
ATOM     21  O   UNL     1      30.950  -9.248 -19.884  0.00  0.00    -0.434 OA
BRANCH  21  22
ATOM     22  C   UNL     1      31.471  -7.949 -19.577  0.00  0.00    +0.210 C 
ATOM     23  C   UNL     1      32.282  -7.452 -20.754  0.00  0.00    +0.051 C 
ENDBRANCH  21  22
ENDBRANCH  19  21
ENDBRANCH  12  18
BRANCH   4  24
ATOM     24  C   UNL     1      34.287 -12.417 -24.468  0.00  0.00    +0.063 C 
BRANCH  24  25
ATOM     25  C   UNL     1      33.897 -11.363 -25.483  0.00  0.00    -0.068 C 
BRANCH  25  26
ATOM     26  N   UNL     1      33.769 -10.072 -24.820  0.00  0.00    +0.387 N 
ATOM     27  H   UNL     1      33.267  -9.442 -25.447  0.00  0.00    -0.080 HD
BRANCH  26  28
ATOM     28  C   UNL     1      33.003 -10.201 -23.579  0.00  0.00    -0.077 C 
ATOM     29  C   UNL     1      31.790  -9.287 -23.583  0.00  0.00    -0.025 C 
ENDBRANCH  26  28
BRANCH  26  30
ATOM     30  C   UNL     1      35.089  -9.501 -24.543  0.00  0.00    -0.077 C 
ATOM     31  C   UNL     1      34.970  -8.172 -23.816  0.00  0.00    -0.025 C 
ENDBRANCH  26  30
ENDBRANCH  25  26
ENDBRANCH  24  25
ENDBRANCH   4  24
TORSDOF 8
ENDMDL
