MODEL 1
REMARK VINA RESULT:      -9.1      0.000      0.000
REMARK  Name = 49855250
REMARK  11 active torsions:
REMARK  status: ('A' for Active; 'I' for Inactive)
REMARK    1  A    between atoms: N_1  and  C_18
REMARK    2  A    between atoms: C_3  and  C_26
REMARK    3  A    between atoms: C_8  and  C_10
REMARK    4  A    between atoms: C_11  and  C_14
REMARK    5  A    between atoms: N_13  and  O_16
REMARK    6  A    between atoms: C_18  and  C_19
REMARK    7  A    between atoms: C_19  and  N_20
REMARK    8  A    between atoms: N_20  and  C_22
REMARK    9  A    between atoms: N_20  and  C_24
REMARK   10  A    between atoms: C_26  and  C_27
REMARK   11  A    between atoms: C_27  and  C_28
REMARK                            x       y       z     vdW  Elec       q    Type
REMARK                         _______ _______ _______ _____ _____    ______ ____
ROOT
ATOM      1  N   UNL     1      34.063 -23.086 -17.069  0.00  0.00    -0.266 N 
ATOM      2  N   UNL     1      32.357 -22.301 -18.258  0.00  0.00    -0.394 NA
ATOM      3  C   UNL     1      32.706 -23.046 -17.233  0.00  0.00    +0.163 C 
ATOM      4  C   UNL     1      34.626 -22.315 -18.054  0.00  0.00    +0.079 C 
ATOM      5  C   UNL     1      33.541 -21.837 -18.782  0.00  0.00    +0.128 C 
ATOM      6  C   UNL     1      35.952 -22.005 -18.361  0.00  0.00    +0.017 C 
ATOM      7  C   UNL     1      33.773 -20.998 -19.886  0.00  0.00    +0.087 C 
ATOM      8  C   UNL     1      35.095 -20.673 -20.212  0.00  0.00    -0.015 C 
ATOM      9  C   UNL     1      36.165 -21.169 -19.462  0.00  0.00    -0.002 C 
ENDROOT
BRANCH   8  10
ATOM     10  C   UNL     1      35.358 -19.806 -21.352  0.00  0.00    +0.001 C 
ATOM     11  C   UNL     1      34.430 -19.068 -21.998  0.00  0.00    +0.059 C 
BRANCH  11  14
ATOM     12  O   UNL     1      34.680 -18.593 -24.325  0.00  0.00    -0.268 OA
ATOM     13  N   UNL     1      35.321 -17.012 -22.765  0.00  0.00    -0.193 N 
ATOM     14  C   UNL     1      34.813 -18.222 -23.163  0.00  0.00    +0.268 C 
ATOM     15  H   UNL     1      35.404 -16.765 -21.815  0.00  0.00    +0.183 HD
BRANCH  13  16
ATOM     16  O   UNL     1      35.713 -16.149 -23.798  0.00  0.00    -0.295 OA
ATOM     17  H   UNL     1      35.058 -15.439 -23.894  0.00  0.00    +0.241 HD
ENDBRANCH  13  16
ENDBRANCH  11  14
ENDBRANCH   8  10
BRANCH   1  18
ATOM     18  C   UNL     1      34.779 -23.808 -16.043  0.00  0.00    +0.075 C 
BRANCH  18  19
ATOM     19  C   UNL     1      35.133 -22.902 -14.863  0.00  0.00    -0.055 C 
BRANCH  19  20
ATOM     20  N   UNL     1      36.465 -23.223 -14.362  0.00  0.00    +0.388 N 
ATOM     21  H   UNL     1      37.088 -22.450 -14.596  0.00  0.00    -0.080 HD
BRANCH  20  22
ATOM     22  C   UNL     1      36.974 -24.439 -14.998  0.00  0.00    -0.077 C 
ATOM     23  C   UNL     1      38.346 -24.807 -14.458  0.00  0.00    -0.025 C 
ENDBRANCH  20  22
BRANCH  20  24
ATOM     24  C   UNL     1      36.444 -23.379 -12.907  0.00  0.00    -0.077 C 
ATOM     25  C   UNL     1      35.196 -24.116 -12.452  0.00  0.00    -0.025 C 
ENDBRANCH  20  24
ENDBRANCH  19  20
ENDBRANCH  18  19
ENDBRANCH   1  18
BRANCH   3  26
ATOM     26  C   UNL     1      31.784 -23.772 -16.336  0.00  0.00    +0.075 C 
BRANCH  26  27
ATOM     27  C   UNL     1      31.231 -22.884 -15.203  0.00  0.00    +0.009 C 
BRANCH  27  28
ATOM     28  C   UNL     1      31.593 -23.421 -13.818  0.00  0.00    +0.000 C 
ATOM     29  C   UNL     1      31.739 -24.934 -13.828  0.00  0.00    +0.000 C 
ENDBRANCH  27  28
ENDBRANCH  26  27
ENDBRANCH   3  26
TORSDOF 11
ENDMDL
MODEL 2
REMARK VINA RESULT:      -8.6      1.329      4.250
REMARK  Name = 49855250
REMARK  11 active torsions:
REMARK  status: ('A' for Active; 'I' for Inactive)
REMARK    1  A    between atoms: N_1  and  C_18
REMARK    2  A    between atoms: C_3  and  C_26
REMARK    3  A    between atoms: C_8  and  C_10
REMARK    4  A    between atoms: C_11  and  C_14
REMARK    5  A    between atoms: N_13  and  O_16
REMARK    6  A    between atoms: C_18  and  C_19
REMARK    7  A    between atoms: C_19  and  N_20
REMARK    8  A    between atoms: N_20  and  C_22
REMARK    9  A    between atoms: N_20  and  C_24
REMARK   10  A    between atoms: C_26  and  C_27
REMARK   11  A    between atoms: C_27  and  C_28
REMARK                            x       y       z     vdW  Elec       q    Type
REMARK                         _______ _______ _______ _____ _____    ______ ____
ROOT
ATOM      1  N   UNL     1      35.287 -23.173 -16.368  0.00  0.00    -0.266 N 
ATOM      2  N   UNL     1      37.224 -22.140 -16.720  0.00  0.00    -0.394 NA
ATOM      3  C   UNL     1      36.550 -22.925 -15.908  0.00  0.00    +0.163 C 
ATOM      4  C   UNL     1      35.135 -22.503 -17.556  0.00  0.00    +0.079 C 
ATOM      5  C   UNL     1      36.357 -21.867 -17.753  0.00  0.00    +0.128 C 
ATOM      6  C   UNL     1      34.066 -22.404 -18.447  0.00  0.00    +0.017 C 
ATOM      7  C   UNL     1      36.541 -21.079 -18.902  0.00  0.00    +0.087 C 
ATOM      8  C   UNL     1      35.482 -20.965 -19.811  0.00  0.00    -0.015 C 
ATOM      9  C   UNL     1      34.266 -21.616 -19.585  0.00  0.00    -0.002 C 
ENDROOT
BRANCH   8  10
ATOM     10  C   UNL     1      35.651 -20.154 -21.008  0.00  0.00    +0.001 C 
ATOM     11  C   UNL     1      34.766 -19.239 -21.459  0.00  0.00    +0.059 C 
BRANCH  11  14
ATOM     12  O   UNL     1      34.891 -18.949 -23.826  0.00  0.00    -0.268 OA
ATOM     13  N   UNL     1      35.471 -17.199 -22.433  0.00  0.00    -0.193 N 
ATOM     14  C   UNL     1      35.039 -18.471 -22.706  0.00  0.00    +0.268 C 
ATOM     15  H   UNL     1      35.572 -16.866 -21.511  0.00  0.00    +0.183 HD
BRANCH  13  16
ATOM     16  O   UNL     1      35.758 -16.402 -23.550  0.00  0.00    -0.295 OA
ATOM     17  H   UNL     1      34.980 -15.869 -23.777  0.00  0.00    +0.241 HD
ENDBRANCH  13  16
ENDBRANCH  11  14
ENDBRANCH   8  10
BRANCH   1  18
ATOM     18  C   UNL     1      34.288 -23.993 -15.723  0.00  0.00    +0.075 C 
BRANCH  18  19
ATOM     19  C   UNL     1      33.215 -23.141 -15.045  0.00  0.00    -0.055 C 
BRANCH  19  20
ATOM     20  N   UNL     1      31.888 -23.674 -15.336  0.00  0.00    +0.388 N 
ATOM     21  H   UNL     1      31.994 -24.638 -15.650  0.00  0.00    -0.080 HD
BRANCH  20  22
ATOM     22  C   UNL     1      31.249 -22.904 -16.405  0.00  0.00    -0.077 C 
ATOM     23  C   UNL     1      29.734 -22.971 -16.297  0.00  0.00    -0.025 C 
ENDBRANCH  20  22
BRANCH  20  24
ATOM     24  C   UNL     1      31.054 -23.664 -14.133  0.00  0.00    -0.077 C 
ATOM     25  C   UNL     1      31.064 -25.020 -13.447  0.00  0.00    -0.025 C 
ENDBRANCH  20  24
ENDBRANCH  19  20
ENDBRANCH  18  19
ENDBRANCH   1  18
BRANCH   3  26
ATOM     26  C   UNL     1      37.053 -23.496 -14.642  0.00  0.00    +0.075 C 
BRANCH  26  27
ATOM     27  C   UNL     1      37.848 -24.800 -14.849  0.00  0.00    +0.009 C 
BRANCH  27  28
ATOM     28  C   UNL     1      38.754 -25.121 -13.661  0.00  0.00    +0.000 C 
ATOM     29  C   UNL     1      40.129 -25.581 -14.117  0.00  0.00    +0.000 C 
ENDBRANCH  27  28
ENDBRANCH  26  27
ENDBRANCH   3  26
TORSDOF 11
ENDMDL
MODEL 3
REMARK VINA RESULT:      -8.6      6.487     12.069
REMARK  Name = 49855250
REMARK  11 active torsions:
REMARK  status: ('A' for Active; 'I' for Inactive)
REMARK    1  A    between atoms: N_1  and  C_18
REMARK    2  A    between atoms: C_3  and  C_26
REMARK    3  A    between atoms: C_8  and  C_10
REMARK    4  A    between atoms: C_11  and  C_14
REMARK    5  A    between atoms: N_13  and  O_16
REMARK    6  A    between atoms: C_18  and  C_19
REMARK    7  A    between atoms: C_19  and  N_20
REMARK    8  A    between atoms: N_20  and  C_22
REMARK    9  A    between atoms: N_20  and  C_24
REMARK   10  A    between atoms: C_26  and  C_27
REMARK   11  A    between atoms: C_27  and  C_28
REMARK                            x       y       z     vdW  Elec       q    Type
REMARK                         _______ _______ _______ _____ _____    ______ ____
ROOT
ATOM      1  N   UNL     1      32.644 -12.539 -22.653  0.00  0.00    -0.266 N 
ATOM      2  N   UNL     1      32.052 -13.379 -20.682  0.00  0.00    -0.394 NA
ATOM      3  C   UNL     1      31.904 -12.374 -21.517  0.00  0.00    +0.163 C 
ATOM      4  C   UNL     1      33.315 -13.731 -22.546  0.00  0.00    +0.079 C 
ATOM      5  C   UNL     1      32.928 -14.235 -21.308  0.00  0.00    +0.128 C 
ATOM      6  C   UNL     1      34.199 -14.391 -23.400  0.00  0.00    +0.017 C 
ATOM      7  C   UNL     1      33.445 -15.470 -20.879  0.00  0.00    +0.087 C 
ATOM      8  C   UNL     1      34.334 -16.150 -21.720  0.00  0.00    -0.015 C 
ATOM      9  C   UNL     1      34.704 -15.619 -22.959  0.00  0.00    -0.002 C 
ENDROOT
BRANCH   8  10
ATOM     10  C   UNL     1      34.882 -17.431 -21.296  0.00  0.00    +0.001 C 
ATOM     11  C   UNL     1      34.163 -18.555 -21.092  0.00  0.00    +0.059 C 
BRANCH  11  14
ATOM     12  O   UNL     1      34.237 -20.881 -20.554  0.00  0.00    -0.268 OA
ATOM     13  N   UNL     1      36.154 -19.606 -20.358  0.00  0.00    -0.193 N 
ATOM     14  C   UNL     1      34.830 -19.811 -20.646  0.00  0.00    +0.268 C 
ATOM     15  H   UNL     1      36.580 -18.722 -20.450  0.00  0.00    +0.183 HD
BRANCH  13  16
ATOM     16  O   UNL     1      36.864 -20.734 -19.924  0.00  0.00    -0.295 OA
ATOM     17  H   UNL     1      36.624 -20.935 -19.006  0.00  0.00    +0.241 HD
ENDBRANCH  13  16
ENDBRANCH  11  14
ENDBRANCH   8  10
BRANCH   1  18
ATOM     18  C   UNL     1      32.711 -11.626 -23.771  0.00  0.00    +0.075 C 
BRANCH  18  19
ATOM     19  C   UNL     1      33.360 -10.301 -23.375  0.00  0.00    -0.055 C 
BRANCH  19  20
ATOM     20  N   UNL     1      34.650 -10.150 -24.040  0.00  0.00    +0.388 N 
ATOM     21  H   UNL     1      35.375 -10.489 -23.408  0.00  0.00    -0.080 HD
BRANCH  20  22
ATOM     22  C   UNL     1      34.913  -8.741 -24.338  0.00  0.00    -0.077 C 
ATOM     23  C   UNL     1      34.471  -7.846 -23.192  0.00  0.00    -0.025 C 
ENDBRANCH  20  22
BRANCH  20  24
ATOM     24  C   UNL     1      34.692 -10.947 -25.267  0.00  0.00    -0.077 C 
ATOM     25  C   UNL     1      35.664 -10.353 -26.273  0.00  0.00    -0.025 C 
ENDBRANCH  20  24
ENDBRANCH  19  20
ENDBRANCH  18  19
ENDBRANCH   1  18
BRANCH   3  26
ATOM     26  C   UNL     1      31.053 -11.186 -21.298  0.00  0.00    +0.075 C 
BRANCH  26  27
ATOM     27  C   UNL     1      30.926 -10.808 -19.809  0.00  0.00    +0.009 C 
BRANCH  27  28
ATOM     28  C   UNL     1      32.076  -9.919 -19.337  0.00  0.00    +0.000 C 
ATOM     29  C   UNL     1      32.202  -8.669 -20.194  0.00  0.00    +0.000 C 
ENDBRANCH  27  28
ENDBRANCH  26  27
ENDBRANCH   3  26
TORSDOF 11
ENDMDL
MODEL 4
REMARK VINA RESULT:      -8.5      5.959     11.590
REMARK  Name = 49855250
REMARK  11 active torsions:
REMARK  status: ('A' for Active; 'I' for Inactive)
REMARK    1  A    between atoms: N_1  and  C_18
REMARK    2  A    between atoms: C_3  and  C_26
REMARK    3  A    between atoms: C_8  and  C_10
REMARK    4  A    between atoms: C_11  and  C_14
REMARK    5  A    between atoms: N_13  and  O_16
REMARK    6  A    between atoms: C_18  and  C_19
REMARK    7  A    between atoms: C_19  and  N_20
REMARK    8  A    between atoms: N_20  and  C_22
REMARK    9  A    between atoms: N_20  and  C_24
REMARK   10  A    between atoms: C_26  and  C_27
REMARK   11  A    between atoms: C_27  and  C_28
REMARK                            x       y       z     vdW  Elec       q    Type
REMARK                         _______ _______ _______ _____ _____    ______ ____
ROOT
ATOM      1  N   UNL     1      32.922 -13.671 -22.708  0.00  0.00    -0.266 N 
ATOM      2  N   UNL     1      32.572 -14.363 -20.625  0.00  0.00    -0.394 NA
ATOM      3  C   UNL     1      32.369 -13.393 -21.489  0.00  0.00    +0.163 C 
ATOM      4  C   UNL     1      33.522 -14.901 -22.625  0.00  0.00    +0.079 C 
ATOM      5  C   UNL     1      33.289 -15.312 -21.316  0.00  0.00    +0.128 C 
ATOM      6  C   UNL     1      34.227 -15.667 -23.555  0.00  0.00    +0.017 C 
ATOM      7  C   UNL     1      33.782 -16.558 -20.891  0.00  0.00    +0.087 C 
ATOM      8  C   UNL     1      34.491 -17.344 -21.808  0.00  0.00    -0.015 C 
ATOM      9  C   UNL     1      34.709 -16.904 -23.116  0.00  0.00    -0.002 C 
ENDROOT
BRANCH   8  10
ATOM     10  C   UNL     1      35.011 -18.638 -21.389  0.00  0.00    +0.001 C 
ATOM     11  C   UNL     1      34.348 -19.531 -20.622  0.00  0.00    +0.059 C 
BRANCH  11  14
ATOM     12  O   UNL     1      36.182 -21.043 -20.392  0.00  0.00    -0.268 OA
ATOM     13  N   UNL     1      34.069 -21.707 -19.731  0.00  0.00    -0.193 N 
ATOM     14  C   UNL     1      34.984 -20.824 -20.244  0.00  0.00    +0.268 C 
ATOM     15  H   UNL     1      33.116 -21.478 -19.634  0.00  0.00    +0.183 HD
BRANCH  13  16
ATOM     16  O   UNL     1      34.578 -22.957 -19.351  0.00  0.00    -0.295 OA
ATOM     17  H   UNL     1      35.085 -23.337 -20.086  0.00  0.00    +0.241 HD
ENDBRANCH  13  16
ENDBRANCH  11  14
ENDBRANCH   8  10
BRANCH   1  18
ATOM     18  C   UNL     1      32.884 -12.823 -23.877  0.00  0.00    +0.075 C 
BRANCH  18  19
ATOM     19  C   UNL     1      34.158 -11.989 -24.008  0.00  0.00    -0.055 C 
BRANCH  19  20
ATOM     20  N   UNL     1      33.842 -10.660 -24.519  0.00  0.00    +0.388 N 
ATOM     21  H   UNL     1      33.302 -10.769 -25.377  0.00  0.00    -0.080 HD
BRANCH  20  22
ATOM     22  C   UNL     1      35.069  -9.925 -24.832  0.00  0.00    -0.077 C 
ATOM     23  C   UNL     1      35.648 -10.367 -26.166  0.00  0.00    -0.025 C 
ENDBRANCH  20  22
BRANCH  20  24
ATOM     24  C   UNL     1      33.035  -9.914 -23.552  0.00  0.00    -0.077 C 
ATOM     25  C   UNL     1      33.637  -8.548 -23.273  0.00  0.00    -0.025 C 
ENDBRANCH  20  24
ENDBRANCH  19  20
ENDBRANCH  18  19
ENDBRANCH   1  18
BRANCH   3  26
ATOM     26  C   UNL     1      31.639 -12.137 -21.224  0.00  0.00    +0.075 C 
BRANCH  26  27
ATOM     27  C   UNL     1      31.718 -11.701 -19.747  0.00  0.00    +0.009 C 
BRANCH  27  28
ATOM     28  C   UNL     1      31.090 -10.327 -19.515  0.00  0.00    +0.000 C 
ATOM     29  C   UNL     1      32.028  -9.207 -19.937  0.00  0.00    +0.000 C 
ENDBRANCH  27  28
ENDBRANCH  26  27
ENDBRANCH   3  26
TORSDOF 11
ENDMDL
MODEL 5
REMARK VINA RESULT:      -8.5      1.298      4.178
REMARK  Name = 49855250
REMARK  11 active torsions:
REMARK  status: ('A' for Active; 'I' for Inactive)
REMARK    1  A    between atoms: N_1  and  C_18
REMARK    2  A    between atoms: C_3  and  C_26
REMARK    3  A    between atoms: C_8  and  C_10
REMARK    4  A    between atoms: C_11  and  C_14
REMARK    5  A    between atoms: N_13  and  O_16
REMARK    6  A    between atoms: C_18  and  C_19
REMARK    7  A    between atoms: C_19  and  N_20
REMARK    8  A    between atoms: N_20  and  C_22
REMARK    9  A    between atoms: N_20  and  C_24
REMARK   10  A    between atoms: C_26  and  C_27
REMARK   11  A    between atoms: C_27  and  C_28
REMARK                            x       y       z     vdW  Elec       q    Type
REMARK                         _______ _______ _______ _____ _____    ______ ____
ROOT
ATOM      1  N   UNL     1      34.973 -23.195 -16.445  0.00  0.00    -0.266 N 
ATOM      2  N   UNL     1      36.976 -22.339 -16.889  0.00  0.00    -0.394 NA
ATOM      3  C   UNL     1      36.275 -23.069 -16.049  0.00  0.00    +0.163 C 
ATOM      4  C   UNL     1      34.823 -22.500 -17.619  0.00  0.00    +0.079 C 
ATOM      5  C   UNL     1      36.087 -21.976 -17.874  0.00  0.00    +0.128 C 
ATOM      6  C   UNL     1      33.724 -22.292 -18.453  0.00  0.00    +0.017 C 
ATOM      7  C   UNL     1      36.285 -21.195 -19.026  0.00  0.00    +0.087 C 
ATOM      8  C   UNL     1      35.196 -20.973 -19.878  0.00  0.00    -0.015 C 
ATOM      9  C   UNL     1      33.938 -21.513 -19.595  0.00  0.00    -0.002 C 
ENDROOT
BRANCH   8  10
ATOM     10  C   UNL     1      35.378 -20.166 -21.076  0.00  0.00    +0.001 C 
ATOM     11  C   UNL     1      34.628 -19.096 -21.415  0.00  0.00    +0.059 C 
BRANCH  11  14
ATOM     12  O   UNL     1      34.686 -18.822 -23.786  0.00  0.00    -0.268 OA
ATOM     13  N   UNL     1      35.408 -17.101 -22.424  0.00  0.00    -0.193 N 
ATOM     14  C   UNL     1      34.899 -18.349 -22.675  0.00  0.00    +0.268 C 
ATOM     15  H   UNL     1      35.560 -16.771 -21.508  0.00  0.00    +0.183 HD
BRANCH  13  16
ATOM     16  O   UNL     1      35.700 -16.325 -23.554  0.00  0.00    -0.295 OA
ATOM     17  H   UNL     1      35.851 -16.906 -24.316  0.00  0.00    +0.241 HD
ENDBRANCH  13  16
ENDBRANCH  11  14
ENDBRANCH   8  10
BRANCH   1  18
ATOM     18  C   UNL     1      33.936 -23.928 -15.755  0.00  0.00    +0.075 C 
BRANCH  18  19
ATOM     19  C   UNL     1      33.390 -23.141 -14.564  0.00  0.00    -0.055 C 
BRANCH  19  20
ATOM     20  N   UNL     1      31.949 -22.960 -14.696  0.00  0.00    +0.388 N 
ATOM     21  H   UNL     1      31.760 -21.961 -14.778  0.00  0.00    -0.080 HD
BRANCH  20  22
ATOM     22  C   UNL     1      31.257 -23.469 -13.511  0.00  0.00    -0.077 C 
ATOM     23  C   UNL     1      31.113 -24.981 -13.567  0.00  0.00    -0.025 C 
ENDBRANCH  20  22
BRANCH  20  24
ATOM     24  C   UNL     1      31.454 -23.628 -15.901  0.00  0.00    -0.077 C 
ATOM     25  C   UNL     1      30.294 -22.864 -16.515  0.00  0.00    -0.025 C 
ENDBRANCH  20  24
ENDBRANCH  19  20
ENDBRANCH  18  19
ENDBRANCH   1  18
BRANCH   3  26
ATOM     26  C   UNL     1      36.786 -23.698 -14.814  0.00  0.00    +0.075 C 
BRANCH  26  27
ATOM     27  C   UNL     1      38.108 -24.460 -15.036  0.00  0.00    +0.009 C 
BRANCH  27  28
ATOM     28  C   UNL     1      38.641 -25.084 -13.747  0.00  0.00    +0.000 C 
ATOM     29  C   UNL     1      40.048 -25.628 -13.931  0.00  0.00    +0.000 C 
ENDBRANCH  27  28
ENDBRANCH  26  27
ENDBRANCH   3  26
TORSDOF 11
ENDMDL
MODEL 6
REMARK VINA RESULT:      -8.4      7.277     12.825
REMARK  Name = 49855250
REMARK  11 active torsions:
REMARK  status: ('A' for Active; 'I' for Inactive)
REMARK    1  A    between atoms: N_1  and  C_18
REMARK    2  A    between atoms: C_3  and  C_26
REMARK    3  A    between atoms: C_8  and  C_10
REMARK    4  A    between atoms: C_11  and  C_14
REMARK    5  A    between atoms: N_13  and  O_16
REMARK    6  A    between atoms: C_18  and  C_19
REMARK    7  A    between atoms: C_19  and  N_20
REMARK    8  A    between atoms: N_20  and  C_22
REMARK    9  A    between atoms: N_20  and  C_24
REMARK   10  A    between atoms: C_26  and  C_27
REMARK   11  A    between atoms: C_27  and  C_28
REMARK                            x       y       z     vdW  Elec       q    Type
REMARK                         _______ _______ _______ _____ _____    ______ ____
ROOT
ATOM      1  N   UNL     1      32.597 -11.457 -22.865  0.00  0.00    -0.266 N 
ATOM      2  N   UNL     1      34.192 -12.455 -24.048  0.00  0.00    -0.394 NA
ATOM      3  C   UNL     1      33.495 -11.352 -23.889  0.00  0.00    +0.163 C 
ATOM      4  C   UNL     1      32.721 -12.713 -22.326  0.00  0.00    +0.079 C 
ATOM      5  C   UNL     1      33.723 -13.315 -23.082  0.00  0.00    +0.128 C 
ATOM      6  C   UNL     1      32.064 -13.352 -21.274  0.00  0.00    +0.017 C 
ATOM      7  C   UNL     1      34.104 -14.635 -22.786  0.00  0.00    +0.087 C 
ATOM      8  C   UNL     1      33.458 -15.297 -21.734  0.00  0.00    -0.015 C 
ATOM      9  C   UNL     1      32.456 -14.666 -20.993  0.00  0.00    -0.002 C 
ENDROOT
BRANCH   8  10
ATOM     10  C   UNL     1      33.837 -16.665 -21.410  0.00  0.00    +0.001 C 
ATOM     11  C   UNL     1      34.959 -17.284 -21.839  0.00  0.00    +0.059 C 
BRANCH  11  14
ATOM     12  O   UNL     1      34.661 -19.649 -21.958  0.00  0.00    -0.268 OA
ATOM     13  N   UNL     1      36.204 -18.770 -20.480  0.00  0.00    -0.193 N 
ATOM     14  C   UNL     1      35.240 -18.694 -21.452  0.00  0.00    +0.268 C 
ATOM     15  H   UNL     1      36.638 -17.968 -20.108  0.00  0.00    +0.183 HD
BRANCH  13  16
ATOM     16  O   UNL     1      36.532 -20.063 -20.049  0.00  0.00    -0.295 OA
ATOM     17  H   UNL     1      36.166 -20.714 -20.668  0.00  0.00    +0.241 HD
ENDBRANCH  13  16
ENDBRANCH  11  14
ENDBRANCH   8  10
BRANCH   1  18
ATOM     18  C   UNL     1      31.679 -10.432 -22.423  0.00  0.00    +0.075 C 
BRANCH  18  19
ATOM     19  C   UNL     1      32.412  -9.281 -21.735  0.00  0.00    -0.055 C 
BRANCH  19  20
ATOM     20  N   UNL     1      31.810  -9.005 -20.435  0.00  0.00    +0.388 N 
ATOM     21  H   UNL     1      30.800  -9.105 -20.524  0.00  0.00    -0.080 HD
BRANCH  20  22
ATOM     22  C   UNL     1      32.108  -7.635 -20.012  0.00  0.00    -0.077 C 
ATOM     23  C   UNL     1      32.139  -6.689 -21.201  0.00  0.00    -0.025 C 
ENDBRANCH  20  22
BRANCH  20  24
ATOM     24  C   UNL     1      32.286  -9.961 -19.434  0.00  0.00    -0.077 C 
ATOM     25  C   UNL     1      31.136 -10.766 -18.854  0.00  0.00    -0.025 C 
ENDBRANCH  20  24
ENDBRANCH  19  20
ENDBRANCH  18  19
ENDBRANCH   1  18
BRANCH   3  26
ATOM     26  C   UNL     1      33.630 -10.120 -24.694  0.00  0.00    +0.075 C 
BRANCH  26  27
ATOM     27  C   UNL     1      34.976  -9.404 -24.468  0.00  0.00    +0.009 C 
BRANCH  27  28
ATOM     28  C   UNL     1      34.813  -8.097 -23.693  0.00  0.00    +0.000 C 
ATOM     29  C   UNL     1      34.419  -6.950 -24.610  0.00  0.00    +0.000 C 
ENDBRANCH  27  28
ENDBRANCH  26  27
ENDBRANCH   3  26
TORSDOF 11
ENDMDL
MODEL 7
REMARK VINA RESULT:      -8.3      4.186      6.794
REMARK  Name = 49855250
REMARK  11 active torsions:
REMARK  status: ('A' for Active; 'I' for Inactive)
REMARK    1  A    between atoms: N_1  and  C_18
REMARK    2  A    between atoms: C_3  and  C_26
REMARK    3  A    between atoms: C_8  and  C_10
REMARK    4  A    between atoms: C_11  and  C_14
REMARK    5  A    between atoms: N_13  and  O_16
REMARK    6  A    between atoms: C_18  and  C_19
REMARK    7  A    between atoms: C_19  and  N_20
REMARK    8  A    between atoms: N_20  and  C_22
REMARK    9  A    between atoms: N_20  and  C_24
REMARK   10  A    between atoms: C_26  and  C_27
REMARK   11  A    between atoms: C_27  and  C_28
REMARK                            x       y       z     vdW  Elec       q    Type
REMARK                         _______ _______ _______ _____ _____    ______ ____
ROOT
ATOM      1  N   UNL     1      35.112 -23.365 -14.419  0.00  0.00    -0.266 N 
ATOM      2  N   UNL     1      34.525 -22.998 -16.532  0.00  0.00    -0.394 NA
ATOM      3  C   UNL     1      35.533 -23.121 -15.696  0.00  0.00    +0.163 C 
ATOM      4  C   UNL     1      33.741 -23.403 -14.431  0.00  0.00    +0.079 C 
ATOM      5  C   UNL     1      33.400 -23.171 -15.760  0.00  0.00    +0.128 C 
ATOM      6  C   UNL     1      32.799 -23.614 -13.423  0.00  0.00    +0.017 C 
ATOM      7  C   UNL     1      32.042 -23.145 -16.125  0.00  0.00    +0.087 C 
ATOM      8  C   UNL     1      31.079 -23.355 -15.130  0.00  0.00    -0.015 C 
ATOM      9  C   UNL     1      31.453 -23.585 -13.803  0.00  0.00    -0.002 C 
ENDROOT
BRANCH   8  10
ATOM     10  C   UNL     1      29.667 -23.331 -15.485  0.00  0.00    +0.001 C 
ATOM     11  C   UNL     1      29.154 -22.755 -16.593  0.00  0.00    +0.059 C 
BRANCH  11  14
ATOM     12  O   UNL     1      27.197 -23.310 -17.843  0.00  0.00    -0.268 OA
ATOM     13  N   UNL     1      26.987 -22.150 -15.855  0.00  0.00    -0.193 N 
ATOM     14  C   UNL     1      27.687 -22.782 -16.851  0.00  0.00    +0.268 C 
ATOM     15  H   UNL     1      27.433 -21.742 -15.078  0.00  0.00    +0.183 HD
BRANCH  13  16
ATOM     16  O   UNL     1      25.594 -22.122 -16.016  0.00  0.00    -0.295 OA
ATOM     17  H   UNL     1      25.290 -21.202 -16.051  0.00  0.00    +0.241 HD
ENDBRANCH  13  16
ENDBRANCH  11  14
ENDBRANCH   8  10
BRANCH   1  18
ATOM     18  C   UNL     1      35.956 -23.552 -13.261  0.00  0.00    +0.075 C 
BRANCH  18  19
ATOM     19  C   UNL     1      36.208 -25.034 -12.984  0.00  0.00    -0.055 C 
BRANCH  19  20
ATOM     20  N   UNL     1      37.371 -25.497 -13.731  0.00  0.00    +0.388 N 
ATOM     21  H   UNL     1      37.489 -24.893 -14.544  0.00  0.00    -0.080 HD
BRANCH  20  22
ATOM     22  C   UNL     1      37.169 -26.870 -14.197  0.00  0.00    -0.077 C 
ATOM     23  C   UNL     1      36.580 -26.892 -15.598  0.00  0.00    -0.025 C 
ENDBRANCH  20  22
BRANCH  20  24
ATOM     24  C   UNL     1      38.579 -25.412 -12.908  0.00  0.00    -0.077 C 
ATOM     25  C   UNL     1      39.818 -25.234 -13.769  0.00  0.00    -0.025 C 
ENDBRANCH  20  24
ENDBRANCH  19  20
ENDBRANCH  18  19
ENDBRANCH   1  18
BRANCH   3  26
ATOM     26  C   UNL     1      36.965 -23.015 -16.046  0.00  0.00    +0.075 C 
BRANCH  26  27
ATOM     27  C   UNL     1      37.307 -21.696 -16.766  0.00  0.00    +0.009 C 
BRANCH  27  28
ATOM     28  C   UNL     1      37.344 -21.858 -18.285  0.00  0.00    +0.000 C 
ATOM     29  C   UNL     1      36.113 -21.252 -18.940  0.00  0.00    +0.000 C 
ENDBRANCH  27  28
ENDBRANCH  26  27
ENDBRANCH   3  26
TORSDOF 11
ENDMDL
MODEL 8
REMARK VINA RESULT:      -8.3      6.098     10.162
REMARK  Name = 49855250
REMARK  11 active torsions:
REMARK  status: ('A' for Active; 'I' for Inactive)
REMARK    1  A    between atoms: N_1  and  C_18
REMARK    2  A    between atoms: C_3  and  C_26
REMARK    3  A    between atoms: C_8  and  C_10
REMARK    4  A    between atoms: C_11  and  C_14
REMARK    5  A    between atoms: N_13  and  O_16
REMARK    6  A    between atoms: C_18  and  C_19
REMARK    7  A    between atoms: C_19  and  N_20
REMARK    8  A    between atoms: N_20  and  C_22
REMARK    9  A    between atoms: N_20  and  C_24
REMARK   10  A    between atoms: C_26  and  C_27
REMARK   11  A    between atoms: C_27  and  C_28
REMARK                            x       y       z     vdW  Elec       q    Type
REMARK                         _______ _______ _______ _____ _____    ______ ____
ROOT
ATOM      1  N   UNL     1      33.627 -15.349 -22.192  0.00  0.00    -0.266 N 
ATOM      2  N   UNL     1      34.110 -14.130 -23.987  0.00  0.00    -0.394 NA
ATOM      3  C   UNL     1      34.261 -15.298 -23.402  0.00  0.00    +0.163 C 
ATOM      4  C   UNL     1      33.028 -14.133 -21.981  0.00  0.00    +0.079 C 
ATOM      5  C   UNL     1      33.344 -13.391 -23.116  0.00  0.00    +0.128 C 
ATOM      6  C   UNL     1      32.260 -13.634 -20.928  0.00  0.00    +0.017 C 
ATOM      7  C   UNL     1      32.875 -12.070 -23.223  0.00  0.00    +0.087 C 
ATOM      8  C   UNL     1      32.102 -11.549 -22.178  0.00  0.00    -0.015 C 
ATOM      9  C   UNL     1      31.801 -12.319 -21.051  0.00  0.00    -0.002 C 
ENDROOT
BRANCH   8  10
ATOM     10  C   UNL     1      31.606 -10.183 -22.268  0.00  0.00    +0.001 C 
ATOM     11  C   UNL     1      32.322  -9.075 -21.982  0.00  0.00    +0.059 C 
BRANCH  11  14
ATOM     12  O   UNL     1      30.962  -7.411 -23.023  0.00  0.00    -0.268 OA
ATOM     13  N   UNL     1      32.083  -6.904 -21.067  0.00  0.00    -0.193 N 
ATOM     14  C   UNL     1      31.707  -7.723 -22.100  0.00  0.00    +0.268 C 
ATOM     15  H   UNL     1      32.686  -7.208 -20.349  0.00  0.00    +0.183 HD
BRANCH  13  16
ATOM     16  O   UNL     1      31.554  -5.606 -21.098  0.00  0.00    -0.295 OA
ATOM     17  H   UNL     1      31.118  -5.413 -20.253  0.00  0.00    +0.241 HD
ENDBRANCH  13  16
ENDBRANCH  11  14
ENDBRANCH   8  10
BRANCH   1  18
ATOM     18  C   UNL     1      33.592 -16.479 -21.292  0.00  0.00    +0.075 C 
BRANCH  18  19
ATOM     19  C   UNL     1      34.997 -16.904 -20.869  0.00  0.00    -0.055 C 
BRANCH  19  20
ATOM     20  N   UNL     1      35.051 -18.348 -20.670  0.00  0.00    +0.388 N 
ATOM     21  H   UNL     1      34.972 -18.535 -19.671  0.00  0.00    -0.080 HD
BRANCH  20  22
ATOM     22  C   UNL     1      36.327 -18.885 -21.146  0.00  0.00    -0.077 C 
ATOM     23  C   UNL     1      36.795 -20.039 -20.274  0.00  0.00    -0.025 C 
ENDBRANCH  20  22
BRANCH  20  24
ATOM     24  C   UNL     1      33.936 -19.003 -21.357  0.00  0.00    -0.077 C 
ATOM     25  C   UNL     1      33.252 -20.013 -20.452  0.00  0.00    -0.025 C 
ENDBRANCH  20  24
ENDBRANCH  19  20
ENDBRANCH  18  19
ENDBRANCH   1  18
BRANCH   3  26
ATOM     26  C   UNL     1      35.013 -16.447 -23.945  0.00  0.00    +0.075 C 
BRANCH  26  27
ATOM     27  C   UNL     1      34.468 -16.929 -25.304  0.00  0.00    +0.009 C 
BRANCH  27  28
ATOM     28  C   UNL     1      33.993 -18.380 -25.256  0.00  0.00    +0.000 C 
ATOM     29  C   UNL     1      34.966 -19.259 -24.486  0.00  0.00    +0.000 C 
ENDBRANCH  27  28
ENDBRANCH  26  27
ENDBRANCH   3  26
TORSDOF 11
ENDMDL
MODEL 9
REMARK VINA RESULT:      -8.3      7.143     13.000
REMARK  Name = 49855250
REMARK  11 active torsions:
REMARK  status: ('A' for Active; 'I' for Inactive)
REMARK    1  A    between atoms: N_1  and  C_18
REMARK    2  A    between atoms: C_3  and  C_26
REMARK    3  A    between atoms: C_8  and  C_10
REMARK    4  A    between atoms: C_11  and  C_14
REMARK    5  A    between atoms: N_13  and  O_16
REMARK    6  A    between atoms: C_18  and  C_19
REMARK    7  A    between atoms: C_19  and  N_20
REMARK    8  A    between atoms: N_20  and  C_22
REMARK    9  A    between atoms: N_20  and  C_24
REMARK   10  A    between atoms: C_26  and  C_27
REMARK   11  A    between atoms: C_27  and  C_28
REMARK                            x       y       z     vdW  Elec       q    Type
REMARK                         _______ _______ _______ _____ _____    ______ ____
ROOT
ATOM      1  N   UNL     1      32.639 -12.019 -22.877  0.00  0.00    -0.266 N 
ATOM      2  N   UNL     1      34.293 -12.989 -24.001  0.00  0.00    -0.394 NA
ATOM      3  C   UNL     1      33.489 -11.951 -23.945  0.00  0.00    +0.163 C 
ATOM      4  C   UNL     1      32.912 -13.179 -22.198  0.00  0.00    +0.079 C 
ATOM      5  C   UNL     1      33.948 -13.766 -22.919  0.00  0.00    +0.128 C 
ATOM      6  C   UNL     1      32.359 -13.747 -21.050  0.00  0.00    +0.017 C 
ATOM      7  C   UNL     1      34.476 -14.994 -22.484  0.00  0.00    +0.087 C 
ATOM      8  C   UNL     1      33.937 -15.582 -21.333  0.00  0.00    -0.015 C 
ATOM      9  C   UNL     1      32.897 -14.969 -20.630  0.00  0.00    -0.002 C 
ENDROOT
BRANCH   8  10
ATOM     10  C   UNL     1      34.469 -16.854 -20.865  0.00  0.00    +0.001 C 
ATOM     11  C   UNL     1      34.307 -18.042 -21.488  0.00  0.00    +0.059 C 
BRANCH  11  14
ATOM     12  O   UNL     1      34.288 -20.355 -20.897  0.00  0.00    -0.268 OA
ATOM     13  N   UNL     1      36.145 -19.070 -20.406  0.00  0.00    -0.193 N 
ATOM     14  C   UNL     1      34.888 -19.285 -20.910  0.00  0.00    +0.268 C 
ATOM     15  H   UNL     1      36.581 -18.187 -20.444  0.00  0.00    +0.183 HD
BRANCH  13  16
ATOM     16  O   UNL     1      36.771 -20.188 -19.836  0.00  0.00    -0.295 OA
ATOM     17  H   UNL     1      37.595 -19.913 -19.404  0.00  0.00    +0.241 HD
ENDBRANCH  13  16
ENDBRANCH  11  14
ENDBRANCH   8  10
BRANCH   1  18
ATOM     18  C   UNL     1      31.631 -11.046 -22.522  0.00  0.00    +0.075 C 
BRANCH  18  19
ATOM     19  C   UNL     1      32.166 -10.025 -21.518  0.00  0.00    -0.055 C 
BRANCH  19  20
ATOM     20  N   UNL     1      31.654  -8.695 -21.828  0.00  0.00    +0.388 N 
ATOM     21  H   UNL     1      30.817  -8.538 -21.267  0.00  0.00    -0.080 HD
BRANCH  20  22
ATOM     22  C   UNL     1      31.291  -8.601 -23.243  0.00  0.00    -0.077 C 
ATOM     23  C   UNL     1      30.975  -7.167 -23.634  0.00  0.00    -0.025 C 
ENDBRANCH  20  22
BRANCH  20  24
ATOM     24  C   UNL     1      32.642  -7.671 -21.487  0.00  0.00    -0.077 C 
ATOM     25  C   UNL     1      32.502  -7.233 -20.039  0.00  0.00    -0.025 C 
ENDBRANCH  20  24
ENDBRANCH  19  20
ENDBRANCH  18  19
ENDBRANCH   1  18
BRANCH   3  26
ATOM     26  C   UNL     1      33.467 -10.821 -24.897  0.00  0.00    +0.075 C 
BRANCH  26  27
ATOM     27  C   UNL     1      34.815 -10.076 -24.970  0.00  0.00    +0.009 C 
BRANCH  27  28
ATOM     28  C   UNL     1      34.920  -8.965 -23.927  0.00  0.00    +0.000 C 
ATOM     29  C   UNL     1      34.651  -7.599 -24.538  0.00  0.00    +0.000 C 
ENDBRANCH  27  28
ENDBRANCH  26  27
ENDBRANCH   3  26
TORSDOF 11
ENDMDL
