MODEL 1
REMARK VINA RESULT:     -10.6      0.000      0.000
REMARK  Name = 507806
REMARK  5 active torsions:
REMARK  status: ('A' for Active; 'I' for Inactive)
REMARK    1  A    between atoms: C_9  and  C_18
REMARK    2  A    between atoms: C_10  and  C_11
REMARK    3  A    between atoms: C_18  and  C_21
REMARK    4  A    between atoms: C_25  and  O_29
REMARK    5  A    between atoms: C_26  and  O_31
REMARK                            x       y       z     vdW  Elec       q    Type
REMARK                         _______ _______ _______ _____ _____    ______ ____
ROOT
ATOM      1  O   UNL     1      34.870 -18.705 -23.565  0.00  0.00    -0.266 OA
ATOM      2  O   UNL     1      33.457 -12.338 -25.733  0.00  0.00    -0.270 OA
ATOM      3  N   UNL     1      34.038 -16.534 -23.229  0.00  0.00    -0.270 N 
ATOM      4  N   UNL     1      34.041 -13.823 -24.025  0.00  0.00    -0.273 N 
ATOM      5  C   UNL     1      33.534 -15.508 -22.305  0.00  0.00    +0.115 C 
ATOM      6  C   UNL     1      33.941 -16.195 -24.650  0.00  0.00    +0.115 C 
ATOM      7  C   UNL     1      34.176 -14.154 -22.599  0.00  0.00    +0.115 C 
ATOM      8  C   UNL     1      34.578 -14.838 -24.934  0.00  0.00    +0.115 C 
ATOM      9  C   UNL     1      34.504 -17.782 -22.849  0.00  0.00    +0.288 C 
ATOM     10  C   UNL     1      33.519 -12.636 -24.541  0.00  0.00    +0.249 C 
ENDROOT
BRANCH  10  11
ATOM     11  C   UNL     1      32.980 -11.650 -23.597  0.00  0.00    +0.054 C 
ATOM     12  C   UNL     1      33.393 -10.323 -23.671  0.00  0.00    +0.005 C 
ATOM     13  C   UNL     1      32.057 -12.047 -22.632  0.00  0.00    +0.005 C 
ATOM     14  C   UNL     1      32.880  -9.385 -22.774  0.00  0.00    +0.000 C 
ATOM     15  C   UNL     1      31.545 -11.109 -21.735  0.00  0.00    +0.000 C 
ATOM     16  C   UNL     1      31.956  -9.778 -21.806  0.00  0.00    +0.000 C 
ENDBRANCH  10  11
BRANCH   9  18
ATOM     17  O   UNL     1      35.046 -17.123 -20.732  0.00  0.00    -0.282 OA
ATOM     18  C   UNL     1      34.566 -18.041 -21.392  0.00  0.00    +0.250 C 
BRANCH  18  21
ATOM     19  N   UNL     1      32.700 -20.901 -20.242  0.00  0.00    -0.308 N 
ATOM     20  N   UNL     1      35.618 -22.493 -18.638  0.00  0.00    -0.206 NA
ATOM     21  C   UNL     1      34.083 -19.292 -20.809  0.00  0.00    +0.062 C 
ATOM     22  C   UNL     1      34.828 -20.246 -20.091  0.00  0.00    +0.058 C 
ATOM     23  C   UNL     1      33.931 -21.257 -19.743  0.00  0.00    +0.105 C 
ATOM     24  C   UNL     1      32.787 -19.700 -20.895  0.00  0.00    +0.065 C 
ATOM     25  C   UNL     1      36.168 -20.371 -19.695  0.00  0.00    +0.159 C 
ATOM     26  C   UNL     1      34.325 -22.375 -19.019  0.00  0.00    +0.239 C 
ATOM     27  C   UNL     1      36.489 -21.514 -18.975  0.00  0.00    +0.139 C 
ATOM     28  H   UNL     1      31.877 -21.432 -20.145  0.00  0.00    +0.152 HD
BRANCH  25  29
ATOM     29  O   UNL     1      37.118 -19.438 -19.989  0.00  0.00    -0.470 OA
ATOM     30  C   UNL     1      37.574 -19.382 -21.338  0.00  0.00    +0.253 C 
ENDBRANCH  25  29
BRANCH  26  31
ATOM     31  O   UNL     1      33.452 -23.376 -18.672  0.00  0.00    -0.455 OA
ATOM     32  C   UNL     1      33.042 -23.421 -17.311  0.00  0.00    +0.254 C 
ENDBRANCH  26  31
ENDBRANCH  18  21
ENDBRANCH   9  18
TORSDOF 5
ENDMDL
MODEL 2
REMARK VINA RESULT:     -10.6      3.728     11.079
REMARK  Name = 507806
REMARK  5 active torsions:
REMARK  status: ('A' for Active; 'I' for Inactive)
REMARK    1  A    between atoms: C_9  and  C_18
REMARK    2  A    between atoms: C_10  and  C_11
REMARK    3  A    between atoms: C_18  and  C_21
REMARK    4  A    between atoms: C_25  and  O_29
REMARK    5  A    between atoms: C_26  and  O_31
REMARK                            x       y       z     vdW  Elec       q    Type
REMARK                         _______ _______ _______ _____ _____    ______ ____
ROOT
ATOM      1  O   UNL     1      31.524 -22.278 -17.989  0.00  0.00    -0.266 OA
ATOM      2  O   UNL     1      34.374 -24.242 -12.052  0.00  0.00    -0.270 OA
ATOM      3  N   UNL     1      33.270 -23.233 -16.738  0.00  0.00    -0.270 N 
ATOM      4  N   UNL     1      34.576 -23.458 -14.244  0.00  0.00    -0.273 N 
ATOM      5  C   UNL     1      34.645 -23.747 -16.687  0.00  0.00    +0.115 C 
ATOM      6  C   UNL     1      32.480 -23.437 -15.523  0.00  0.00    +0.115 C 
ATOM      7  C   UNL     1      35.374 -23.216 -15.455  0.00  0.00    +0.115 C 
ATOM      8  C   UNL     1      33.220 -22.911 -14.296  0.00  0.00    +0.115 C 
ATOM      9  C   UNL     1      32.679 -22.661 -17.855  0.00  0.00    +0.288 C 
ATOM     10  C   UNL     1      35.026 -24.088 -13.083  0.00  0.00    +0.249 C 
ENDROOT
BRANCH  10  11
ATOM     11  C   UNL     1      36.388 -24.635 -13.077  0.00  0.00    +0.054 C 
ATOM     12  C   UNL     1      37.374 -24.031 -12.301  0.00  0.00    +0.005 C 
ATOM     13  C   UNL     1      36.690 -25.756 -13.847  0.00  0.00    +0.005 C 
ATOM     14  C   UNL     1      38.669 -24.550 -12.294  0.00  0.00    +0.000 C 
ATOM     15  C   UNL     1      37.985 -26.274 -13.841  0.00  0.00    +0.000 C 
ATOM     16  C   UNL     1      38.974 -25.672 -13.064  0.00  0.00    +0.000 C 
ENDBRANCH  10  11
BRANCH   9  18
ATOM     17  O   UNL     1      34.193 -23.497 -19.345  0.00  0.00    -0.282 OA
ATOM     18  C   UNL     1      33.549 -22.495 -19.042  0.00  0.00    +0.250 C 
BRANCH  18  21
ATOM     19  N   UNL     1      32.946 -19.450 -20.871  0.00  0.00    -0.308 N 
ATOM     20  N   UNL     1      36.528 -18.613 -21.177  0.00  0.00    -0.206 NA
ATOM     21  C   UNL     1      33.615 -21.236 -19.781  0.00  0.00    +0.062 C 
ATOM     22  C   UNL     1      34.768 -20.516 -20.146  0.00  0.00    +0.058 C 
ATOM     23  C   UNL     1      34.320 -19.388 -20.835  0.00  0.00    +0.105 C 
ATOM     24  C   UNL     1      32.510 -20.578 -20.227  0.00  0.00    +0.065 C 
ATOM     25  C   UNL     1      36.148 -20.691 -19.970  0.00  0.00    +0.159 C 
ATOM     26  C   UNL     1      35.197 -18.441 -21.348  0.00  0.00    +0.239 C 
ATOM     27  C   UNL     1      36.964 -19.706 -20.509  0.00  0.00    +0.139 C 
ATOM     28  H   UNL     1      32.363 -18.781 -21.296  0.00  0.00    +0.152 HD
BRANCH  25  29
ATOM     29  O   UNL     1      36.682 -21.759 -19.310  0.00  0.00    -0.470 OA
ATOM     30  C   UNL     1      37.001 -21.575 -17.933  0.00  0.00    +0.253 C 
ENDBRANCH  25  29
BRANCH  26  31
ATOM     31  O   UNL     1      34.768 -17.328 -22.026  0.00  0.00    -0.455 OA
ATOM     32  C   UNL     1      34.702 -16.116 -21.285  0.00  0.00    +0.254 C 
ENDBRANCH  26  31
ENDBRANCH  18  21
ENDBRANCH   9  18
TORSDOF 5
ENDMDL
MODEL 3
REMARK VINA RESULT:     -10.1      3.279      6.755
REMARK  Name = 507806
REMARK  5 active torsions:
REMARK  status: ('A' for Active; 'I' for Inactive)
REMARK    1  A    between atoms: C_9  and  C_18
REMARK    2  A    between atoms: C_10  and  C_11
REMARK    3  A    between atoms: C_18  and  C_21
REMARK    4  A    between atoms: C_25  and  O_29
REMARK    5  A    between atoms: C_26  and  O_31
REMARK                            x       y       z     vdW  Elec       q    Type
REMARK                         _______ _______ _______ _____ _____    ______ ____
ROOT
ATOM      1  O   UNL     1      31.688 -12.391 -20.182  0.00  0.00    -0.266 OA
ATOM      2  O   UNL     1      32.168  -5.736 -21.832  0.00  0.00    -0.270 OA
ATOM      3  N   UNL     1      32.365 -10.647 -21.604  0.00  0.00    -0.270 N 
ATOM      4  N   UNL     1      31.994  -7.981 -22.461  0.00  0.00    -0.273 N 
ATOM      5  C   UNL     1      32.914 -10.221 -22.898  0.00  0.00    +0.115 C 
ATOM      6  C   UNL     1      32.207  -9.582 -20.612  0.00  0.00    +0.115 C 
ATOM      7  C   UNL     1      32.116  -9.048 -23.464  0.00  0.00    +0.115 C 
ATOM      8  C   UNL     1      31.415  -8.412 -21.187  0.00  0.00    +0.115 C 
ATOM      9  C   UNL     1      32.078 -11.958 -21.259  0.00  0.00    +0.288 C 
ATOM     10  C   UNL     1      32.320  -6.638 -22.655  0.00  0.00    +0.249 C 
ENDROOT
BRANCH  10  11
ATOM     11  C   UNL     1      32.912  -6.249 -23.940  0.00  0.00    +0.054 C 
ATOM     12  C   UNL     1      34.166  -6.734 -24.301  0.00  0.00    +0.005 C 
ATOM     13  C   UNL     1      32.216  -5.396 -24.794  0.00  0.00    +0.005 C 
ATOM     14  C   UNL     1      34.729  -6.364 -25.523  0.00  0.00    +0.000 C 
ATOM     15  C   UNL     1      32.779  -5.026 -26.016  0.00  0.00    +0.000 C 
ATOM     16  C   UNL     1      34.036  -5.510 -26.381  0.00  0.00    +0.000 C 
ENDBRANCH  10  11
BRANCH   9  18
ATOM     17  O   UNL     1      31.618 -12.766 -23.344  0.00  0.00    -0.282 OA
ATOM     18  C   UNL     1      32.270 -12.971 -22.322  0.00  0.00    +0.250 C 
BRANCH  18  21
ATOM     19  N   UNL     1      34.471 -15.575 -21.159  0.00  0.00    -0.308 N 
ATOM     20  N   UNL     1      34.958 -17.028 -24.517  0.00  0.00    -0.206 NA
ATOM     21  C   UNL     1      33.169 -14.110 -22.151  0.00  0.00    +0.062 C 
ATOM     22  C   UNL     1      33.650 -14.980 -23.147  0.00  0.00    +0.058 C 
ATOM     23  C   UNL     1      34.472 -15.901 -22.495  0.00  0.00    +0.105 C 
ATOM     24  C   UNL     1      33.676 -14.482 -20.942  0.00  0.00    +0.065 C 
ATOM     25  C   UNL     1      33.480 -15.095 -24.534  0.00  0.00    +0.159 C 
ATOM     26  C   UNL     1      35.123 -16.920 -23.178  0.00  0.00    +0.239 C 
ATOM     27  C   UNL     1      34.161 -16.137 -25.150  0.00  0.00    +0.139 C 
ATOM     28  H   UNL     1      34.968 -16.059 -20.461  0.00  0.00    +0.152 HD
BRANCH  25  29
ATOM     29  O   UNL     1      32.696 -14.246 -25.259  0.00  0.00    -0.470 OA
ATOM     30  C   UNL     1      33.038 -14.062 -26.630  0.00  0.00    +0.253 C 
ENDBRANCH  25  29
BRANCH  26  31
ATOM     31  O   UNL     1      35.933 -17.832 -22.548  0.00  0.00    -0.455 OA
ATOM     32  C   UNL     1      35.306 -19.007 -22.053  0.00  0.00    +0.254 C 
ENDBRANCH  26  31
ENDBRANCH  18  21
ENDBRANCH   9  18
TORSDOF 5
ENDMDL
MODEL 4
REMARK VINA RESULT:     -10.0      1.016      1.367
REMARK  Name = 507806
REMARK  5 active torsions:
REMARK  status: ('A' for Active; 'I' for Inactive)
REMARK    1  A    between atoms: C_9  and  C_18
REMARK    2  A    between atoms: C_10  and  C_11
REMARK    3  A    between atoms: C_18  and  C_21
REMARK    4  A    between atoms: C_25  and  O_29
REMARK    5  A    between atoms: C_26  and  O_31
REMARK                            x       y       z     vdW  Elec       q    Type
REMARK                         _______ _______ _______ _____ _____    ______ ____
ROOT
ATOM      1  O   UNL     1      35.284 -19.612 -23.457  0.00  0.00    -0.266 OA
ATOM      2  O   UNL     1      33.539 -13.407 -25.841  0.00  0.00    -0.270 OA
ATOM      3  N   UNL     1      34.351 -17.472 -23.191  0.00  0.00    -0.270 N 
ATOM      4  N   UNL     1      34.214 -14.797 -24.087  0.00  0.00    -0.273 N 
ATOM      5  C   UNL     1      33.809 -16.438 -22.299  0.00  0.00    +0.115 C 
ATOM      6  C   UNL     1      34.221 -17.193 -24.622  0.00  0.00    +0.115 C 
ATOM      7  C   UNL     1      34.381 -15.067 -22.652  0.00  0.00    +0.115 C 
ATOM      8  C   UNL     1      34.789 -15.818 -24.964  0.00  0.00    +0.115 C 
ATOM      9  C   UNL     1      34.882 -18.682 -22.770  0.00  0.00    +0.288 C 
ATOM     10  C   UNL     1      33.630 -13.657 -24.640  0.00  0.00    +0.249 C 
ENDROOT
BRANCH  10  11
ATOM     11  C   UNL     1      33.054 -12.663 -23.726  0.00  0.00    +0.054 C 
ATOM     12  C   UNL     1      32.170 -13.068 -22.730  0.00  0.00    +0.005 C 
ATOM     13  C   UNL     1      33.393 -11.319 -23.860  0.00  0.00    +0.005 C 
ATOM     14  C   UNL     1      31.622 -12.123 -21.861  0.00  0.00    +0.000 C 
ATOM     15  C   UNL     1      32.845 -10.374 -22.992  0.00  0.00    +0.000 C 
ATOM     16  C   UNL     1      31.960 -10.777 -21.992  0.00  0.00    +0.000 C 
ENDBRANCH  10  11
BRANCH   9  18
ATOM     17  O   UNL     1      35.785 -18.152 -20.742  0.00  0.00    -0.282 OA
ATOM     18  C   UNL     1      34.973 -18.882 -21.306  0.00  0.00    +0.250 C 
BRANCH  18  21
ATOM     19  N   UNL     1      32.372 -21.003 -19.995  0.00  0.00    -0.308 N 
ATOM     20  N   UNL     1      34.653 -22.882 -17.784  0.00  0.00    -0.206 NA
ATOM     21  C   UNL     1      34.150 -19.868 -20.608  0.00  0.00    +0.062 C 
ATOM     22  C   UNL     1      34.570 -20.817 -19.658  0.00  0.00    +0.058 C 
ATOM     23  C   UNL     1      33.427 -21.525 -19.284  0.00  0.00    +0.105 C 
ATOM     24  C   UNL     1      32.808 -19.990 -20.807  0.00  0.00    +0.065 C 
ATOM     25  C   UNL     1      35.796 -21.161 -19.070  0.00  0.00    +0.159 C 
ATOM     26  C   UNL     1      33.469 -22.553 -18.350  0.00  0.00    +0.239 C 
ATOM     27  C   UNL     1      35.762 -22.197 -18.146  0.00  0.00    +0.139 C 
ATOM     28  H   UNL     1      31.440 -21.313 -19.930  0.00  0.00    +0.152 HD
BRANCH  25  29
ATOM     29  O   UNL     1      36.967 -20.529 -19.371  0.00  0.00    -0.470 OA
ATOM     30  C   UNL     1      37.635 -20.940 -20.561  0.00  0.00    +0.253 C 
ENDBRANCH  25  29
BRANCH  26  31
ATOM     31  O   UNL     1      32.352 -23.257 -17.975  0.00  0.00    -0.455 OA
ATOM     32  C   UNL     1      31.891 -23.060 -16.645  0.00  0.00    +0.254 C 
ENDBRANCH  26  31
ENDBRANCH  18  21
ENDBRANCH   9  18
TORSDOF 5
ENDMDL
MODEL 5
REMARK VINA RESULT:      -9.9      2.838     10.060
REMARK  Name = 507806
REMARK  5 active torsions:
REMARK  status: ('A' for Active; 'I' for Inactive)
REMARK    1  A    between atoms: C_9  and  C_18
REMARK    2  A    between atoms: C_10  and  C_11
REMARK    3  A    between atoms: C_18  and  C_21
REMARK    4  A    between atoms: C_25  and  O_29
REMARK    5  A    between atoms: C_26  and  O_31
REMARK                            x       y       z     vdW  Elec       q    Type
REMARK                         _______ _______ _______ _____ _____    ______ ____
ROOT
ATOM      1  O   UNL     1      33.104 -13.245 -25.918  0.00  0.00    -0.266 OA
ATOM      2  O   UNL     1      34.942 -19.746 -24.656  0.00  0.00    -0.270 OA
ATOM      3  N   UNL     1      34.067 -14.905 -24.562  0.00  0.00    -0.270 N 
ATOM      4  N   UNL     1      34.244 -17.646 -23.902  0.00  0.00    -0.273 N 
ATOM      5  C   UNL     1      34.622 -15.301 -23.261  0.00  0.00    +0.115 C 
ATOM      6  C   UNL     1      34.203 -15.900 -25.628  0.00  0.00    +0.115 C 
ATOM      7  C   UNL     1      34.071 -16.658 -22.829  0.00  0.00    +0.115 C 
ATOM      8  C   UNL     1      33.657 -17.254 -25.185  0.00  0.00    +0.115 C 
ATOM      9  C   UNL     1      33.518 -13.664 -24.845  0.00  0.00    +0.288 C 
ATOM     10  C   UNL     1      34.846 -18.898 -23.770  0.00  0.00    +0.249 C 
ENDROOT
BRANCH  10  11
ATOM     11  C   UNL     1      35.435 -19.248 -22.471  0.00  0.00    +0.054 C 
ATOM     12  C   UNL     1      36.712 -18.797 -22.146  0.00  0.00    +0.005 C 
ATOM     13  C   UNL     1      34.715 -20.029 -21.571  0.00  0.00    +0.005 C 
ATOM     14  C   UNL     1      37.272 -19.129 -20.912  0.00  0.00    +0.000 C 
ATOM     15  C   UNL     1      35.276 -20.361 -20.337  0.00  0.00    +0.000 C 
ATOM     16  C   UNL     1      36.554 -19.911 -20.008  0.00  0.00    +0.000 C 
ENDBRANCH  10  11
BRANCH   9  18
ATOM     17  O   UNL     1      33.100 -13.235 -22.642  0.00  0.00    -0.282 OA
ATOM     18  C   UNL     1      33.422 -12.718 -23.710  0.00  0.00    +0.250 C 
BRANCH  18  21
ATOM     19  N   UNL     1      34.718  -9.447 -24.485  0.00  0.00    -0.308 N 
ATOM     20  N   UNL     1      31.987  -7.664 -22.757  0.00  0.00    -0.206 NA
ATOM     21  C   UNL     1      33.697 -11.291 -23.867  0.00  0.00    +0.062 C 
ATOM     22  C   UNL     1      32.937 -10.212 -23.379  0.00  0.00    +0.058 C 
ATOM     23  C   UNL     1      33.602  -9.054 -23.783  0.00  0.00    +0.105 C 
ATOM     24  C   UNL     1      34.781 -10.814 -24.540  0.00  0.00    +0.065 C 
ATOM     25  C   UNL     1      31.753 -10.084 -22.638  0.00  0.00    +0.159 C 
ATOM     26  C   UNL     1      33.129  -7.786 -23.473  0.00  0.00    +0.239 C 
ATOM     27  C   UNL     1      31.340  -8.786 -22.365  0.00  0.00    +0.139 C 
ATOM     28  H   UNL     1      35.374  -8.835 -24.890  0.00  0.00    +0.152 HD
BRANCH  25  29
ATOM     29  O   UNL     1      31.032 -11.155 -22.200  0.00  0.00    -0.470 OA
ATOM     30  C   UNL     1      30.813 -11.256 -20.795  0.00  0.00    +0.253 C 
ENDBRANCH  25  29
BRANCH  26  31
ATOM     31  O   UNL     1      33.773  -6.639 -23.866  0.00  0.00    -0.455 OA
ATOM     32  C   UNL     1      33.185  -5.912 -24.937  0.00  0.00    +0.254 C 
ENDBRANCH  26  31
ENDBRANCH  18  21
ENDBRANCH   9  18
TORSDOF 5
ENDMDL
MODEL 6
REMARK VINA RESULT:      -9.7      1.477      2.592
REMARK  Name = 507806
REMARK  5 active torsions:
REMARK  status: ('A' for Active; 'I' for Inactive)
REMARK    1  A    between atoms: C_9  and  C_18
REMARK    2  A    between atoms: C_10  and  C_11
REMARK    3  A    between atoms: C_18  and  C_21
REMARK    4  A    between atoms: C_25  and  O_29
REMARK    5  A    between atoms: C_26  and  O_31
REMARK                            x       y       z     vdW  Elec       q    Type
REMARK                         _______ _______ _______ _____ _____    ______ ____
ROOT
ATOM      1  O   UNL     1      35.377 -20.153 -23.476  0.00  0.00    -0.266 OA
ATOM      2  O   UNL     1      32.833 -14.468 -26.379  0.00  0.00    -0.270 OA
ATOM      3  N   UNL     1      34.597 -17.939 -23.372  0.00  0.00    -0.270 N 
ATOM      4  N   UNL     1      34.120 -15.508 -24.729  0.00  0.00    -0.273 N 
ATOM      5  C   UNL     1      34.419 -16.703 -22.599  0.00  0.00    +0.115 C 
ATOM      6  C   UNL     1      33.943 -17.956 -24.682  0.00  0.00    +0.115 C 
ATOM      7  C   UNL     1      34.810 -15.484 -23.431  0.00  0.00    +0.115 C 
ATOM      8  C   UNL     1      34.334 -16.731 -25.504  0.00  0.00    +0.115 C 
ATOM      9  C   UNL     1      35.254 -19.072 -22.916  0.00  0.00    +0.288 C 
ATOM     10  C   UNL     1      33.365 -14.467 -25.270  0.00  0.00    +0.249 C 
ENDROOT
BRANCH  10  11
ATOM     11  C   UNL     1      33.163 -13.262 -24.455  0.00  0.00    +0.054 C 
ATOM     12  C   UNL     1      32.346 -13.317 -23.330  0.00  0.00    +0.005 C 
ATOM     13  C   UNL     1      33.790 -12.071 -24.812  0.00  0.00    +0.005 C 
ATOM     14  C   UNL     1      32.154 -12.172 -22.555  0.00  0.00    +0.000 C 
ATOM     15  C   UNL     1      33.597 -10.926 -24.038  0.00  0.00    +0.000 C 
ATOM     16  C   UNL     1      32.780 -10.977 -22.909  0.00  0.00    +0.000 C 
ENDBRANCH  10  11
BRANCH   9  18
ATOM     17  O   UNL     1      36.465 -17.905 -21.372  0.00  0.00    -0.282 OA
ATOM     18  C   UNL     1      35.883 -18.968 -21.580  0.00  0.00    +0.250 C 
BRANCH  18  21
ATOM     19  N   UNL     1      36.451 -21.604 -19.190  0.00  0.00    -0.308 N 
ATOM     20  N   UNL     1      32.857 -22.251 -18.652  0.00  0.00    -0.206 NA
ATOM     21  C   UNL     1      35.802 -20.051 -20.601  0.00  0.00    +0.062 C 
ATOM     22  C   UNL     1      34.640 -20.648 -20.078  0.00  0.00    +0.058 C 
ATOM     23  C   UNL     1      35.076 -21.629 -19.185  0.00  0.00    +0.105 C 
ATOM     24  C   UNL     1      36.900 -20.641 -20.053  0.00  0.00    +0.065 C 
ATOM     25  C   UNL     1      33.261 -20.468 -20.258  0.00  0.00    +0.159 C 
ATOM     26  C   UNL     1      34.187 -22.426 -18.476  0.00  0.00    +0.239 C 
ATOM     27  C   UNL     1      32.433 -21.300 -19.517  0.00  0.00    +0.139 C 
ATOM     28  H   UNL     1      37.027 -22.192 -18.650  0.00  0.00    +0.152 HD
BRANCH  25  29
ATOM     29  O   UNL     1      32.739 -19.535 -21.106  0.00  0.00    -0.470 OA
ATOM     30  C   UNL     1      32.297 -18.311 -20.527  0.00  0.00    +0.253 C 
ENDBRANCH  25  29
BRANCH  26  31
ATOM     31  O   UNL     1      34.603 -23.393 -17.595  0.00  0.00    -0.455 OA
ATOM     32  C   UNL     1      34.192 -23.242 -16.242  0.00  0.00    +0.254 C 
ENDBRANCH  26  31
ENDBRANCH  18  21
ENDBRANCH   9  18
TORSDOF 5
ENDMDL
MODEL 7
REMARK VINA RESULT:      -9.4      2.408      9.505
REMARK  Name = 507806
REMARK  5 active torsions:
REMARK  status: ('A' for Active; 'I' for Inactive)
REMARK    1  A    between atoms: C_9  and  C_18
REMARK    2  A    between atoms: C_10  and  C_11
REMARK    3  A    between atoms: C_18  and  C_21
REMARK    4  A    between atoms: C_25  and  O_29
REMARK    5  A    between atoms: C_26  and  O_31
REMARK                            x       y       z     vdW  Elec       q    Type
REMARK                         _______ _______ _______ _____ _____    ______ ____
ROOT
ATOM      1  O   UNL     1      36.666 -18.661 -22.315  0.00  0.00    -0.266 OA
ATOM      2  O   UNL     1      36.645 -22.732 -16.778  0.00  0.00    -0.270 OA
ATOM      3  N   UNL     1      35.568 -19.786 -20.569  0.00  0.00    -0.270 N 
ATOM      4  N   UNL     1      35.599 -21.902 -18.696  0.00  0.00    -0.273 N 
ATOM      5  C   UNL     1      34.309 -20.219 -19.946  0.00  0.00    +0.115 C 
ATOM      6  C   UNL     1      36.774 -20.037 -19.778  0.00  0.00    +0.115 C 
ATOM      7  C   UNL     1      34.396 -21.680 -19.512  0.00  0.00    +0.115 C 
ATOM      8  C   UNL     1      36.849 -21.497 -19.342  0.00  0.00    +0.115 C 
ATOM      9  C   UNL     1      35.663 -19.111 -21.775  0.00  0.00    +0.288 C 
ATOM     10  C   UNL     1      35.632 -22.499 -17.436  0.00  0.00    +0.249 C 
ENDROOT
BRANCH  10  11
ATOM     11  C   UNL     1      34.355 -22.878 -16.817  0.00  0.00    +0.054 C 
ATOM     12  C   UNL     1      34.304 -23.166 -15.456  0.00  0.00    +0.005 C 
ATOM     13  C   UNL     1      33.202 -22.949 -17.594  0.00  0.00    +0.005 C 
ATOM     14  C   UNL     1      33.092 -23.525 -14.867  0.00  0.00    +0.000 C 
ATOM     15  C   UNL     1      31.989 -23.310 -17.006  0.00  0.00    +0.000 C 
ATOM     16  C   UNL     1      31.934 -23.597 -15.642  0.00  0.00    +0.000 C 
ENDBRANCH  10  11
BRANCH   9  18
ATOM     17  O   UNL     1      33.423 -19.474 -22.021  0.00  0.00    -0.282 OA
ATOM     18  C   UNL     1      34.394 -18.897 -22.507  0.00  0.00    +0.250 C 
BRANCH  18  21
ATOM     19  N   UNL     1      34.432 -17.477 -25.818  0.00  0.00    -0.308 N 
ATOM     20  N   UNL     1      33.416 -14.117 -24.676  0.00  0.00    -0.206 NA
ATOM     21  C   UNL     1      34.322 -18.060 -23.703  0.00  0.00    +0.062 C 
ATOM     22  C   UNL     1      33.978 -16.698 -23.777  0.00  0.00    +0.058 C 
ATOM     23  C   UNL     1      34.053 -16.350 -25.127  0.00  0.00    +0.105 C 
ATOM     24  C   UNL     1      34.597 -18.526 -24.953  0.00  0.00    +0.065 C 
ATOM     25  C   UNL     1      33.606 -15.714 -22.849  0.00  0.00    +0.159 C 
ATOM     26  C   UNL     1      33.774 -15.065 -25.573  0.00  0.00    +0.239 C 
ATOM     27  C   UNL     1      33.342 -14.453 -23.367  0.00  0.00    +0.139 C 
ATOM     28  H   UNL     1      34.563 -17.523 -26.793  0.00  0.00    +0.152 HD
BRANCH  25  29
ATOM     29  O   UNL     1      33.503 -15.957 -21.511  0.00  0.00    -0.470 OA
ATOM     30  C   UNL     1      34.592 -15.539 -20.692  0.00  0.00    +0.253 C 
ENDBRANCH  25  29
BRANCH  26  31
ATOM     31  O   UNL     1      33.843 -14.712 -26.898  0.00  0.00    -0.455 OA
ATOM     32  C   UNL     1      33.434 -13.390 -27.227  0.00  0.00    +0.254 C 
ENDBRANCH  26  31
ENDBRANCH  18  21
ENDBRANCH   9  18
TORSDOF 5
ENDMDL
MODEL 8
REMARK VINA RESULT:      -9.4      2.678      5.264
REMARK  Name = 507806
REMARK  5 active torsions:
REMARK  status: ('A' for Active; 'I' for Inactive)
REMARK    1  A    between atoms: C_9  and  C_18
REMARK    2  A    between atoms: C_10  and  C_11
REMARK    3  A    between atoms: C_18  and  C_21
REMARK    4  A    between atoms: C_25  and  O_29
REMARK    5  A    between atoms: C_26  and  O_31
REMARK                            x       y       z     vdW  Elec       q    Type
REMARK                         _______ _______ _______ _____ _____    ______ ____
ROOT
ATOM      1  O   UNL     1      34.496 -13.837 -26.614  0.00  0.00    -0.266 OA
ATOM      2  O   UNL     1      34.855  -7.268 -24.626  0.00  0.00    -0.270 OA
ATOM      3  N   UNL     1      33.768 -12.016 -25.320  0.00  0.00    -0.270 N 
ATOM      4  N   UNL     1      34.373  -9.509 -24.168  0.00  0.00    -0.273 N 
ATOM      5  C   UNL     1      32.937 -11.506 -24.220  0.00  0.00    +0.115 C 
ATOM      6  C   UNL     1      34.437 -10.991 -26.124  0.00  0.00    +0.115 C 
ATOM      7  C   UNL     1      33.734 -10.544 -23.343  0.00  0.00    +0.115 C 
ATOM      8  C   UNL     1      35.225 -10.030 -25.238  0.00  0.00    +0.115 C 
ATOM      9  C   UNL     1      33.883 -13.352 -25.673  0.00  0.00    +0.288 C 
ATOM     10  C   UNL     1      34.276  -8.131 -23.968  0.00  0.00    +0.249 C 
ENDROOT
BRANCH  10  11
ATOM     11  C   UNL     1      33.401  -7.649 -22.892  0.00  0.00    +0.054 C 
ATOM     12  C   UNL     1      32.239  -6.950 -23.206  0.00  0.00    +0.005 C 
ATOM     13  C   UNL     1      33.738  -7.891 -21.563  0.00  0.00    +0.005 C 
ATOM     14  C   UNL     1      31.407  -6.491 -22.184  0.00  0.00    +0.000 C 
ATOM     15  C   UNL     1      32.907  -7.432 -20.541  0.00  0.00    +0.000 C 
ATOM     16  C   UNL     1      31.741  -6.732 -20.851  0.00  0.00    +0.000 C 
ENDBRANCH  10  11
BRANCH   9  18
ATOM     17  O   UNL     1      31.987 -14.052 -24.612  0.00  0.00    -0.282 OA
ATOM     18  C   UNL     1      33.171 -14.320 -24.807  0.00  0.00    +0.250 C 
BRANCH  18  21
ATOM     19  N   UNL     1      34.790 -17.471 -24.151  0.00  0.00    -0.308 N 
ATOM     20  N   UNL     1      35.215 -16.803 -20.546  0.00  0.00    -0.206 NA
ATOM     21  C   UNL     1      33.839 -15.493 -24.248  0.00  0.00    +0.062 C 
ATOM     22  C   UNL     1      34.214 -15.709 -22.909  0.00  0.00    +0.058 C 
ATOM     23  C   UNL     1      34.815 -16.967 -22.872  0.00  0.00    +0.105 C 
ATOM     24  C   UNL     1      34.194 -16.573 -24.997  0.00  0.00    +0.065 C 
ATOM     25  C   UNL     1      34.114 -14.976 -21.717  0.00  0.00    +0.159 C 
ATOM     26  C   UNL     1      35.313 -17.512 -21.695  0.00  0.00    +0.239 C 
ATOM     27  C   UNL     1      34.632 -15.582 -20.580  0.00  0.00    +0.139 C 
ATOM     28  H   UNL     1      35.149 -18.347 -24.420  0.00  0.00    +0.152 HD
BRANCH  25  29
ATOM     29  O   UNL     1      33.545 -13.738 -21.652  0.00  0.00    -0.470 OA
ATOM     30  C   UNL     1      32.337 -13.620 -20.907  0.00  0.00    +0.253 C 
ENDBRANCH  25  29
BRANCH  26  31
ATOM     31  O   UNL     1      35.907 -18.748 -21.646  0.00  0.00    -0.455 OA
ATOM     32  C   UNL     1      35.201 -19.768 -20.951  0.00  0.00    +0.254 C 
ENDBRANCH  26  31
ENDBRANCH  18  21
ENDBRANCH   9  18
TORSDOF 5
ENDMDL
MODEL 9
REMARK VINA RESULT:      -9.3      2.680      5.452
REMARK  Name = 507806
REMARK  5 active torsions:
REMARK  status: ('A' for Active; 'I' for Inactive)
REMARK    1  A    between atoms: C_9  and  C_18
REMARK    2  A    between atoms: C_10  and  C_11
REMARK    3  A    between atoms: C_18  and  C_21
REMARK    4  A    between atoms: C_25  and  O_29
REMARK    5  A    between atoms: C_26  and  O_31
REMARK                            x       y       z     vdW  Elec       q    Type
REMARK                         _______ _______ _______ _____ _____    ______ ____
ROOT
ATOM      1  O   UNL     1      34.599 -13.498 -24.827  0.00  0.00    -0.266 OA
ATOM      2  O   UNL     1      34.300  -6.634 -24.665  0.00  0.00    -0.270 OA
ATOM      3  N   UNL     1      33.613 -11.477 -24.143  0.00  0.00    -0.270 N 
ATOM      4  N   UNL     1      33.920  -8.711 -23.663  0.00  0.00    -0.273 N 
ATOM      5  C   UNL     1      32.634 -10.777 -23.301  0.00  0.00    +0.115 C 
ATOM      6  C   UNL     1      34.298 -10.642 -25.131  0.00  0.00    +0.115 C 
ATOM      7  C   UNL     1      33.264  -9.549 -22.649  0.00  0.00    +0.115 C 
ATOM      8  C   UNL     1      34.918  -9.413 -24.473  0.00  0.00    +0.115 C 
ATOM      9  C   UNL     1      33.855 -12.842 -24.110  0.00  0.00    +0.288 C 
ATOM     10  C   UNL     1      33.711  -7.344 -23.852  0.00  0.00    +0.249 C 
ENDROOT
BRANCH  10  11
ATOM     11  C   UNL     1      32.693  -6.680 -23.029  0.00  0.00    +0.054 C 
ATOM     12  C   UNL     1      32.730  -6.810 -21.643  0.00  0.00    +0.005 C 
ATOM     13  C   UNL     1      31.694  -5.925 -23.637  0.00  0.00    +0.005 C 
ATOM     14  C   UNL     1      31.762  -6.179 -20.860  0.00  0.00    +0.000 C 
ATOM     15  C   UNL     1      30.726  -5.295 -22.854  0.00  0.00    +0.000 C 
ATOM     16  C   UNL     1      30.760  -5.421 -21.466  0.00  0.00    +0.000 C 
ENDBRANCH  10  11
BRANCH   9  18
ATOM     17  O   UNL     1      31.930 -13.310 -22.975  0.00  0.00    -0.282 OA
ATOM     18  C   UNL     1      33.117 -13.612 -23.082  0.00  0.00    +0.250 C 
BRANCH  18  21
ATOM     19  N   UNL     1      34.596 -15.667 -20.519  0.00  0.00    -0.308 N 
ATOM     20  N   UNL     1      35.445 -18.410 -22.838  0.00  0.00    -0.206 NA
ATOM     21  C   UNL     1      33.765 -14.645 -22.277  0.00  0.00    +0.062 C 
ATOM     22  C   UNL     1      34.268 -15.884 -22.716  0.00  0.00    +0.058 C 
ATOM     23  C   UNL     1      34.789 -16.514 -21.585  0.00  0.00    +0.105 C 
ATOM     24  C   UNL     1      33.970 -14.523 -20.936  0.00  0.00    +0.065 C 
ATOM     25  C   UNL     1      34.341 -16.548 -23.949  0.00  0.00    +0.159 C 
ATOM     26  C   UNL     1      35.375 -17.772 -21.647  0.00  0.00    +0.239 C 
ATOM     27  C   UNL     1      34.940 -17.801 -23.936  0.00  0.00    +0.139 C 
ATOM     28  H   UNL     1      34.867 -15.856 -19.592  0.00  0.00    +0.152 HD
BRANCH  25  29
ATOM     29  O   UNL     1      33.859 -16.015 -25.109  0.00  0.00    -0.470 OA
ATOM     30  C   UNL     1      33.231 -16.912 -26.020  0.00  0.00    +0.253 C 
ENDBRANCH  25  29
BRANCH  26  31
ATOM     31  O   UNL     1      35.890 -18.403 -20.542  0.00  0.00    -0.455 OA
ATOM     32  C   UNL     1      35.886 -19.824 -20.559  0.00  0.00    +0.254 C 
ENDBRANCH  26  31
ENDBRANCH  18  21
ENDBRANCH   9  18
TORSDOF 5
ENDMDL
