MODEL 1
REMARK VINA RESULT:      -3.2      0.000      0.000
REMARK  Name = 79084
REMARK  2 active torsions:
REMARK  status: ('A' for Active; 'I' for Inactive)
REMARK    1  A    between atoms: C_1  and  N_2
REMARK    2  A    between atoms: C_1  and  C_4
REMARK                            x       y       z     vdW  Elec       q    Type
REMARK                         _______ _______ _______ _____ _____    ______ ____
ROOT
ATOM      1  C   UNL     1      34.867 -19.382 -20.947  0.00  0.00    +0.200 C 
ENDROOT
BRANCH   1   2
ATOM      2  N   UNL     1      34.918 -17.956 -20.969  0.00  0.00    -0.374 NA
ATOM      3  C   UNL     1      34.961 -16.787 -20.986  0.00  0.00    +0.129 C 
ENDBRANCH   1   2
BRANCH   1   4
ATOM      4  C   UNL     1      33.427 -19.868 -20.852  0.00  0.00    +0.042 C 
ATOM      5  C   UNL     1      33.248 -20.950 -19.798  0.00  0.00    +0.003 C 
ENDBRANCH   1   4
TORSDOF 2
ENDMDL
MODEL 2
REMARK VINA RESULT:      -3.2      1.553      1.868
REMARK  Name = 79084
REMARK  2 active torsions:
REMARK  status: ('A' for Active; 'I' for Inactive)
REMARK    1  A    between atoms: C_1  and  N_2
REMARK    2  A    between atoms: C_1  and  C_4
REMARK                            x       y       z     vdW  Elec       q    Type
REMARK                         _______ _______ _______ _____ _____    ______ ____
ROOT
ATOM      1  C   UNL     1      34.388 -19.114 -21.140  0.00  0.00    +0.200 C 
ENDROOT
BRANCH   1   2
ATOM      2  N   UNL     1      34.630 -19.140 -22.546  0.00  0.00    -0.374 NA
ATOM      3  C   UNL     1      34.829 -19.161 -23.699  0.00  0.00    +0.129 C 
ENDBRANCH   1   2
BRANCH   1   4
ATOM      4  C   UNL     1      33.099 -19.849 -20.801  0.00  0.00    +0.042 C 
ATOM      5  C   UNL     1      33.322 -20.989 -19.818  0.00  0.00    +0.003 C 
ENDBRANCH   1   4
TORSDOF 2
ENDMDL
MODEL 3
REMARK VINA RESULT:      -3.2      4.670      5.157
REMARK  Name = 79084
REMARK  2 active torsions:
REMARK  status: ('A' for Active; 'I' for Inactive)
REMARK    1  A    between atoms: C_1  and  N_2
REMARK    2  A    between atoms: C_1  and  C_4
REMARK                            x       y       z     vdW  Elec       q    Type
REMARK                         _______ _______ _______ _____ _____    ______ ____
ROOT
ATOM      1  C   UNL     1      34.807 -16.816 -25.191  0.00  0.00    +0.200 C 
ENDROOT
BRANCH   1   2
ATOM      2  N   UNL     1      33.852 -15.962 -25.819  0.00  0.00    -0.374 NA
ATOM      3  C   UNL     1      33.069 -15.262 -26.334  0.00  0.00    +0.129 C 
ENDBRANCH   1   2
BRANCH   1   4
ATOM      4  C   UNL     1      34.291 -18.247 -25.125  0.00  0.00    +0.042 C 
ATOM      5  C   UNL     1      34.867 -19.018 -23.946  0.00  0.00    +0.003 C 
ENDBRANCH   1   4
TORSDOF 2
ENDMDL
MODEL 4
REMARK VINA RESULT:      -3.2      0.855      1.111
REMARK  Name = 79084
REMARK  2 active torsions:
REMARK  status: ('A' for Active; 'I' for Inactive)
REMARK    1  A    between atoms: C_1  and  N_2
REMARK    2  A    between atoms: C_1  and  C_4
REMARK                            x       y       z     vdW  Elec       q    Type
REMARK                         _______ _______ _______ _____ _____    ______ ____
ROOT
ATOM      1  C   UNL     1      35.620 -18.611 -21.155  0.00  0.00    +0.200 C 
ENDROOT
BRANCH   1   2
ATOM      2  N   UNL     1      35.147 -17.282 -20.941  0.00  0.00    -0.374 NA
ATOM      3  C   UNL     1      34.760 -16.192 -20.766  0.00  0.00    +0.129 C 
ENDBRANCH   1   2
BRANCH   1   4
ATOM      4  C   UNL     1      34.517 -19.491 -21.728  0.00  0.00    +0.042 C 
ATOM      5  C   UNL     1      33.501 -19.908 -20.676  0.00  0.00    +0.003 C 
ENDBRANCH   1   4
TORSDOF 2
ENDMDL
MODEL 5
REMARK VINA RESULT:      -3.2      1.782      2.560
REMARK  Name = 79084
REMARK  2 active torsions:
REMARK  status: ('A' for Active; 'I' for Inactive)
REMARK    1  A    between atoms: C_1  and  N_2
REMARK    2  A    between atoms: C_1  and  C_4
REMARK                            x       y       z     vdW  Elec       q    Type
REMARK                         _______ _______ _______ _____ _____    ______ ____
ROOT
ATOM      1  C   UNL     1      35.297 -19.245 -20.909  0.00  0.00    +0.200 C 
ENDROOT
BRANCH   1   2
ATOM      2  N   UNL     1      35.844 -20.303 -20.123  0.00  0.00    -0.374 NA
ATOM      3  C   UNL     1      36.293 -21.169 -19.477  0.00  0.00    +0.129 C 
ENDBRANCH   1   2
BRANCH   1   4
ATOM      4  C   UNL     1      33.965 -19.659 -21.518  0.00  0.00    +0.042 C 
ATOM      5  C   UNL     1      32.923 -19.997 -20.462  0.00  0.00    +0.003 C 
ENDBRANCH   1   4
TORSDOF 2
ENDMDL
MODEL 6
REMARK VINA RESULT:      -3.1      2.986      3.780
REMARK  Name = 79084
REMARK  2 active torsions:
REMARK  status: ('A' for Active; 'I' for Inactive)
REMARK    1  A    between atoms: C_1  and  N_2
REMARK    2  A    between atoms: C_1  and  C_4
REMARK                            x       y       z     vdW  Elec       q    Type
REMARK                         _______ _______ _______ _____ _____    ______ ____
ROOT
ATOM      1  C   UNL     1      35.368 -21.519 -19.802  0.00  0.00    +0.200 C 
ENDROOT
BRANCH   1   2
ATOM      2  N   UNL     1      36.134 -21.653 -18.606  0.00  0.00    -0.374 NA
ATOM      3  C   UNL     1      36.762 -21.764 -17.625  0.00  0.00    +0.129 C 
ENDBRANCH   1   2
BRANCH   1   4
ATOM      4  C   UNL     1      33.878 -21.516 -19.490  0.00  0.00    +0.042 C 
ATOM      5  C   UNL     1      33.131 -20.416 -20.230  0.00  0.00    +0.003 C 
ENDBRANCH   1   4
TORSDOF 2
ENDMDL
MODEL 7
REMARK VINA RESULT:      -3.0      1.853      2.365
REMARK  Name = 79084
REMARK  2 active torsions:
REMARK  status: ('A' for Active; 'I' for Inactive)
REMARK    1  A    between atoms: C_1  and  N_2
REMARK    2  A    between atoms: C_1  and  C_4
REMARK                            x       y       z     vdW  Elec       q    Type
REMARK                         _______ _______ _______ _____ _____    ______ ____
ROOT
ATOM      1  C   UNL     1      35.640 -18.410 -21.300  0.00  0.00    +0.200 C 
ENDROOT
BRANCH   1   2
ATOM      2  N   UNL     1      35.110 -17.109 -21.052  0.00  0.00    -0.374 NA
ATOM      3  C   UNL     1      34.676 -16.042 -20.849  0.00  0.00    +0.129 C 
ENDBRANCH   1   2
BRANCH   1   4
ATOM      4  C   UNL     1      34.681 -19.230 -22.153  0.00  0.00    +0.042 C 
ATOM      5  C   UNL     1      34.946 -19.069 -23.642  0.00  0.00    +0.003 C 
ENDBRANCH   1   4
TORSDOF 2
ENDMDL
MODEL 8
REMARK VINA RESULT:      -3.0      1.958      3.589
REMARK  Name = 79084
REMARK  2 active torsions:
REMARK  status: ('A' for Active; 'I' for Inactive)
REMARK    1  A    between atoms: C_1  and  N_2
REMARK    2  A    between atoms: C_1  and  C_4
REMARK                            x       y       z     vdW  Elec       q    Type
REMARK                         _______ _______ _______ _____ _____    ______ ____
ROOT
ATOM      1  C   UNL     1      32.917 -20.010 -20.589  0.00  0.00    +0.200 C 
ENDROOT
BRANCH   1   2
ATOM      2  N   UNL     1      33.208 -21.078 -19.689  0.00  0.00    -0.374 NA
ATOM      3  C   UNL     1      33.446 -21.954 -18.951  0.00  0.00    +0.129 C 
ENDBRANCH   1   2
BRANCH   1   4
ATOM      4  C   UNL     1      34.160 -19.608 -21.370  0.00  0.00    +0.042 C 
ATOM      5  C   UNL     1      34.409 -18.107 -21.333  0.00  0.00    +0.003 C 
ENDBRANCH   1   4
TORSDOF 2
ENDMDL
MODEL 9
REMARK VINA RESULT:      -3.0      8.962     10.053
REMARK  Name = 79084
REMARK  2 active torsions:
REMARK  status: ('A' for Active; 'I' for Inactive)
REMARK    1  A    between atoms: C_1  and  N_2
REMARK    2  A    between atoms: C_1  and  C_4
REMARK                            x       y       z     vdW  Elec       q    Type
REMARK                         _______ _______ _______ _____ _____    ______ ____
ROOT
ATOM      1  C   UNL     1      41.235 -14.429 -17.751  0.00  0.00    +0.200 C 
ENDROOT
BRANCH   1   2
ATOM      2  N   UNL     1      41.092 -15.152 -16.529  0.00  0.00    -0.374 NA
ATOM      3  C   UNL     1      40.974 -15.744 -15.528  0.00  0.00    +0.129 C 
ENDBRANCH   1   2
BRANCH   1   4
ATOM      4  C   UNL     1      42.510 -13.598 -17.741  0.00  0.00    +0.042 C 
ATOM      5  C   UNL     1      42.356 -12.308 -16.948  0.00  0.00    +0.003 C 
ENDBRANCH   1   4
TORSDOF 2
ENDMDL
