MODEL 1
REMARK VINA RESULT:      -9.7      0.000      0.000
REMARK  Name = 11840970
REMARK  8 active torsions:
REMARK  status: ('A' for Active; 'I' for Inactive)
REMARK    1  A    between atoms: C_1  and  C_17
REMARK    2  A    between atoms: C_2  and  C_9
REMARK    3  A    between atoms: N_8  and  C_11
REMARK    4  A    between atoms: C_11  and  C_12
REMARK    5  A    between atoms: C_12  and  N_13
REMARK    6  A    between atoms: C_17  and  S_18
REMARK    7  A    between atoms: S_18  and  C_21
REMARK    8  A    between atoms: C_26  and  O_27
REMARK                            x       y       z     vdW  Elec       q    Type
REMARK                         _______ _______ _______ _____ _____    ______ ____
ROOT
ATOM      1  C   UNL     1      33.739 -23.584 -16.095  0.00  0.00    +0.033 C 
ATOM      2  C   UNL     1      34.420 -23.579 -14.713  0.00  0.00    +0.078 C 
ATOM      3  C   UNL     1      32.302 -23.044 -16.001  0.00  0.00    +0.002 C 
ATOM      4  C   UNL     1      33.574 -24.303 -13.659  0.00  0.00    +0.009 C 
ATOM      5  C   UNL     1      31.479 -23.785 -14.953  0.00  0.00    +0.000 C 
ATOM      6  C   UNL     1      32.155 -23.750 -13.588  0.00  0.00    +0.000 C 
ENDROOT
BRANCH   2   9
ATOM      7  O   UNL     1      36.806 -23.638 -14.627  0.00  0.00    -0.275 OA
ATOM      8  N   UNL     1      35.643 -25.616 -15.024  0.00  0.00    -0.307 N 
ATOM      9  C   UNL     1      35.755 -24.259 -14.772  0.00  0.00    +0.222 C 
ATOM     10  H   UNL     1      34.742 -26.001 -15.120  0.00  0.00    +0.149 HD
BRANCH   8  11
ATOM     11  C   UNL     1      36.784 -26.494 -15.151  0.00  0.00    +0.066 C 
BRANCH  11  12
ATOM     12  C   UNL     1      37.350 -26.862 -13.788  0.00  0.00    -0.065 C 
BRANCH  12  13
ATOM     13  N   UNL     1      38.558 -26.093 -13.517  0.00  0.00    +0.382 N 
ATOM     14  H   UNL     1      39.132 -26.054 -14.359  0.00  0.00    -0.089 HD
ATOM     15  H   UNL     1      39.085 -26.541 -12.767  0.00  0.00    -0.089 HD
ATOM     16  H   UNL     1      38.303 -25.147 -13.235  0.00  0.00    -0.089 HD
ENDBRANCH  12  13
ENDBRANCH  11  12
ENDBRANCH   8  11
ENDBRANCH   2   9
BRANCH   1  17
ATOM     17  C   UNL     1      34.530 -22.761 -17.117  0.00  0.00    +0.156 C 
BRANCH  17  18
ATOM     18  S   UNL     1      33.694 -22.708 -18.661  0.00  0.00    +0.009 S 
ATOM     19  O   UNL     1      32.326 -22.257 -18.446  0.00  0.00    -0.169 OA
ATOM     20  O   UNL     1      33.943 -23.963 -19.354  0.00  0.00    -0.169 OA
BRANCH  18  21
ATOM     21  C   UNL     1      34.516 -21.424 -19.560  0.00  0.00    +0.106 C 
ATOM     22  C   UNL     1      35.897 -21.356 -19.524  0.00  0.00    +0.021 C 
ATOM     23  C   UNL     1      33.761 -20.515 -20.279  0.00  0.00    +0.021 C 
ATOM     24  C   UNL     1      36.546 -20.344 -20.233  0.00  0.00    +0.038 C 
ATOM     25  C   UNL     1      34.410 -19.504 -20.987  0.00  0.00    +0.038 C 
ATOM     26  C   UNL     1      35.802 -19.418 -20.964  0.00  0.00    +0.139 C 
BRANCH  26  27
ATOM     27  O   UNL     1      36.435 -18.432 -21.656  0.00  0.00    -0.471 OA
ATOM     28  C   UNL     1      35.739 -17.870 -22.768  0.00  0.00    +0.252 C 
ENDBRANCH  26  27
ENDBRANCH  18  21
ENDBRANCH  17  18
ENDBRANCH   1  17
TORSDOF 8
ENDMDL
MODEL 2
REMARK VINA RESULT:      -9.3      1.831      2.138
REMARK  Name = 11840970
REMARK  8 active torsions:
REMARK  status: ('A' for Active; 'I' for Inactive)
REMARK    1  A    between atoms: C_1  and  C_17
REMARK    2  A    between atoms: C_2  and  C_9
REMARK    3  A    between atoms: N_8  and  C_11
REMARK    4  A    between atoms: C_11  and  C_12
REMARK    5  A    between atoms: C_12  and  N_13
REMARK    6  A    between atoms: C_17  and  S_18
REMARK    7  A    between atoms: S_18  and  C_21
REMARK    8  A    between atoms: C_26  and  O_27
REMARK                            x       y       z     vdW  Elec       q    Type
REMARK                         _______ _______ _______ _____ _____    ______ ____
ROOT
ATOM      1  C   UNL     1      32.247 -23.635 -16.096  0.00  0.00    +0.033 C 
ATOM      2  C   UNL     1      32.640 -23.839 -14.620  0.00  0.00    +0.078 C 
ATOM      3  C   UNL     1      30.729 -23.428 -16.236  0.00  0.00    +0.002 C 
ATOM      4  C   UNL     1      31.819 -24.953 -13.961  0.00  0.00    +0.009 C 
ATOM      5  C   UNL     1      29.935 -24.552 -15.580  0.00  0.00    +0.000 C 
ATOM      6  C   UNL     1      30.320 -24.725 -14.116  0.00  0.00    +0.000 C 
ENDROOT
BRANCH   2   9
ATOM      7  O   UNL     1      34.558 -25.190 -15.068  0.00  0.00    -0.275 OA
ATOM      8  N   UNL     1      34.784 -23.338 -13.675  0.00  0.00    -0.307 N 
ATOM      9  C   UNL     1      34.089 -24.207 -14.499  0.00  0.00    +0.222 C 
ATOM     10  H   UNL     1      34.296 -22.583 -13.274  0.00  0.00    +0.149 HD
BRANCH   8  11
ATOM     11  C   UNL     1      36.190 -23.486 -13.375  0.00  0.00    +0.066 C 
BRANCH  11  12
ATOM     12  C   UNL     1      37.054 -22.968 -14.515  0.00  0.00    -0.065 C 
BRANCH  12  13
ATOM     13  N   UNL     1      37.497 -24.071 -15.357  0.00  0.00    +0.382 N 
ATOM     14  H   UNL     1      38.083 -24.703 -14.809  0.00  0.00    -0.089 HD
ATOM     15  H   UNL     1      38.035 -23.705 -16.143  0.00  0.00    -0.089 HD
ATOM     16  H   UNL     1      36.685 -24.579 -15.707  0.00  0.00    -0.089 HD
ENDBRANCH  12  13
ENDBRANCH  11  12
ENDBRANCH   8  11
ENDBRANCH   2   9
BRANCH   1  17
ATOM     17  C   UNL     1      32.986 -22.446 -16.718  0.00  0.00    +0.156 C 
BRANCH  17  18
ATOM     18  S   UNL     1      34.138 -22.987 -17.928  0.00  0.00    +0.009 S 
ATOM     19  O   UNL     1      33.605 -24.163 -18.601  0.00  0.00    -0.169 OA
ATOM     20  O   UNL     1      35.454 -23.041 -17.308  0.00  0.00    -0.169 OA
BRANCH  18  21
ATOM     21  C   UNL     1      34.161 -21.684 -19.125  0.00  0.00    +0.106 C 
ATOM     22  C   UNL     1      35.373 -21.268 -19.644  0.00  0.00    +0.021 C 
ATOM     23  C   UNL     1      32.966 -21.107 -19.515  0.00  0.00    +0.021 C 
ATOM     24  C   UNL     1      35.392 -20.240 -20.588  0.00  0.00    +0.038 C 
ATOM     25  C   UNL     1      32.984 -20.079 -20.458  0.00  0.00    +0.038 C 
ATOM     26  C   UNL     1      34.198 -19.645 -20.994  0.00  0.00    +0.139 C 
BRANCH  26  27
ATOM     27  O   UNL     1      34.215 -18.643 -21.915  0.00  0.00    -0.471 OA
ATOM     28  C   UNL     1      34.143 -17.307 -21.422  0.00  0.00    +0.252 C 
ENDBRANCH  26  27
ENDBRANCH  18  21
ENDBRANCH  17  18
ENDBRANCH   1  17
TORSDOF 8
ENDMDL
MODEL 3
REMARK VINA RESULT:      -9.1      5.985     10.725
REMARK  Name = 11840970
REMARK  8 active torsions:
REMARK  status: ('A' for Active; 'I' for Inactive)
REMARK    1  A    between atoms: C_1  and  C_17
REMARK    2  A    between atoms: C_2  and  C_9
REMARK    3  A    between atoms: N_8  and  C_11
REMARK    4  A    between atoms: C_11  and  C_12
REMARK    5  A    between atoms: C_12  and  N_13
REMARK    6  A    between atoms: C_17  and  S_18
REMARK    7  A    between atoms: S_18  and  C_21
REMARK    8  A    between atoms: C_26  and  O_27
REMARK                            x       y       z     vdW  Elec       q    Type
REMARK                         _______ _______ _______ _____ _____    ______ ____
ROOT
ATOM      1  C   UNL     1      33.491 -15.615 -21.683  0.00  0.00    +0.033 C 
ATOM      2  C   UNL     1      32.824 -14.835 -22.833  0.00  0.00    +0.078 C 
ATOM      3  C   UNL     1      32.780 -15.338 -20.348  0.00  0.00    +0.002 C 
ATOM      4  C   UNL     1      32.706 -13.341 -22.514  0.00  0.00    +0.009 C 
ATOM      5  C   UNL     1      32.682 -13.847 -20.049  0.00  0.00    +0.000 C 
ATOM      6  C   UNL     1      31.999 -13.095 -21.186  0.00  0.00    +0.000 C 
ENDROOT
BRANCH   2   9
ATOM      7  O   UNL     1      34.781 -15.359 -24.099  0.00  0.00    -0.275 OA
ATOM      8  N   UNL     1      32.889 -14.588 -25.216  0.00  0.00    -0.307 N 
ATOM      9  C   UNL     1      33.615 -14.969 -24.100  0.00  0.00    +0.222 C 
ATOM     10  H   UNL     1      31.958 -14.293 -25.089  0.00  0.00    +0.149 HD
BRANCH   8  11
ATOM     11  C   UNL     1      33.430 -14.603 -26.556  0.00  0.00    +0.066 C 
BRANCH  11  12
ATOM     12  C   UNL     1      33.269 -13.249 -27.230  0.00  0.00    -0.065 C 
BRANCH  12  13
ATOM     13  N   UNL     1      33.710 -12.184 -26.338  0.00  0.00    +0.382 N 
ATOM     14  H   UNL     1      34.401 -12.552 -25.684  0.00  0.00    -0.089 HD
ATOM     15  H   UNL     1      32.910 -11.822 -25.819  0.00  0.00    -0.089 HD
ATOM     16  H   UNL     1      34.128 -11.432 -26.887  0.00  0.00    -0.089 HD
ENDBRANCH  12  13
ENDBRANCH  11  12
ENDBRANCH   8  11
ENDBRANCH   2   9
BRANCH   1  17
ATOM     17  C   UNL     1      33.502 -17.122 -21.956  0.00  0.00    +0.156 C 
BRANCH  17  18
ATOM     18  S   UNL     1      35.037 -17.833 -21.483  0.00  0.00    +0.009 S 
ATOM     19  O   UNL     1      35.624 -17.034 -20.416  0.00  0.00    -0.169 OA
ATOM     20  O   UNL     1      35.803 -18.101 -22.691  0.00  0.00    -0.169 OA
BRANCH  18  21
ATOM     21  C   UNL     1      34.597 -19.391 -20.769  0.00  0.00    +0.106 C 
ATOM     22  C   UNL     1      33.260 -19.712 -20.625  0.00  0.00    +0.021 C 
ATOM     23  C   UNL     1      35.600 -20.256 -20.368  0.00  0.00    +0.021 C 
ATOM     24  C   UNL     1      32.912 -20.940 -20.061  0.00  0.00    +0.038 C 
ATOM     25  C   UNL     1      35.252 -21.483 -19.804  0.00  0.00    +0.038 C 
ATOM     26  C   UNL     1      33.908 -21.825 -19.651  0.00  0.00    +0.139 C 
BRANCH  26  27
ATOM     27  O   UNL     1      33.569 -23.024 -19.102  0.00  0.00    -0.471 OA
ATOM     28  C   UNL     1      33.304 -23.045 -17.701  0.00  0.00    +0.252 C 
ENDBRANCH  26  27
ENDBRANCH  18  21
ENDBRANCH  17  18
ENDBRANCH   1  17
TORSDOF 8
ENDMDL
MODEL 4
REMARK VINA RESULT:      -9.0      3.650      6.888
REMARK  Name = 11840970
REMARK  8 active torsions:
REMARK  status: ('A' for Active; 'I' for Inactive)
REMARK    1  A    between atoms: C_1  and  C_17
REMARK    2  A    between atoms: C_2  and  C_9
REMARK    3  A    between atoms: N_8  and  C_11
REMARK    4  A    between atoms: C_11  and  C_12
REMARK    5  A    between atoms: C_12  and  N_13
REMARK    6  A    between atoms: C_17  and  S_18
REMARK    7  A    between atoms: S_18  and  C_21
REMARK    8  A    between atoms: C_26  and  O_27
REMARK                            x       y       z     vdW  Elec       q    Type
REMARK                         _______ _______ _______ _____ _____    ______ ____
ROOT
ATOM      1  C   UNL     1      33.695 -23.821 -14.453  0.00  0.00    +0.033 C 
ATOM      2  C   UNL     1      34.531 -23.092 -15.523  0.00  0.00    +0.078 C 
ATOM      3  C   UNL     1      34.494 -23.982 -13.149  0.00  0.00    +0.002 C 
ATOM      4  C   UNL     1      35.894 -23.760 -15.733  0.00  0.00    +0.009 C 
ATOM      5  C   UNL     1      35.842 -24.656 -13.383  0.00  0.00    +0.000 C 
ATOM      6  C   UNL     1      36.664 -23.910 -14.426  0.00  0.00    +0.000 C 
ENDROOT
BRANCH   2   9
ATOM      7  O   UNL     1      32.651 -23.445 -16.952  0.00  0.00    -0.275 OA
ATOM      8  N   UNL     1      34.634 -22.650 -17.876  0.00  0.00    -0.307 N 
ATOM      9  C   UNL     1      33.819 -23.082 -16.844  0.00  0.00    +0.222 C 
ATOM     10  H   UNL     1      35.558 -22.383 -17.663  0.00  0.00    +0.149 HD
BRANCH   8  11
ATOM     11  C   UNL     1      34.195 -22.570 -19.251  0.00  0.00    +0.066 C 
BRANCH  11  12
ATOM     12  C   UNL     1      34.044 -21.124 -19.697  0.00  0.00    -0.065 C 
BRANCH  12  13
ATOM     13  N   UNL     1      32.644 -20.819 -19.960  0.00  0.00    +0.382 N 
ATOM     14  H   UNL     1      32.531 -19.811 -20.075  0.00  0.00    -0.089 HD
ATOM     15  H   UNL     1      32.074 -21.137 -19.176  0.00  0.00    -0.089 HD
ATOM     16  H   UNL     1      32.346 -21.293 -20.813  0.00  0.00    -0.089 HD
ENDBRANCH  12  13
ENDBRANCH  11  12
ENDBRANCH   8  11
ENDBRANCH   2   9
BRANCH   1  17
ATOM     17  C   UNL     1      32.384 -23.084 -14.163  0.00  0.00    +0.156 C 
BRANCH  17  18
ATOM     18  S   UNL     1      31.080 -24.220 -13.862  0.00  0.00    +0.009 S 
ATOM     19  O   UNL     1      30.524 -23.969 -12.540  0.00  0.00    -0.169 OA
ATOM     20  O   UNL     1      31.552 -25.553 -14.207  0.00  0.00    -0.169 OA
BRANCH  18  21
ATOM     21  C   UNL     1      29.830 -23.773 -15.033  0.00  0.00    +0.106 C 
ATOM     22  C   UNL     1      29.394 -24.716 -15.945  0.00  0.00    +0.021 C 
ATOM     23  C   UNL     1      29.317 -22.489 -15.012  0.00  0.00    +0.021 C 
ATOM     24  C   UNL     1      28.408 -24.364 -16.868  0.00  0.00    +0.038 C 
ATOM     25  C   UNL     1      28.333 -22.136 -15.935  0.00  0.00    +0.038 C 
ATOM     26  C   UNL     1      27.878 -23.074 -16.864  0.00  0.00    +0.139 C 
BRANCH  26  27
ATOM     27  O   UNL     1      26.917 -22.730 -17.764  0.00  0.00    -0.471 OA
ATOM     28  C   UNL     1      26.304 -21.452 -17.602  0.00  0.00    +0.252 C 
ENDBRANCH  26  27
ENDBRANCH  18  21
ENDBRANCH  17  18
ENDBRANCH   1  17
TORSDOF 8
ENDMDL
MODEL 5
REMARK VINA RESULT:      -8.8      6.675     11.331
REMARK  Name = 11840970
REMARK  8 active torsions:
REMARK  status: ('A' for Active; 'I' for Inactive)
REMARK    1  A    between atoms: C_1  and  C_17
REMARK    2  A    between atoms: C_2  and  C_9
REMARK    3  A    between atoms: N_8  and  C_11
REMARK    4  A    between atoms: C_11  and  C_12
REMARK    5  A    between atoms: C_12  and  N_13
REMARK    6  A    between atoms: C_17  and  S_18
REMARK    7  A    between atoms: S_18  and  C_21
REMARK    8  A    between atoms: C_26  and  O_27
REMARK                            x       y       z     vdW  Elec       q    Type
REMARK                         _______ _______ _______ _____ _____    ______ ____
ROOT
ATOM      1  C   UNL     1      32.880 -13.996 -21.599  0.00  0.00    +0.033 C 
ATOM      2  C   UNL     1      32.247 -13.302 -22.821  0.00  0.00    +0.078 C 
ATOM      3  C   UNL     1      32.081 -13.691 -20.320  0.00  0.00    +0.002 C 
ATOM      4  C   UNL     1      32.045 -11.802 -22.582  0.00  0.00    +0.009 C 
ATOM      5  C   UNL     1      31.900 -12.193 -20.101  0.00  0.00    +0.000 C 
ATOM      6  C   UNL     1      31.253 -11.528 -21.309  0.00  0.00    +0.000 C 
ENDROOT
BRANCH   2   9
ATOM      7  O   UNL     1      34.176 -12.851 -24.154  0.00  0.00    -0.275 OA
ATOM      8  N   UNL     1      32.566 -14.325 -24.964  0.00  0.00    -0.307 N 
ATOM      9  C   UNL     1      33.115 -13.459 -24.034  0.00  0.00    +0.222 C 
ATOM     10  H   UNL     1      31.706 -14.755 -24.752  0.00  0.00    +0.149 HD
BRANCH   8  11
ATOM     11  C   UNL     1      33.194 -14.630 -26.229  0.00  0.00    +0.066 C 
BRANCH  11  12
ATOM     12  C   UNL     1      32.955 -13.522 -27.243  0.00  0.00    -0.065 C 
BRANCH  12  13
ATOM     13  N   UNL     1      34.125 -12.658 -27.335  0.00  0.00    +0.382 N 
ATOM     14  H   UNL     1      33.981 -11.967 -28.072  0.00  0.00    -0.089 HD
ATOM     15  H   UNL     1      34.947 -13.221 -27.553  0.00  0.00    -0.089 HD
ATOM     16  H   UNL     1      34.266 -12.180 -26.445  0.00  0.00    -0.089 HD
ENDBRANCH  12  13
ENDBRANCH  11  12
ENDBRANCH   8  11
ENDBRANCH   2   9
BRANCH   1  17
ATOM     17  C   UNL     1      32.973 -15.512 -21.796  0.00  0.00    +0.156 C 
BRANCH  17  18
ATOM     18  S   UNL     1      34.613 -16.080 -21.526  0.00  0.00    +0.009 S 
ATOM     19  O   UNL     1      35.154 -15.428 -20.342  0.00  0.00    -0.169 OA
ATOM     20  O   UNL     1      35.332 -16.001 -22.789  0.00  0.00    -0.169 OA
BRANCH  18  21
ATOM     21  C   UNL     1      34.422 -17.792 -21.122  0.00  0.00    +0.106 C 
ATOM     22  C   UNL     1      35.547 -18.592 -21.032  0.00  0.00    +0.021 C 
ATOM     23  C   UNL     1      33.152 -18.296 -20.905  0.00  0.00    +0.021 C 
ATOM     24  C   UNL     1      35.397 -19.942 -20.714  0.00  0.00    +0.038 C 
ATOM     25  C   UNL     1      33.003 -19.646 -20.587  0.00  0.00    +0.038 C 
ATOM     26  C   UNL     1      34.125 -20.469 -20.492  0.00  0.00    +0.139 C 
BRANCH  26  27
ATOM     27  O   UNL     1      33.979 -21.786 -20.180  0.00  0.00    -0.471 OA
ATOM     28  C   UNL     1      33.463 -22.093 -18.886  0.00  0.00    +0.252 C 
ENDBRANCH  26  27
ENDBRANCH  18  21
ENDBRANCH  17  18
ENDBRANCH   1  17
TORSDOF 8
ENDMDL
MODEL 6
REMARK VINA RESULT:      -8.8      1.394      1.851
REMARK  Name = 11840970
REMARK  8 active torsions:
REMARK  status: ('A' for Active; 'I' for Inactive)
REMARK    1  A    between atoms: C_1  and  C_17
REMARK    2  A    between atoms: C_2  and  C_9
REMARK    3  A    between atoms: N_8  and  C_11
REMARK    4  A    between atoms: C_11  and  C_12
REMARK    5  A    between atoms: C_12  and  N_13
REMARK    6  A    between atoms: C_17  and  S_18
REMARK    7  A    between atoms: S_18  and  C_21
REMARK    8  A    between atoms: C_26  and  O_27
REMARK                            x       y       z     vdW  Elec       q    Type
REMARK                         _______ _______ _______ _____ _____    ______ ____
ROOT
ATOM      1  C   UNL     1      34.743 -23.529 -16.001  0.00  0.00    +0.033 C 
ATOM      2  C   UNL     1      35.785 -23.292 -14.891  0.00  0.00    +0.078 C 
ATOM      3  C   UNL     1      33.315 -23.481 -15.433  0.00  0.00    +0.002 C 
ATOM      4  C   UNL     1      35.579 -24.239 -13.705  0.00  0.00    +0.009 C 
ATOM      5  C   UNL     1      33.133 -24.438 -14.260  0.00  0.00    +0.000 C 
ATOM      6  C   UNL     1      34.155 -24.174 -13.162  0.00  0.00    +0.000 C 
ENDROOT
BRANCH   2   9
ATOM      7  O   UNL     1      37.761 -22.648 -16.068  0.00  0.00    -0.275 OA
ATOM      8  N   UNL     1      37.677 -24.751 -15.073  0.00  0.00    -0.307 N 
ATOM      9  C   UNL     1      37.177 -23.504 -15.408  0.00  0.00    +0.222 C 
ATOM     10  H   UNL     1      37.111 -25.353 -14.537  0.00  0.00    +0.149 HD
BRANCH   8  11
ATOM     11  C   UNL     1      38.988 -25.211 -15.471  0.00  0.00    +0.066 C 
BRANCH  11  12
ATOM     12  C   UNL     1      39.942 -25.247 -14.287  0.00  0.00    -0.065 C 
BRANCH  12  13
ATOM     13  N   UNL     1      39.480 -26.206 -13.293  0.00  0.00    +0.382 N 
ATOM     14  H   UNL     1      38.827 -26.859 -13.728  0.00  0.00    -0.089 HD
ATOM     15  H   UNL     1      39.010 -25.711 -12.534  0.00  0.00    -0.089 HD
ATOM     16  H   UNL     1      40.278 -26.721 -12.921  0.00  0.00    -0.089 HD
ENDBRANCH  12  13
ENDBRANCH  11  12
ENDBRANCH   8  11
ENDBRANCH   2   9
BRANCH   1  17
ATOM     17  C   UNL     1      34.880 -22.505 -17.132  0.00  0.00    +0.156 C 
BRANCH  17  18
ATOM     18  S   UNL     1      33.624 -22.732 -18.339  0.00  0.00    +0.009 S 
ATOM     19  O   UNL     1      32.326 -22.486 -17.727  0.00  0.00    -0.169 OA
ATOM     20  O   UNL     1      33.875 -23.993 -19.022  0.00  0.00    -0.169 OA
BRANCH  18  21
ATOM     21  C   UNL     1      33.894 -21.427 -19.503  0.00  0.00    +0.106 C 
ATOM     22  C   UNL     1      32.804 -20.767 -20.038  0.00  0.00    +0.021 C 
ATOM     23  C   UNL     1      35.190 -21.095 -19.853  0.00  0.00    +0.021 C 
ATOM     24  C   UNL     1      33.016 -19.737 -20.956  0.00  0.00    +0.038 C 
ATOM     25  C   UNL     1      35.402 -20.066 -20.771  0.00  0.00    +0.038 C 
ATOM     26  C   UNL     1      34.315 -19.387 -21.323  0.00  0.00    +0.139 C 
BRANCH  26  27
ATOM     27  O   UNL     1      34.523 -18.383 -22.218  0.00  0.00    -0.471 OA
ATOM     28  C   UNL     1      35.273 -17.257 -21.767  0.00  0.00    +0.252 C 
ENDBRANCH  26  27
ENDBRANCH  18  21
ENDBRANCH  17  18
ENDBRANCH   1  17
TORSDOF 8
ENDMDL
MODEL 7
REMARK VINA RESULT:      -8.7      6.852     11.567
REMARK  Name = 11840970
REMARK  8 active torsions:
REMARK  status: ('A' for Active; 'I' for Inactive)
REMARK    1  A    between atoms: C_1  and  C_17
REMARK    2  A    between atoms: C_2  and  C_9
REMARK    3  A    between atoms: N_8  and  C_11
REMARK    4  A    between atoms: C_11  and  C_12
REMARK    5  A    between atoms: C_12  and  N_13
REMARK    6  A    between atoms: C_17  and  S_18
REMARK    7  A    between atoms: S_18  and  C_21
REMARK    8  A    between atoms: C_26  and  O_27
REMARK                            x       y       z     vdW  Elec       q    Type
REMARK                         _______ _______ _______ _____ _____    ______ ____
ROOT
ATOM      1  C   UNL     1      33.069 -14.137 -21.890  0.00  0.00    +0.033 C 
ATOM      2  C   UNL     1      32.295 -13.311 -22.936  0.00  0.00    +0.078 C 
ATOM      3  C   UNL     1      32.392 -14.048 -20.512  0.00  0.00    +0.002 C 
ATOM      4  C   UNL     1      32.071 -11.869 -22.470  0.00  0.00    +0.009 C 
ATOM      5  C   UNL     1      32.187 -12.604 -20.067  0.00  0.00    +0.000 C 
ATOM      6  C   UNL     1      31.402 -11.809 -21.102  0.00  0.00    +0.000 C 
ENDROOT
BRANCH   2   9
ATOM      7  O   UNL     1      33.137 -14.242 -24.969  0.00  0.00    -0.275 OA
ATOM      8  N   UNL     1      33.604 -12.016 -24.470  0.00  0.00    -0.307 N 
ATOM      9  C   UNL     1      33.043 -13.260 -24.236  0.00  0.00    +0.222 C 
ATOM     10  H   UNL     1      33.457 -11.304 -23.806  0.00  0.00    +0.149 HD
BRANCH   8  11
ATOM     11  C   UNL     1      34.394 -11.711 -25.641  0.00  0.00    +0.066 C 
BRANCH  11  12
ATOM     12  C   UNL     1      35.238 -10.465 -25.427  0.00  0.00    -0.065 C 
BRANCH  12  13
ATOM     13  N   UNL     1      34.937  -9.864 -24.134  0.00  0.00    +0.382 N 
ATOM     14  H   UNL     1      35.575 -10.235 -23.430  0.00  0.00    -0.089 HD
ATOM     15  H   UNL     1      33.976 -10.086 -23.872  0.00  0.00    -0.089 HD
ATOM     16  H   UNL     1      35.049  -8.852 -24.194  0.00  0.00    -0.089 HD
ENDBRANCH  12  13
ENDBRANCH  11  12
ENDBRANCH   8  11
ENDBRANCH   2   9
BRANCH   1  17
ATOM     17  C   UNL     1      33.189 -15.606 -22.308  0.00  0.00    +0.156 C 
BRANCH  17  18
ATOM     18  S   UNL     1      34.677 -16.311 -21.697  0.00  0.00    +0.009 S 
ATOM     19  O   UNL     1      35.082 -15.600 -20.493  0.00  0.00    -0.169 OA
ATOM     20  O   UNL     1      35.607 -16.440 -22.809  0.00  0.00    -0.169 OA
BRANCH  18  21
ATOM     21  C   UNL     1      34.214 -17.943 -21.192  0.00  0.00    +0.106 C 
ATOM     22  C   UNL     1      32.879 -18.224 -20.964  0.00  0.00    +0.021 C 
ATOM     23  C   UNL     1      35.197 -18.904 -21.034  0.00  0.00    +0.021 C 
ATOM     24  C   UNL     1      32.513 -19.510 -20.566  0.00  0.00    +0.038 C 
ATOM     25  C   UNL     1      34.831 -20.189 -20.635  0.00  0.00    +0.038 C 
ATOM     26  C   UNL     1      33.489 -20.493 -20.401  0.00  0.00    +0.139 C 
BRANCH  26  27
ATOM     27  O   UNL     1      33.133 -21.748 -20.014  0.00  0.00    -0.471 OA
ATOM     28  C   UNL     1      33.985 -22.405 -19.078  0.00  0.00    +0.252 C 
ENDBRANCH  26  27
ENDBRANCH  18  21
ENDBRANCH  17  18
ENDBRANCH   1  17
TORSDOF 8
ENDMDL
MODEL 8
REMARK VINA RESULT:      -8.7      5.673     10.644
REMARK  Name = 11840970
REMARK  8 active torsions:
REMARK  status: ('A' for Active; 'I' for Inactive)
REMARK    1  A    between atoms: C_1  and  C_17
REMARK    2  A    between atoms: C_2  and  C_9
REMARK    3  A    between atoms: N_8  and  C_11
REMARK    4  A    between atoms: C_11  and  C_12
REMARK    5  A    between atoms: C_12  and  N_13
REMARK    6  A    between atoms: C_17  and  S_18
REMARK    7  A    between atoms: S_18  and  C_21
REMARK    8  A    between atoms: C_26  and  O_27
REMARK                            x       y       z     vdW  Elec       q    Type
REMARK                         _______ _______ _______ _____ _____    ______ ____
ROOT
ATOM      1  C   UNL     1      33.986 -16.275 -23.263  0.00  0.00    +0.033 C 
ATOM      2  C   UNL     1      33.558 -14.804 -23.088  0.00  0.00    +0.078 C 
ATOM      3  C   UNL     1      34.669 -16.489 -24.624  0.00  0.00    +0.002 C 
ATOM      4  C   UNL     1      32.713 -14.313 -24.268  0.00  0.00    +0.009 C 
ATOM      5  C   UNL     1      33.806 -16.000 -25.782  0.00  0.00    +0.000 C 
ATOM      6  C   UNL     1      33.412 -14.539 -25.604  0.00  0.00    +0.000 C 
ENDROOT
BRANCH   2   9
ATOM      7  O   UNL     1      32.158 -15.570 -21.311  0.00  0.00    -0.275 OA
ATOM      8  N   UNL     1      32.732 -13.315 -21.403  0.00  0.00    -0.307 N 
ATOM      9  C   UNL     1      32.745 -14.629 -21.840  0.00  0.00    +0.222 C 
ATOM     10  H   UNL     1      33.244 -12.647 -21.913  0.00  0.00    +0.149 HD
BRANCH   8  11
ATOM     11  C   UNL     1      32.002 -12.877 -20.235  0.00  0.00    +0.066 C 
BRANCH  11  12
ATOM     12  C   UNL     1      31.405 -11.494 -20.445  0.00  0.00    -0.065 C 
BRANCH  12  13
ATOM     13  N   UNL     1      30.588 -11.473 -21.652  0.00  0.00    +0.382 N 
ATOM     14  H   UNL     1      30.088 -10.586 -21.709  0.00  0.00    -0.089 HD
ATOM     15  H   UNL     1      29.916 -12.241 -21.621  0.00  0.00    -0.089 HD
ATOM     16  H   UNL     1      31.188 -11.579 -22.470  0.00  0.00    -0.089 HD
ENDBRANCH  12  13
ENDBRANCH  11  12
ENDBRANCH   8  11
ENDBRANCH   2   9
BRANCH   1  17
ATOM     17  C   UNL     1      34.925 -16.727 -22.141  0.00  0.00    +0.156 C 
BRANCH  17  18
ATOM     18  S   UNL     1      35.605 -18.308 -22.492  0.00  0.00    +0.009 S 
ATOM     19  O   UNL     1      37.009 -18.319 -22.105  0.00  0.00    -0.169 OA
ATOM     20  O   UNL     1      35.225 -18.673 -23.849  0.00  0.00    -0.169 OA
BRANCH  18  21
ATOM     21  C   UNL     1      34.764 -19.402 -21.385  0.00  0.00    +0.106 C 
ATOM     22  C   UNL     1      33.391 -19.303 -21.255  0.00  0.00    +0.021 C 
ATOM     23  C   UNL     1      35.497 -20.333 -20.671  0.00  0.00    +0.021 C 
ATOM     24  C   UNL     1      32.727 -20.166 -20.382  0.00  0.00    +0.038 C 
ATOM     25  C   UNL     1      34.833 -21.195 -19.798  0.00  0.00    +0.038 C 
ATOM     26  C   UNL     1      33.448 -21.111 -19.653  0.00  0.00    +0.139 C 
BRANCH  26  27
ATOM     27  O   UNL     1      32.801 -21.953 -18.802  0.00  0.00    -0.471 OA
ATOM     28  C   UNL     1      33.605 -22.851 -18.040  0.00  0.00    +0.252 C 
ENDBRANCH  26  27
ENDBRANCH  18  21
ENDBRANCH  17  18
ENDBRANCH   1  17
TORSDOF 8
ENDMDL
MODEL 9
REMARK VINA RESULT:      -8.7      6.490     11.571
REMARK  Name = 11840970
REMARK  8 active torsions:
REMARK  status: ('A' for Active; 'I' for Inactive)
REMARK    1  A    between atoms: C_1  and  C_17
REMARK    2  A    between atoms: C_2  and  C_9
REMARK    3  A    between atoms: N_8  and  C_11
REMARK    4  A    between atoms: C_11  and  C_12
REMARK    5  A    between atoms: C_12  and  N_13
REMARK    6  A    between atoms: C_17  and  S_18
REMARK    7  A    between atoms: S_18  and  C_21
REMARK    8  A    between atoms: C_26  and  O_27
REMARK                            x       y       z     vdW  Elec       q    Type
REMARK                         _______ _______ _______ _____ _____    ______ ____
ROOT
ATOM      1  C   UNL     1      33.715 -15.139 -23.976  0.00  0.00    +0.033 C 
ATOM      2  C   UNL     1      33.707 -13.714 -24.563  0.00  0.00    +0.078 C 
ATOM      3  C   UNL     1      33.928 -16.186 -25.082  0.00  0.00    +0.002 C 
ATOM      4  C   UNL     1      32.709 -13.580 -25.718  0.00  0.00    +0.009 C 
ATOM      5  C   UNL     1      32.919 -16.037 -26.215  0.00  0.00    +0.000 C 
ATOM      6  C   UNL     1      32.941 -14.630 -26.798  0.00  0.00    +0.000 C 
ENDROOT
BRANCH   2   9
ATOM      7  O   UNL     1      33.991 -11.686 -23.334  0.00  0.00    -0.275 OA
ATOM      8  N   UNL     1      32.207 -13.085 -22.803  0.00  0.00    -0.307 N 
ATOM      9  C   UNL     1      33.332 -12.707 -23.516  0.00  0.00    +0.222 C 
ATOM     10  H   UNL     1      31.763 -13.930 -23.043  0.00  0.00    +0.149 HD
BRANCH   8  11
ATOM     11  C   UNL     1      31.653 -12.299 -21.724  0.00  0.00    +0.066 C 
BRANCH  11  12
ATOM     12  C   UNL     1      31.034 -11.011 -22.243  0.00  0.00    -0.065 C 
BRANCH  12  13
ATOM     13  N   UNL     1      31.838  -9.864 -21.840  0.00  0.00    +0.382 N 
ATOM     14  H   UNL     1      32.092  -9.321 -22.666  0.00  0.00    -0.089 HD
ATOM     15  H   UNL     1      32.685 -10.190 -21.374  0.00  0.00    -0.089 HD
ATOM     16  H   UNL     1      31.301  -9.279 -21.201  0.00  0.00    -0.089 HD
ENDBRANCH  12  13
ENDBRANCH  11  12
ENDBRANCH   8  11
ENDBRANCH   2   9
BRANCH   1  17
ATOM     17  C   UNL     1      34.794 -15.302 -22.901  0.00  0.00    +0.156 C 
BRANCH  17  18
ATOM     18  S   UNL     1      34.080 -15.739 -21.357  0.00  0.00    +0.009 S 
ATOM     19  O   UNL     1      32.630 -15.686 -21.471  0.00  0.00    -0.169 OA
ATOM     20  O   UNL     1      34.752 -14.976 -20.316  0.00  0.00    -0.169 OA
BRANCH  18  21
ATOM     21  C   UNL     1      34.513 -17.441 -21.141  0.00  0.00    +0.106 C 
ATOM     22  C   UNL     1      35.846 -17.805 -21.164  0.00  0.00    +0.021 C 
ATOM     23  C   UNL     1      33.507 -18.373 -20.954  0.00  0.00    +0.021 C 
ATOM     24  C   UNL     1      36.188 -19.147 -20.993  0.00  0.00    +0.038 C 
ATOM     25  C   UNL     1      33.848 -19.714 -20.784  0.00  0.00    +0.038 C 
ATOM     26  C   UNL     1      35.189 -20.102 -20.804  0.00  0.00    +0.139 C 
BRANCH  26  27
ATOM     27  O   UNL     1      35.521 -21.411 -20.636  0.00  0.00    -0.471 OA
ATOM     28  C   UNL     1      35.505 -21.919 -19.303  0.00  0.00    +0.252 C 
ENDBRANCH  26  27
ENDBRANCH  18  21
ENDBRANCH  17  18
ENDBRANCH   1  17
TORSDOF 8
ENDMDL
