MODEL 1
REMARK VINA RESULT:      -3.4      0.000      0.000
REMARK  Name = 3396560
REMARK  1 active torsions:
REMARK  status: ('A' for Active; 'I' for Inactive)
REMARK    1  A    between atoms: P_1  and  O_5
REMARK                            x       y       z     vdW  Elec       q    Type
REMARK                         _______ _______ _______ _____ _____    ______ ____
ROOT
ATOM      1  P   UNL     1      40.216 -25.647 -14.587  0.00  0.00    +0.200 P 
ATOM      2  O   UNL     1      41.067 -26.650 -13.850  0.00  0.00    -0.294 OA
ATOM      3  C   UNL     1      38.475 -26.038 -14.350  0.00  0.00    +0.093 C 
ATOM      4  H   UNL     1      40.601 -24.349 -14.855  0.00  0.00    +0.128 HD
ENDROOT
BRANCH   1   5
ATOM      5  O   UNL     1      40.332 -25.866 -16.195  0.00  0.00    -0.345 OA
ATOM      6  H   UNL     1      39.602 -25.405 -16.637  0.00  0.00    +0.217 HD
ENDBRANCH   1   5
TORSDOF 1
ENDMDL
MODEL 2
REMARK VINA RESULT:      -3.2     12.145     12.486
REMARK  Name = 3396560
REMARK  1 active torsions:
REMARK  status: ('A' for Active; 'I' for Inactive)
REMARK    1  A    between atoms: P_1  and  O_5
REMARK                            x       y       z     vdW  Elec       q    Type
REMARK                         _______ _______ _______ _____ _____    ______ ____
ROOT
ATOM      1  P   UNL     1      28.361 -23.418 -16.501  0.00  0.00    +0.200 P 
ATOM      2  O   UNL     1      27.717 -24.231 -17.596  0.00  0.00    -0.294 OA
ATOM      3  C   UNL     1      27.160 -22.266 -15.815  0.00  0.00    +0.093 C 
ATOM      4  H   UNL     1      29.419 -23.853 -15.729  0.00  0.00    +0.128 HD
ENDROOT
BRANCH   1   5
ATOM      5  O   UNL     1      29.432 -22.362 -17.124  0.00  0.00    -0.345 OA
ATOM      6  H   UNL     1      30.210 -22.843 -17.446  0.00  0.00    +0.217 HD
ENDBRANCH   1   5
TORSDOF 1
ENDMDL
MODEL 3
REMARK VINA RESULT:      -3.2     12.320     12.534
REMARK  Name = 3396560
REMARK  1 active torsions:
REMARK  status: ('A' for Active; 'I' for Inactive)
REMARK    1  A    between atoms: P_1  and  O_5
REMARK                            x       y       z     vdW  Elec       q    Type
REMARK                         _______ _______ _______ _____ _____    ______ ____
ROOT
ATOM      1  P   UNL     1      28.041 -22.883 -16.474  0.00  0.00    +0.200 P 
ATOM      2  O   UNL     1      27.586 -21.580 -17.080  0.00  0.00    -0.294 OA
ATOM      3  C   UNL     1      29.840 -22.929 -16.416  0.00  0.00    +0.093 C 
ATOM      4  H   UNL     1      27.303 -23.622 -15.572  0.00  0.00    +0.128 HD
ENDROOT
BRANCH   1   5
ATOM      5  O   UNL     1      27.767 -24.119 -17.498  0.00  0.00    -0.345 OA
ATOM      6  H   UNL     1      27.331 -23.786 -18.297  0.00  0.00    +0.217 HD
ENDBRANCH   1   5
TORSDOF 1
ENDMDL
MODEL 4
REMARK VINA RESULT:      -3.1      6.150      6.150
REMARK  Name = 3396560
REMARK  1 active torsions:
REMARK  status: ('A' for Active; 'I' for Inactive)
REMARK    1  A    between atoms: P_1  and  O_5
REMARK                            x       y       z     vdW  Elec       q    Type
REMARK                         _______ _______ _______ _____ _____    ______ ____
ROOT
ATOM      1  P   UNL     1      35.677 -24.429 -11.756  0.00  0.00    +0.200 P 
ATOM      2  O   UNL     1      35.369 -25.037 -10.411  0.00  0.00    -0.294 OA
ATOM      3  C   UNL     1      36.910 -23.130 -11.566  0.00  0.00    +0.093 C 
ATOM      4  H   UNL     1      35.559 -25.097 -12.958  0.00  0.00    +0.128 HD
ENDROOT
BRANCH   1   5
ATOM      5  O   UNL     1      34.420 -23.540 -12.286  0.00  0.00    -0.345 OA
ATOM      6  H   UNL     1      33.601 -23.869 -11.885  0.00  0.00    +0.217 HD
ENDBRANCH   1   5
TORSDOF 1
ENDMDL
MODEL 5
REMARK VINA RESULT:      -3.1      3.002      3.384
REMARK  Name = 3396560
REMARK  1 active torsions:
REMARK  status: ('A' for Active; 'I' for Inactive)
REMARK    1  A    between atoms: P_1  and  O_5
REMARK                            x       y       z     vdW  Elec       q    Type
REMARK                         _______ _______ _______ _____ _____    ______ ____
ROOT
ATOM      1  P   UNL     1      37.101 -26.630 -14.872  0.00  0.00    +0.200 P 
ATOM      2  O   UNL     1      36.667 -27.255 -16.173  0.00  0.00    -0.294 OA
ATOM      3  C   UNL     1      37.032 -24.835 -15.008  0.00  0.00    +0.093 C 
ATOM      4  H   UNL     1      36.972 -27.233 -13.637  0.00  0.00    +0.128 HD
ENDROOT
BRANCH   1   5
ATOM      5  O   UNL     1      38.701 -26.827 -14.645  0.00  0.00    -0.345 OA
ATOM      6  H   UNL     1      38.871 -27.043 -13.715  0.00  0.00    +0.217 HD
ENDBRANCH   1   5
TORSDOF 1
ENDMDL
MODEL 6
REMARK VINA RESULT:      -3.1      5.491      5.708
REMARK  Name = 3396560
REMARK  1 active torsions:
REMARK  status: ('A' for Active; 'I' for Inactive)
REMARK    1  A    between atoms: P_1  and  O_5
REMARK                            x       y       z     vdW  Elec       q    Type
REMARK                         _______ _______ _______ _____ _____    ______ ____
ROOT
ATOM      1  P   UNL     1      36.024 -24.186 -11.447  0.00  0.00    +0.200 P 
ATOM      2  O   UNL     1      35.322 -24.964 -10.364  0.00  0.00    -0.294 OA
ATOM      3  C   UNL     1      37.105 -25.285 -12.379  0.00  0.00    +0.093 C 
ATOM      4  H   UNL     1      35.516 -23.050 -12.044  0.00  0.00    +0.128 HD
ENDROOT
BRANCH   1   5
ATOM      5  O   UNL     1      37.135 -23.184 -10.807  0.00  0.00    -0.345 OA
ATOM      6  H   UNL     1      36.688 -22.453 -10.354  0.00  0.00    +0.217 HD
ENDBRANCH   1   5
TORSDOF 1
ENDMDL
MODEL 7
REMARK VINA RESULT:      -3.0     10.980     11.157
REMARK  Name = 3396560
REMARK  1 active torsions:
REMARK  status: ('A' for Active; 'I' for Inactive)
REMARK    1  A    between atoms: P_1  and  O_5
REMARK                            x       y       z     vdW  Elec       q    Type
REMARK                         _______ _______ _______ _____ _____    ______ ____
ROOT
ATOM      1  P   UNL     1      41.331 -15.452 -15.928  0.00  0.00    +0.200 P 
ATOM      2  O   UNL     1      42.357 -16.514 -15.624  0.00  0.00    -0.294 OA
ATOM      3  C   UNL     1      42.152 -13.870 -16.179  0.00  0.00    +0.093 C 
ATOM      4  H   UNL     1      40.110 -15.698 -16.522  0.00  0.00    +0.128 HD
ENDROOT
BRANCH   1   5
ATOM      5  O   UNL     1      40.457 -15.102 -14.600  0.00  0.00    -0.345 OA
ATOM      6  H   UNL     1      40.199 -15.925 -14.157  0.00  0.00    +0.217 HD
ENDBRANCH   1   5
TORSDOF 1
ENDMDL
MODEL 8
REMARK VINA RESULT:      -3.0      3.140      3.162
REMARK  Name = 3396560
REMARK  1 active torsions:
REMARK  status: ('A' for Active; 'I' for Inactive)
REMARK    1  A    between atoms: P_1  and  O_5
REMARK                            x       y       z     vdW  Elec       q    Type
REMARK                         _______ _______ _______ _____ _____    ______ ____
ROOT
ATOM      1  P   UNL     1      37.451 -26.246 -14.532  0.00  0.00    +0.200 P 
ATOM      2  O   UNL     1      38.658 -27.112 -14.787  0.00  0.00    -0.294 OA
ATOM      3  C   UNL     1      37.169 -26.107 -12.759  0.00  0.00    +0.093 C 
ATOM      4  H   UNL     1      37.017 -25.248 -15.380  0.00  0.00    +0.128 HD
ENDROOT
BRANCH   1   5
ATOM      5  O   UNL     1      36.087 -27.019 -14.969  0.00  0.00    -0.345 OA
ATOM      6  H   UNL     1      36.273 -27.963 -15.083  0.00  0.00    +0.217 HD
ENDBRANCH   1   5
TORSDOF 1
ENDMDL
MODEL 9
REMARK VINA RESULT:      -2.9     14.661     15.075
REMARK  Name = 3396560
REMARK  1 active torsions:
REMARK  status: ('A' for Active; 'I' for Inactive)
REMARK    1  A    between atoms: P_1  and  O_5
REMARK                            x       y       z     vdW  Elec       q    Type
REMARK                         _______ _______ _______ _____ _____    ______ ____
ROOT
ATOM      1  P   UNL     1      34.455 -16.539 -24.448  0.00  0.00    +0.200 P 
ATOM      2  O   UNL     1      34.836 -16.780 -25.886  0.00  0.00    -0.294 OA
ATOM      3  C   UNL     1      33.560 -14.982 -24.311  0.00  0.00    +0.093 C 
ATOM      4  H   UNL     1      34.245 -17.538 -23.520  0.00  0.00    +0.128 HD
ENDROOT
BRANCH   1   5
ATOM      5  O   UNL     1      35.769 -16.180 -23.558  0.00  0.00    -0.345 OA
ATOM      6  H   UNL     1      36.303 -15.518 -24.023  0.00  0.00    +0.217 HD
ENDBRANCH   1   5
TORSDOF 1
ENDMDL
