MODEL 1
REMARK VINA RESULT:      -6.2      0.000      0.000
REMARK  Name = 6971307
REMARK  7 active torsions:
REMARK  status: ('A' for Active; 'I' for Inactive)
REMARK    1  A    between atoms: CA_1  and  N_2
REMARK    2  A    between atoms: CA_1  and  C_7
REMARK    3  A    between atoms: CA_1  and  C_10
REMARK    4  A    between atoms: C_7  and  O_8
REMARK    5  A    between atoms: C_10  and  C_11
REMARK    6  A    between atoms: C_11  and  P_12
REMARK    7  A    between atoms: P_12  and  O_15
REMARK                            x       y       z     vdW  Elec       q    Type
REMARK                         _______ _______ _______ _____ _____    ______ ____
ROOT
ATOM      1  CA  UNL     1      38.764 -25.769 -14.438  0.00  0.00    +0.036 C 
ENDROOT
BRANCH   1   2
ATOM      2  N   UNL     1      37.787 -25.086 -15.284  0.00  0.00    +0.389 N 
ATOM      3  H1  UNL     1      38.216 -24.262 -15.703  0.00  0.00    -0.088 HD
ATOM      4  H2  UNL     1      36.986 -24.802 -14.718  0.00  0.00    -0.088 HD
ATOM      5  H3  UNL     1      37.474 -25.719 -16.020  0.00  0.00    -0.088 HD
ENDBRANCH   1   2
BRANCH   1   7
ATOM      6  OXT UNL     1      40.932 -24.651 -14.319  0.00  0.00    -0.253 OA
ATOM      7  C   UNL     1      40.152 -25.380 -14.919  0.00  0.00    +0.293 C 
BRANCH   7   8
ATOM      8  O   UNL     1      40.453 -25.951 -16.115  0.00  0.00    -0.482 OA
ATOM      9  H   UNL     1      40.538 -26.882 -16.182  0.00  0.00    +0.295 HD
ENDBRANCH   7   8
ENDBRANCH   1   7
BRANCH   1  10
ATOM     10  C   UNL     1      38.597 -25.398 -12.958  0.00  0.00    -0.001 C 
BRANCH  10  11
ATOM     11  C   UNL     1      37.343 -25.978 -12.313  0.00  0.00    +0.085 C 
BRANCH  11  12
ATOM     12  P   UNL     1      36.056 -24.764 -11.958  0.00  0.00    +0.220 P 
ATOM     13  O   UNL     1      35.316 -25.047 -10.697  0.00  0.00    -0.290 OA
ATOM     14  C   UNL     1      36.847 -23.182 -12.029  0.00  0.00    +0.097 C 
BRANCH  12  15
ATOM     15  O   UNL     1      35.160 -24.812 -13.296  0.00  0.00    -0.343 OA
ATOM     16  H   UNL     1      35.735 -24.937 -14.066  0.00  0.00    +0.218 HD
ENDBRANCH  12  15
ENDBRANCH  11  12
ENDBRANCH  10  11
ENDBRANCH   1  10
TORSDOF 7
ENDMDL
MODEL 2
REMARK VINA RESULT:      -5.8      2.793      4.097
REMARK  Name = 6971307
REMARK  7 active torsions:
REMARK  status: ('A' for Active; 'I' for Inactive)
REMARK    1  A    between atoms: CA_1  and  N_2
REMARK    2  A    between atoms: CA_1  and  C_7
REMARK    3  A    between atoms: CA_1  and  C_10
REMARK    4  A    between atoms: C_7  and  O_8
REMARK    5  A    between atoms: C_10  and  C_11
REMARK    6  A    between atoms: C_11  and  P_12
REMARK    7  A    between atoms: P_12  and  O_15
REMARK                            x       y       z     vdW  Elec       q    Type
REMARK                         _______ _______ _______ _____ _____    ______ ____
ROOT
ATOM      1  CA  UNL     1      36.473 -23.363 -12.758  0.00  0.00    +0.036 C 
ENDROOT
BRANCH   1   2
ATOM      2  N   UNL     1      35.392 -24.245 -12.324  0.00  0.00    +0.389 N 
ATOM      3  H1  UNL     1      35.278 -25.002 -12.999  0.00  0.00    -0.088 HD
ATOM      4  H2  UNL     1      34.523 -23.714 -12.262  0.00  0.00    -0.088 HD
ATOM      5  H3  UNL     1      35.618 -24.635 -11.410  0.00  0.00    -0.088 HD
ENDBRANCH   1   2
BRANCH   1   7
ATOM      6  OXT UNL     1      38.561 -22.808 -11.621  0.00  0.00    -0.253 OA
ATOM      7  C   UNL     1      37.672 -23.614 -11.859  0.00  0.00    +0.293 C 
BRANCH   7   8
ATOM      8  O   UNL     1      37.648 -24.862 -11.319  0.00  0.00    -0.482 OA
ATOM      9  H   UNL     1      37.249 -25.004 -10.483  0.00  0.00    +0.295 HD
ENDBRANCH   7   8
ENDBRANCH   1   7
BRANCH   1  10
ATOM     10  C   UNL     1      36.857 -23.607 -14.224  0.00  0.00    -0.001 C 
BRANCH  10  11
ATOM     11  C   UNL     1      36.151 -24.801 -14.857  0.00  0.00    +0.085 C 
BRANCH  11  12
ATOM     12  P   UNL     1      37.102 -26.334 -14.824  0.00  0.00    +0.220 P 
ATOM     13  O   UNL     1      36.795 -27.239 -15.967  0.00  0.00    -0.290 OA
ATOM     14  C   UNL     1      38.799 -25.850 -14.681  0.00  0.00    +0.097 C 
BRANCH  12  15
ATOM     15  O   UNL     1      36.743 -26.930 -13.371  0.00  0.00    -0.343 OA
ATOM     16  H   UNL     1      37.537 -26.923 -12.814  0.00  0.00    +0.218 HD
ENDBRANCH  12  15
ENDBRANCH  11  12
ENDBRANCH  10  11
ENDBRANCH   1  10
TORSDOF 7
ENDMDL
MODEL 3
REMARK VINA RESULT:      -5.7      2.190      4.794
REMARK  Name = 6971307
REMARK  7 active torsions:
REMARK  status: ('A' for Active; 'I' for Inactive)
REMARK    1  A    between atoms: CA_1  and  N_2
REMARK    2  A    between atoms: CA_1  and  C_7
REMARK    3  A    between atoms: CA_1  and  C_10
REMARK    4  A    between atoms: C_7  and  O_8
REMARK    5  A    between atoms: C_10  and  C_11
REMARK    6  A    between atoms: C_11  and  P_12
REMARK    7  A    between atoms: P_12  and  O_15
REMARK                            x       y       z     vdW  Elec       q    Type
REMARK                         _______ _______ _______ _____ _____    ______ ____
ROOT
ATOM      1  CA  UNL     1      36.709 -23.364 -11.904  0.00  0.00    +0.036 C 
ENDROOT
BRANCH   1   2
ATOM      2  N   UNL     1      36.032 -23.149 -13.182  0.00  0.00    +0.389 N 
ATOM      3  H1  UNL     1      35.864 -22.152 -13.314  0.00  0.00    -0.088 HD
ATOM      4  H2  UNL     1      35.142 -23.647 -13.183  0.00  0.00    -0.088 HD
ATOM      5  H3  UNL     1      36.618 -23.499 -13.939  0.00  0.00    -0.088 HD
ENDBRANCH   1   2
BRANCH   1   7
ATOM      6  OXT UNL     1      34.884 -24.921 -11.451  0.00  0.00    -0.253 OA
ATOM      7  C   UNL     1      35.816 -24.241 -11.043  0.00  0.00    +0.293 C 
BRANCH   7   8
ATOM      8  O   UNL     1      36.177 -24.201  -9.732  0.00  0.00    -0.482 OA
ATOM      9  H   UNL     1      36.828 -24.791  -9.407  0.00  0.00    +0.295 HD
ENDBRANCH   7   8
ENDBRANCH   1   7
BRANCH   1  10
ATOM     10  C   UNL     1      38.080 -24.029 -12.088  0.00  0.00    -0.001 C 
BRANCH  10  11
ATOM     11  C   UNL     1      38.005 -25.478 -12.558  0.00  0.00    +0.085 C 
BRANCH  11  12
ATOM     12  P   UNL     1      38.361 -25.714 -14.311  0.00  0.00    +0.220 P 
ATOM     13  O   UNL     1      39.507 -26.632 -14.559  0.00  0.00    -0.290 OA
ATOM     14  C   UNL     1      36.830 -26.201 -15.056  0.00  0.00    +0.097 C 
BRANCH  12  15
ATOM     15  O   UNL     1      38.579 -24.202 -14.824  0.00  0.00    -0.343 OA
ATOM     16  H   UNL     1      37.831 -23.654 -14.541  0.00  0.00    +0.218 HD
ENDBRANCH  12  15
ENDBRANCH  11  12
ENDBRANCH  10  11
ENDBRANCH   1  10
TORSDOF 7
ENDMDL
MODEL 4
REMARK VINA RESULT:      -5.6      2.231      4.656
REMARK  Name = 6971307
REMARK  7 active torsions:
REMARK  status: ('A' for Active; 'I' for Inactive)
REMARK    1  A    between atoms: CA_1  and  N_2
REMARK    2  A    between atoms: CA_1  and  C_7
REMARK    3  A    between atoms: CA_1  and  C_10
REMARK    4  A    between atoms: C_7  and  O_8
REMARK    5  A    between atoms: C_10  and  C_11
REMARK    6  A    between atoms: C_11  and  P_12
REMARK    7  A    between atoms: P_12  and  O_15
REMARK                            x       y       z     vdW  Elec       q    Type
REMARK                         _______ _______ _______ _____ _____    ______ ____
ROOT
ATOM      1  CA  UNL     1      36.586 -23.387 -11.988  0.00  0.00    +0.036 C 
ENDROOT
BRANCH   1   2
ATOM      2  N   UNL     1      35.779 -23.250 -13.199  0.00  0.00    +0.389 N 
ATOM      3  H1  UNL     1      35.709 -24.154 -13.665  0.00  0.00    -0.088 HD
ATOM      4  H2  UNL     1      36.218 -22.577 -13.827  0.00  0.00    -0.088 HD
ATOM      5  H3  UNL     1      34.846 -22.923 -12.950  0.00  0.00    -0.088 HD
ENDBRANCH   1   2
BRANCH   1   7
ATOM      6  OXT UNL     1      36.027 -24.318  -9.801  0.00  0.00    -0.253 OA
ATOM      7  C   UNL     1      35.813 -24.249 -11.004  0.00  0.00    +0.293 C 
BRANCH   7   8
ATOM      8  O   UNL     1      34.820 -24.949 -11.615  0.00  0.00    -0.482 OA
ATOM      9  H   UNL     1      34.592 -25.804 -11.306  0.00  0.00    +0.295 HD
ENDBRANCH   7   8
ENDBRANCH   1   7
BRANCH   1  10
ATOM     10  C   UNL     1      37.953 -24.020 -12.281  0.00  0.00    -0.001 C 
BRANCH  10  11
ATOM     11  C   UNL     1      37.875 -25.472 -12.742  0.00  0.00    +0.085 C 
BRANCH  11  12
ATOM     12  P   UNL     1      38.106 -25.706 -14.516  0.00  0.00    +0.220 P 
ATOM     13  O   UNL     1      37.060 -25.036 -15.336  0.00  0.00    -0.290 OA
ATOM     14  C   UNL     1      39.769 -25.203 -14.859  0.00  0.00    +0.097 C 
BRANCH  12  15
ATOM     15  O   UNL     1      38.150 -27.311 -14.648  0.00  0.00    -0.343 OA
ATOM     16  H   UNL     1      37.550 -27.593 -15.356  0.00  0.00    +0.218 HD
ENDBRANCH  12  15
ENDBRANCH  11  12
ENDBRANCH  10  11
ENDBRANCH   1  10
TORSDOF 7
ENDMDL
MODEL 5
REMARK VINA RESULT:      -5.6      2.556      2.875
REMARK  Name = 6971307
REMARK  7 active torsions:
REMARK  status: ('A' for Active; 'I' for Inactive)
REMARK    1  A    between atoms: CA_1  and  N_2
REMARK    2  A    between atoms: CA_1  and  C_7
REMARK    3  A    between atoms: CA_1  and  C_10
REMARK    4  A    between atoms: C_7  and  O_8
REMARK    5  A    between atoms: C_10  and  C_11
REMARK    6  A    between atoms: C_11  and  P_12
REMARK    7  A    between atoms: P_12  and  O_15
REMARK                            x       y       z     vdW  Elec       q    Type
REMARK                         _______ _______ _______ _____ _____    ______ ____
ROOT
ATOM      1  CA  UNL     1      38.119 -25.730 -14.821  0.00  0.00    +0.036 C 
ENDROOT
BRANCH   1   2
ATOM      2  N   UNL     1      39.052 -26.220 -13.808  0.00  0.00    +0.389 N 
ATOM      3  H1  UNL     1      39.987 -25.862 -14.006  0.00  0.00    -0.088 HD
ATOM      4  H2  UNL     1      39.069 -27.240 -13.825  0.00  0.00    -0.088 HD
ATOM      5  H3  UNL     1      38.753 -25.901 -12.888  0.00  0.00    -0.088 HD
ENDBRANCH   1   2
BRANCH   1   7
ATOM      6  OXT UNL     1      36.726 -27.194 -16.191  0.00  0.00    -0.253 OA
ATOM      7  C   UNL     1      37.099 -26.825 -15.086  0.00  0.00    +0.293 C 
BRANCH   7   8
ATOM      8  O   UNL     1      36.636 -27.377 -13.933  0.00  0.00    -0.482 OA
ATOM      9  H   UNL     1      36.903 -27.027 -13.105  0.00  0.00    +0.295 HD
ENDBRANCH   7   8
ENDBRANCH   1   7
BRANCH   1  10
ATOM     10  C   UNL     1      37.408 -24.447 -14.370  0.00  0.00    -0.001 C 
BRANCH  10  11
ATOM     11  C   UNL     1      37.764 -24.008 -12.953  0.00  0.00    +0.085 C 
BRANCH  11  12
ATOM     12  P   UNL     1      36.538 -24.448 -11.705  0.00  0.00    +0.220 P 
ATOM     13  O   UNL     1      36.707 -23.700 -10.428  0.00  0.00    -0.290 OA
ATOM     14  C   UNL     1      34.960 -24.258 -12.485  0.00  0.00    +0.097 C 
BRANCH  12  15
ATOM     15  O   UNL     1      36.724 -26.044 -11.586  0.00  0.00    -0.343 OA
ATOM     16  H   UNL     1      37.087 -26.263 -10.714  0.00  0.00    +0.218 HD
ENDBRANCH  12  15
ENDBRANCH  11  12
ENDBRANCH  10  11
ENDBRANCH   1  10
TORSDOF 7
ENDMDL
MODEL 6
REMARK VINA RESULT:      -5.5      2.242      2.435
REMARK  Name = 6971307
REMARK  7 active torsions:
REMARK  status: ('A' for Active; 'I' for Inactive)
REMARK    1  A    between atoms: CA_1  and  N_2
REMARK    2  A    between atoms: CA_1  and  C_7
REMARK    3  A    between atoms: CA_1  and  C_10
REMARK    4  A    between atoms: C_7  and  O_8
REMARK    5  A    between atoms: C_10  and  C_11
REMARK    6  A    between atoms: C_11  and  P_12
REMARK    7  A    between atoms: P_12  and  O_15
REMARK                            x       y       z     vdW  Elec       q    Type
REMARK                         _______ _______ _______ _____ _____    ______ ____
ROOT
ATOM      1  CA  UNL     1      38.912 -25.665 -14.152  0.00  0.00    +0.036 C 
ENDROOT
BRANCH   1   2
ATOM      2  N   UNL     1      38.014 -26.810 -14.293  0.00  0.00    +0.389 N 
ATOM      3  H1  UNL     1      37.672 -26.858 -15.252  0.00  0.00    -0.088 HD
ATOM      4  H2  UNL     1      37.224 -26.703 -13.656  0.00  0.00    -0.088 HD
ATOM      5  H3  UNL     1      38.519 -27.667 -14.067  0.00  0.00    -0.088 HD
ENDBRANCH   1   2
BRANCH   1   7
ATOM      6  OXT UNL     1      41.190 -26.542 -14.081  0.00  0.00    -0.253 OA
ATOM      7  C   UNL     1      40.265 -26.059 -14.721  0.00  0.00    +0.293 C 
BRANCH   7   8
ATOM      8  O   UNL     1      40.342 -25.824 -16.058  0.00  0.00    -0.482 OA
ATOM      9  H   UNL     1      40.918 -25.161 -16.385  0.00  0.00    +0.295 HD
ENDBRANCH   7   8
ENDBRANCH   1   7
BRANCH   1  10
ATOM     10  C   UNL     1      38.377 -24.425 -14.881  0.00  0.00    -0.001 C 
BRANCH  10  11
ATOM     11  C   UNL     1      37.364 -23.623 -14.071  0.00  0.00    +0.085 C 
BRANCH  11  12
ATOM     12  P   UNL     1      35.640 -23.993 -14.453  0.00  0.00    +0.220 P 
ATOM     13  O   UNL     1      35.484 -25.065 -15.476  0.00  0.00    -0.290 OA
ATOM     14  C   UNL     1      34.856 -24.316 -12.898  0.00  0.00    +0.097 C 
BRANCH  12  15
ATOM     15  O   UNL     1      35.066 -22.552 -14.886  0.00  0.00    -0.343 OA
ATOM     16  H   UNL     1      34.426 -22.246 -14.224  0.00  0.00    +0.218 HD
ENDBRANCH  12  15
ENDBRANCH  11  12
ENDBRANCH  10  11
ENDBRANCH   1  10
TORSDOF 7
ENDMDL
MODEL 7
REMARK VINA RESULT:      -5.4      6.992      8.877
REMARK  Name = 6971307
REMARK  7 active torsions:
REMARK  status: ('A' for Active; 'I' for Inactive)
REMARK    1  A    between atoms: CA_1  and  N_2
REMARK    2  A    between atoms: CA_1  and  C_7
REMARK    3  A    between atoms: CA_1  and  C_10
REMARK    4  A    between atoms: C_7  and  O_8
REMARK    5  A    between atoms: C_10  and  C_11
REMARK    6  A    between atoms: C_11  and  P_12
REMARK    7  A    between atoms: P_12  and  O_15
REMARK                            x       y       z     vdW  Elec       q    Type
REMARK                         _______ _______ _______ _____ _____    ______ ____
ROOT
ATOM      1  CA  UNL     1      29.466 -23.970 -16.097  0.00  0.00    +0.036 C 
ENDROOT
BRANCH   1   2
ATOM      2  N   UNL     1      28.837 -24.796 -15.068  0.00  0.00    +0.389 N 
ATOM      3  H1  UNL     1      29.558 -25.260 -14.516  0.00  0.00    -0.088 HD
ATOM      4  H2  UNL     1      28.244 -25.498 -15.511  0.00  0.00    -0.088 HD
ATOM      5  H3  UNL     1      28.268 -24.207 -14.461  0.00  0.00    -0.088 HD
ENDBRANCH   1   2
BRANCH   1   7
ATOM      6  OXT UNL     1      27.574 -23.906 -17.640  0.00  0.00    -0.253 OA
ATOM      7  C   UNL     1      28.363 -23.317 -16.913  0.00  0.00    +0.293 C 
BRANCH   7   8
ATOM      8  O   UNL     1      28.334 -21.968 -16.739  0.00  0.00    -0.482 OA
ATOM      9  H   UNL     1      27.675 -21.455 -17.165  0.00  0.00    +0.295 HD
ENDBRANCH   7   8
ENDBRANCH   1   7
BRANCH   1  10
ATOM     10  C   UNL     1      30.377 -22.895 -15.490  0.00  0.00    -0.001 C 
BRANCH  10  11
ATOM     11  C   UNL     1      31.861 -23.246 -15.535  0.00  0.00    +0.085 C 
BRANCH  11  12
ATOM     12  P   UNL     1      32.459 -24.154 -14.095  0.00  0.00    +0.220 P 
ATOM     13  O   UNL     1      31.727 -25.429 -13.862  0.00  0.00    -0.290 OA
ATOM     14  C   UNL     1      34.208 -24.318 -14.316  0.00  0.00    +0.097 C 
BRANCH  12  15
ATOM     15  O   UNL     1      32.316 -23.064 -12.918  0.00  0.00    -0.343 OA
ATOM     16  H   UNL     1      31.910 -23.478 -12.141  0.00  0.00    +0.218 HD
ENDBRANCH  12  15
ENDBRANCH  11  12
ENDBRANCH  10  11
ENDBRANCH   1  10
TORSDOF 7
ENDMDL
MODEL 8
REMARK VINA RESULT:      -5.4      2.205      2.628
REMARK  Name = 6971307
REMARK  7 active torsions:
REMARK  status: ('A' for Active; 'I' for Inactive)
REMARK    1  A    between atoms: CA_1  and  N_2
REMARK    2  A    between atoms: CA_1  and  C_7
REMARK    3  A    between atoms: CA_1  and  C_10
REMARK    4  A    between atoms: C_7  and  O_8
REMARK    5  A    between atoms: C_10  and  C_11
REMARK    6  A    between atoms: C_11  and  P_12
REMARK    7  A    between atoms: P_12  and  O_15
REMARK                            x       y       z     vdW  Elec       q    Type
REMARK                         _______ _______ _______ _____ _____    ______ ____
ROOT
ATOM      1  CA  UNL     1      36.807 -25.033 -14.852  0.00  0.00    +0.036 C 
ENDROOT
BRANCH   1   2
ATOM      2  N   UNL     1      35.436 -25.537 -14.806  0.00  0.00    +0.389 N 
ATOM      3  H1  UNL     1      35.445 -26.555 -14.871  0.00  0.00    -0.088 HD
ATOM      4  H2  UNL     1      34.905 -25.152 -15.588  0.00  0.00    -0.088 HD
ATOM      5  H3  UNL     1      35.000 -25.256 -13.928  0.00  0.00    -0.088 HD
ENDBRANCH   1   2
BRANCH   1   7
ATOM      6  OXT UNL     1      35.872 -22.782 -14.999  0.00  0.00    -0.253 OA
ATOM      7  C   UNL     1      36.756 -23.578 -15.287  0.00  0.00    +0.293 C 
BRANCH   7   8
ATOM      8  O   UNL     1      37.833 -23.236 -16.043  0.00  0.00    -0.482 OA
ATOM      9  H   UNL     1      37.722 -23.029 -16.950  0.00  0.00    +0.295 HD
ENDBRANCH   7   8
ENDBRANCH   1   7
BRANCH   1  10
ATOM     10  C   UNL     1      37.505 -25.150 -13.491  0.00  0.00    -0.001 C 
BRANCH  10  11
ATOM     11  C   UNL     1      36.572 -25.542 -12.349  0.00  0.00    +0.085 C 
BRANCH  11  12
ATOM     12  P   UNL     1      35.920 -24.148 -11.407  0.00  0.00    +0.220 P 
ATOM     13  O   UNL     1      35.540 -24.510 -10.013  0.00  0.00    -0.290 OA
ATOM     14  C   UNL     1      37.125 -22.858 -11.549  0.00  0.00    +0.097 C 
BRANCH  12  15
ATOM     15  O   UNL     1      34.702 -23.646 -12.334  0.00  0.00    -0.343 OA
ATOM     16  H   UNL     1      34.700 -24.147 -13.164  0.00  0.00    +0.218 HD
ENDBRANCH  12  15
ENDBRANCH  11  12
ENDBRANCH  10  11
ENDBRANCH   1  10
TORSDOF 7
ENDMDL
MODEL 9
REMARK VINA RESULT:      -5.2      7.648      9.492
REMARK  Name = 6971307
REMARK  7 active torsions:
REMARK  status: ('A' for Active; 'I' for Inactive)
REMARK    1  A    between atoms: CA_1  and  N_2
REMARK    2  A    between atoms: CA_1  and  C_7
REMARK    3  A    between atoms: CA_1  and  C_10
REMARK    4  A    between atoms: C_7  and  O_8
REMARK    5  A    between atoms: C_10  and  C_11
REMARK    6  A    between atoms: C_11  and  P_12
REMARK    7  A    between atoms: P_12  and  O_15
REMARK                            x       y       z     vdW  Elec       q    Type
REMARK                         _______ _______ _______ _____ _____    ______ ____
ROOT
ATOM      1  CA  UNL     1      28.987 -22.700 -16.204  0.00  0.00    +0.036 C 
ENDROOT
BRANCH   1   2
ATOM      2  N   UNL     1      30.204 -22.621 -17.011  0.00  0.00    +0.389 N 
ATOM      3  H1  UNL     1      30.575 -21.672 -16.975  0.00  0.00    -0.088 HD
ATOM      4  H2  UNL     1      29.988 -22.865 -17.978  0.00  0.00    -0.088 HD
ATOM      5  H3  UNL     1      30.897 -23.272 -16.644  0.00  0.00    -0.088 HD
ENDBRANCH   1   2
BRANCH   1   7
ATOM      6  OXT UNL     1      27.392 -23.730 -17.740  0.00  0.00    -0.253 OA
ATOM      7  C   UNL     1      27.799 -22.737 -17.151  0.00  0.00    +0.293 C 
BRANCH   7   8
ATOM      8  O   UNL     1      27.209 -21.518 -17.273  0.00  0.00    -0.482 OA
ATOM      9  H   UNL     1      26.421 -21.330 -16.803  0.00  0.00    +0.295 HD
ENDBRANCH   7   8
ENDBRANCH   1   7
BRANCH   1  10
ATOM     10  C   UNL     1      28.979 -23.941 -15.302  0.00  0.00    -0.001 C 
BRANCH  10  11
ATOM     11  C   UNL     1      30.260 -24.766 -15.373  0.00  0.00    +0.085 C 
BRANCH  11  12
ATOM     12  P   UNL     1      31.324 -24.619 -13.923  0.00  0.00    +0.220 P 
ATOM     13  O   UNL     1      32.482 -25.555 -13.949  0.00  0.00    -0.290 OA
ATOM     14  C   UNL     1      31.744 -22.904 -13.799  0.00  0.00    +0.097 C 
BRANCH  12  15
ATOM     15  O   UNL     1      30.288 -24.854 -12.711  0.00  0.00    -0.343 OA
ATOM     16  H   UNL     1      29.847 -24.018 -12.496  0.00  0.00    +0.218 HD
ENDBRANCH  12  15
ENDBRANCH  11  12
ENDBRANCH  10  11
ENDBRANCH   1  10
TORSDOF 7
ENDMDL
