MODEL 1
REMARK VINA RESULT:      -9.1      0.000      0.000
REMARK  Name = 115069
REMARK  3 active torsions:
REMARK  status: ('A' for Active; 'I' for Inactive)
REMARK    1  A    between atoms: C_3  and  C_11
REMARK    2  A    between atoms: C_4  and  S_21
REMARK    3  A    between atoms: C_12  and  S_17
REMARK                            x       y       z     vdW  Elec       q    Type
REMARK                         _______ _______ _______ _____ _____    ______ ____
ROOT
ATOM      1 CL   UNL     1      33.094 -13.960 -25.993  0.00  0.00    -0.082 Cl
ATOM      2 CL   UNL     1      35.135 -16.511 -20.669  0.00  0.00    -0.081 Cl
ATOM      3  C   UNL     1      33.806 -13.874 -23.352  0.00  0.00    +0.012 C 
ATOM      4  C   UNL     1      34.428 -16.592 -23.308  0.00  0.00    +0.117 C 
ATOM      5  C   UNL     1      33.660 -14.641 -24.507  0.00  0.00    +0.059 C 
ATOM      6  C   UNL     1      34.264 -14.465 -22.174  0.00  0.00    +0.014 C 
ATOM      7  C   UNL     1      34.575 -15.826 -22.152  0.00  0.00    +0.075 C 
ATOM      8  C   UNL     1      33.971 -16.000 -24.486  0.00  0.00    +0.031 C 
ENDROOT
BRANCH   3  11
ATOM      9 CL   UNL     1      31.539 -12.945 -21.477  0.00  0.00    -0.082 Cl
ATOM     10 CL   UNL     1      34.906  -9.229 -25.200  0.00  0.00    -0.081 Cl
ATOM     11  C   UNL     1      33.494 -12.457 -23.329  0.00  0.00    +0.012 C 
ATOM     12  C   UNL     1      32.959  -9.719 -23.347  0.00  0.00    +0.117 C 
ATOM     13  C   UNL     1      32.488 -11.937 -22.515  0.00  0.00    +0.059 C 
ATOM     14  C   UNL     1      34.233 -11.607 -24.152  0.00  0.00    +0.014 C 
ATOM     15  C   UNL     1      33.965 -10.237 -24.161  0.00  0.00    +0.075 C 
ATOM     16  C   UNL     1      32.220 -10.569 -22.523  0.00  0.00    +0.031 C 
BRANCH  12  17
ATOM     17  S   UNL     1      32.579  -8.008 -23.315  0.00  0.00    +0.011 S 
ATOM     18  O   UNL     1      33.835  -7.276 -23.331  0.00  0.00    -0.169 OA
ATOM     19  O   UNL     1      31.565  -7.737 -24.323  0.00  0.00    -0.169 OA
ATOM     20  C   UNL     1      31.817  -7.761 -21.729  0.00  0.00    +0.182 C 
ENDBRANCH  12  17
ENDBRANCH   3  11
BRANCH   4  21
ATOM     21  S   UNL     1      34.805 -18.304 -23.341  0.00  0.00    +0.011 S 
ATOM     22  O   UNL     1      36.248 -18.441 -23.226  0.00  0.00    -0.169 OA
ATOM     23  O   UNL     1      33.931 -18.991 -22.402  0.00  0.00    -0.169 OA
ATOM     24  C   UNL     1      34.330 -18.823 -24.973  0.00  0.00    +0.182 C 
ENDBRANCH   4  21
TORSDOF 3
ENDMDL
MODEL 2
REMARK VINA RESULT:      -9.1      0.031      7.973
REMARK  Name = 115069
REMARK  3 active torsions:
REMARK  status: ('A' for Active; 'I' for Inactive)
REMARK    1  A    between atoms: C_3  and  C_11
REMARK    2  A    between atoms: C_4  and  S_21
REMARK    3  A    between atoms: C_12  and  S_17
REMARK                            x       y       z     vdW  Elec       q    Type
REMARK                         _______ _______ _______ _____ _____    ______ ____
ROOT
ATOM      1 CL   UNL     1      31.569 -12.956 -21.438  0.00  0.00    -0.082 Cl
ATOM      2 CL   UNL     1      34.863  -9.249 -25.236  0.00  0.00    -0.081 Cl
ATOM      3  C   UNL     1      33.492 -12.472 -23.324  0.00  0.00    +0.012 C 
ATOM      4  C   UNL     1      32.946  -9.736 -23.349  0.00  0.00    +0.117 C 
ATOM      5  C   UNL     1      32.497 -11.951 -22.496  0.00  0.00    +0.059 C 
ATOM      6  C   UNL     1      34.215 -11.624 -24.164  0.00  0.00    +0.014 C 
ATOM      7  C   UNL     1      33.942 -10.255 -24.176  0.00  0.00    +0.075 C 
ATOM      8  C   UNL     1      32.224 -10.584 -22.509  0.00  0.00    +0.031 C 
ENDROOT
BRANCH   3  11
ATOM      9 CL   UNL     1      33.127 -13.975 -25.992  0.00  0.00    -0.082 Cl
ATOM     10 CL   UNL     1      35.115 -16.522 -20.647  0.00  0.00    -0.081 Cl
ATOM     11  C   UNL     1      33.809 -13.888 -23.343  0.00  0.00    +0.012 C 
ATOM     12  C   UNL     1      34.439 -16.604 -23.293  0.00  0.00    +0.117 C 
ATOM     13  C   UNL     1      33.678 -14.655 -24.500  0.00  0.00    +0.059 C 
ATOM     14  C   UNL     1      34.255 -14.478 -22.161  0.00  0.00    +0.014 C 
ATOM     15  C   UNL     1      34.570 -15.838 -22.136  0.00  0.00    +0.075 C 
ATOM     16  C   UNL     1      33.993 -16.014 -24.476  0.00  0.00    +0.031 C 
BRANCH  12  17
ATOM     17  S   UNL     1      34.822 -18.315 -23.323  0.00  0.00    +0.011 S 
ATOM     18  O   UNL     1      36.264 -18.447 -23.188  0.00  0.00    -0.169 OA
ATOM     19  O   UNL     1      33.938 -19.005 -22.396  0.00  0.00    -0.169 OA
ATOM     20  C   UNL     1      34.371 -18.834 -24.961  0.00  0.00    +0.182 C 
ENDBRANCH  12  17
ENDBRANCH   3  11
BRANCH   4  21
ATOM     21  S   UNL     1      32.560  -8.026 -23.320  0.00  0.00    +0.011 S 
ATOM     22  O   UNL     1      33.814  -7.291 -23.332  0.00  0.00    -0.169 OA
ATOM     23  O   UNL     1      31.551  -7.760 -24.334  0.00  0.00    -0.169 OA
ATOM     24  C   UNL     1      31.790  -7.780 -21.738  0.00  0.00    +0.182 C 
ENDBRANCH   4  21
TORSDOF 3
ENDMDL
MODEL 3
REMARK VINA RESULT:      -8.6      1.209      2.229
REMARK  Name = 115069
REMARK  3 active torsions:
REMARK  status: ('A' for Active; 'I' for Inactive)
REMARK    1  A    between atoms: C_3  and  C_11
REMARK    2  A    between atoms: C_4  and  S_21
REMARK    3  A    between atoms: C_12  and  S_17
REMARK                            x       y       z     vdW  Elec       q    Type
REMARK                         _______ _______ _______ _____ _____    ______ ____
ROOT
ATOM      1 CL   UNL     1      32.674 -13.997 -25.833  0.00  0.00    -0.082 Cl
ATOM      2 CL   UNL     1      35.158 -16.563 -20.708  0.00  0.00    -0.081 Cl
ATOM      3  C   UNL     1      33.498 -13.949 -23.224  0.00  0.00    +0.012 C 
ATOM      4  C   UNL     1      34.339 -16.607 -23.315  0.00  0.00    +0.117 C 
ATOM      5  C   UNL     1      33.361 -14.683 -24.401  0.00  0.00    +0.059 C 
ATOM      6  C   UNL     1      34.055 -14.543 -22.091  0.00  0.00    +0.014 C 
ATOM      7  C   UNL     1      34.476 -15.873 -22.137  0.00  0.00    +0.075 C 
ATOM      8  C   UNL     1      33.782 -16.012 -24.448  0.00  0.00    +0.031 C 
ENDROOT
BRANCH   3  11
ATOM      9 CL   UNL     1      34.699 -11.954 -25.247  0.00  0.00    -0.082 Cl
ATOM     10 CL   UNL     1      30.587 -10.529 -20.767  0.00  0.00    -0.081 Cl
ATOM     11  C   UNL     1      33.074 -12.564 -23.131  0.00  0.00    +0.012 C 
ATOM     12  C   UNL     1      32.206  -9.924 -22.883  0.00  0.00    +0.117 C 
ATOM     13  C   UNL     1      33.558 -11.586 -24.000  0.00  0.00    +0.059 C 
ATOM     14  C   UNL     1      32.155 -12.222 -22.138  0.00  0.00    +0.014 C 
ATOM     15  C   UNL     1      31.722 -10.901 -22.015  0.00  0.00    +0.075 C 
ATOM     16  C   UNL     1      33.124 -10.266 -23.877  0.00  0.00    +0.031 C 
BRANCH  12  17
ATOM     17  S   UNL     1      31.696  -8.251 -22.777  0.00  0.00    +0.011 S 
ATOM     18  O   UNL     1      30.440  -8.125 -23.497  0.00  0.00    -0.169 OA
ATOM     19  O   UNL     1      31.786  -7.825 -21.389  0.00  0.00    -0.169 OA
ATOM     20  C   UNL     1      32.940  -7.359 -23.678  0.00  0.00    +0.182 C 
ENDBRANCH  12  17
ENDBRANCH   3  11
BRANCH   4  21
ATOM     21  S   UNL     1      34.850 -18.279 -23.433  0.00  0.00    +0.011 S 
ATOM     22  O   UNL     1      36.302 -18.303 -23.360  0.00  0.00    -0.169 OA
ATOM     23  O   UNL     1      34.061 -19.074 -22.503  0.00  0.00    -0.169 OA
ATOM     24  C   UNL     1      34.372 -18.766 -25.074  0.00  0.00    +0.182 C 
ENDBRANCH   4  21
TORSDOF 3
ENDMDL
MODEL 4
REMARK VINA RESULT:      -8.6      1.211      7.843
REMARK  Name = 115069
REMARK  3 active torsions:
REMARK  status: ('A' for Active; 'I' for Inactive)
REMARK    1  A    between atoms: C_3  and  C_11
REMARK    2  A    between atoms: C_4  and  S_21
REMARK    3  A    between atoms: C_12  and  S_17
REMARK                            x       y       z     vdW  Elec       q    Type
REMARK                         _______ _______ _______ _____ _____    ______ ____
ROOT
ATOM      1 CL   UNL     1      34.666 -11.967 -25.288  0.00  0.00    -0.082 Cl
ATOM      2 CL   UNL     1      30.613 -10.530 -20.757  0.00  0.00    -0.081 Cl
ATOM      3  C   UNL     1      33.072 -12.570 -23.147  0.00  0.00    +0.012 C 
ATOM      4  C   UNL     1      32.203  -9.931 -22.898  0.00  0.00    +0.117 C 
ATOM      5  C   UNL     1      33.541 -11.596 -24.027  0.00  0.00    +0.059 C 
ATOM      6  C   UNL     1      32.166 -12.226 -22.142  0.00  0.00    +0.014 C 
ATOM      7  C   UNL     1      31.732 -10.905 -22.018  0.00  0.00    +0.075 C 
ATOM      8  C   UNL     1      33.107 -10.276 -23.903  0.00  0.00    +0.031 C 
ENDROOT
BRANCH   3  11
ATOM      9 CL   UNL     1      32.695 -13.997 -25.856  0.00  0.00    -0.082 Cl
ATOM     10 CL   UNL     1      35.137 -16.575 -20.717  0.00  0.00    -0.081 Cl
ATOM     11  C   UNL     1      33.497 -13.955 -23.239  0.00  0.00    +0.012 C 
ATOM     12  C   UNL     1      34.339 -16.612 -23.331  0.00  0.00    +0.117 C 
ATOM     13  C   UNL     1      33.370 -14.687 -24.420  0.00  0.00    +0.059 C 
ATOM     14  C   UNL     1      34.046 -14.552 -22.105  0.00  0.00    +0.014 C 
ATOM     15  C   UNL     1      34.467 -15.882 -22.150  0.00  0.00    +0.075 C 
ATOM     16  C   UNL     1      33.791 -16.015 -24.467  0.00  0.00    +0.031 C 
BRANCH  12  17
ATOM     17  S   UNL     1      34.853 -18.284 -23.448  0.00  0.00    +0.011 S 
ATOM     18  O   UNL     1      36.305 -18.306 -23.382  0.00  0.00    -0.169 OA
ATOM     19  O   UNL     1      34.069 -19.078 -22.515  0.00  0.00    -0.169 OA
ATOM     20  C   UNL     1      34.369 -18.774 -25.086  0.00  0.00    +0.182 C 
ENDBRANCH  12  17
ENDBRANCH   3  11
BRANCH   4  21
ATOM     21  S   UNL     1      31.692  -8.258 -22.792  0.00  0.00    +0.011 S 
ATOM     22  O   UNL     1      30.420  -8.140 -23.486  0.00  0.00    -0.169 OA
ATOM     23  O   UNL     1      31.809  -7.823 -21.408  0.00  0.00    -0.169 OA
ATOM     24  C   UNL     1      32.915  -7.369 -23.725  0.00  0.00    +0.182 C 
ENDBRANCH   4  21
TORSDOF 3
ENDMDL
MODEL 5
REMARK VINA RESULT:      -8.1      1.764      3.296
REMARK  Name = 115069
REMARK  3 active torsions:
REMARK  status: ('A' for Active; 'I' for Inactive)
REMARK    1  A    between atoms: C_3  and  C_11
REMARK    2  A    between atoms: C_4  and  S_21
REMARK    3  A    between atoms: C_12  and  S_17
REMARK                            x       y       z     vdW  Elec       q    Type
REMARK                         _______ _______ _______ _____ _____    ______ ____
ROOT
ATOM      1 CL   UNL     1      34.730 -13.920 -21.307  0.00  0.00    -0.082 Cl
ATOM      2 CL   UNL     1      32.720 -15.844 -26.900  0.00  0.00    -0.081 Cl
ATOM      3  C   UNL     1      33.407 -13.590 -23.680  0.00  0.00    +0.012 C 
ATOM      4  C   UNL     1      34.037 -16.172 -24.527  0.00  0.00    +0.117 C 
ATOM      5  C   UNL     1      34.159 -14.430 -22.859  0.00  0.00    +0.059 C 
ATOM      6  C   UNL     1      32.969 -14.042 -24.926  0.00  0.00    +0.014 C 
ATOM      7  C   UNL     1      33.284 -15.334 -25.349  0.00  0.00    +0.075 C 
ATOM      8  C   UNL     1      34.474 -15.721 -23.282  0.00  0.00    +0.031 C 
ENDROOT
BRANCH   3  11
ATOM      9 CL   UNL     1      34.686 -11.263 -25.250  0.00  0.00    -0.082 Cl
ATOM     10 CL   UNL     1      30.707 -10.651 -20.475  0.00  0.00    -0.081 Cl
ATOM     11  C   UNL     1      33.057 -12.240 -23.280  0.00  0.00    +0.012 C 
ATOM     12  C   UNL     1      32.331  -9.679 -22.447  0.00  0.00    +0.117 C 
ATOM     13  C   UNL     1      33.581 -11.121 -23.927  0.00  0.00    +0.059 C 
ATOM     14  C   UNL     1      32.169 -12.078 -22.216  0.00  0.00    +0.014 C 
ATOM     15  C   UNL     1      31.806 -10.797 -21.799  0.00  0.00    +0.075 C 
ATOM     16  C   UNL     1      33.218  -9.840 -23.511  0.00  0.00    +0.031 C 
BRANCH  12  17
ATOM     17  S   UNL     1      31.910  -8.046 -21.968  0.00  0.00    +0.011 S 
ATOM     18  O   UNL     1      30.720  -7.662 -22.709  0.00  0.00    -0.169 OA
ATOM     19  O   UNL     1      31.919  -7.970 -20.516  0.00  0.00    -0.169 OA
ATOM     20  C   UNL     1      33.266  -7.058 -22.552  0.00  0.00    +0.182 C 
ENDBRANCH  12  17
ENDBRANCH   3  11
BRANCH   4  21
ATOM     21  S   UNL     1      34.461 -17.805 -25.005  0.00  0.00    +0.011 S 
ATOM     22  O   UNL     1      33.230 -18.572 -25.099  0.00  0.00    -0.169 OA
ATOM     23  O   UNL     1      35.365 -17.736 -26.143  0.00  0.00    -0.169 OA
ATOM     24  C   UNL     1      35.398 -18.430 -23.631  0.00  0.00    +0.182 C 
ENDBRANCH   4  21
TORSDOF 3
ENDMDL
MODEL 6
REMARK VINA RESULT:      -8.0     12.572     14.255
REMARK  Name = 115069
REMARK  3 active torsions:
REMARK  status: ('A' for Active; 'I' for Inactive)
REMARK    1  A    between atoms: C_3  and  C_11
REMARK    2  A    between atoms: C_4  and  S_21
REMARK    3  A    between atoms: C_12  and  S_17
REMARK                            x       y       z     vdW  Elec       q    Type
REMARK                         _______ _______ _______ _____ _____    ______ ____
ROOT
ATOM      1 CL   UNL     1      35.783 -21.566 -16.145  0.00  0.00    -0.082 Cl
ATOM      2 CL   UNL     1      37.079 -27.324 -14.099  0.00  0.00    -0.081 Cl
ATOM      3  C   UNL     1      35.096 -24.077 -15.300  0.00  0.00    +0.012 C 
ATOM      4  C   UNL     1      37.762 -24.814 -14.939  0.00  0.00    +0.117 C 
ATOM      5  C   UNL     1      36.115 -23.165 -15.575  0.00  0.00    +0.059 C 
ATOM      6  C   UNL     1      35.409 -25.358 -14.843  0.00  0.00    +0.014 C 
ATOM      7  C   UNL     1      36.743 -25.726 -14.663  0.00  0.00    +0.075 C 
ATOM      8  C   UNL     1      37.448 -23.534 -15.395  0.00  0.00    +0.031 C 
ENDROOT
BRANCH   3  11
ATOM      9 CL   UNL     1      34.166 -23.278 -18.131  0.00  0.00    -0.082 Cl
ATOM     10 CL   UNL     1      30.521 -23.547 -13.066  0.00  0.00    -0.081 Cl
ATOM     11  C   UNL     1      33.696 -23.736 -15.474  0.00  0.00    +0.012 C 
ATOM     12  C   UNL     1      30.992 -23.096 -15.719  0.00  0.00    +0.117 C 
ATOM     13  C   UNL     1      33.177 -23.363 -16.713  0.00  0.00    +0.059 C 
ATOM     14  C   UNL     1      32.862 -23.789 -14.356  0.00  0.00    +0.014 C 
ATOM     15  C   UNL     1      31.510 -23.469 -14.480  0.00  0.00    +0.075 C 
ATOM     16  C   UNL     1      31.826 -23.043 -16.837  0.00  0.00    +0.031 C 
BRANCH  12  17
ATOM     17  S   UNL     1      29.302 -22.685 -15.935  0.00  0.00    +0.011 S 
ATOM     18  O   UNL     1      28.924 -21.789 -14.854  0.00  0.00    -0.169 OA
ATOM     19  O   UNL     1      29.093 -22.285 -17.318  0.00  0.00    -0.169 OA
ATOM     20  C   UNL     1      28.446 -24.224 -15.700  0.00  0.00    +0.182 C 
ENDBRANCH  12  17
ENDBRANCH   3  11
BRANCH   4  21
ATOM     21  S   UNL     1      39.454 -25.220 -14.730  0.00  0.00    +0.011 S 
ATOM     22  O   UNL     1      39.618 -26.622 -15.078  0.00  0.00    -0.169 OA
ATOM     23  O   UNL     1      40.261 -24.206 -15.392  0.00  0.00    -0.169 OA
ATOM     24  C   UNL     1      39.730 -25.049 -12.982  0.00  0.00    +0.182 C 
ENDBRANCH   4  21
TORSDOF 3
ENDMDL
MODEL 7
REMARK VINA RESULT:      -8.0     12.613     15.060
REMARK  Name = 115069
REMARK  3 active torsions:
REMARK  status: ('A' for Active; 'I' for Inactive)
REMARK    1  A    between atoms: C_3  and  C_11
REMARK    2  A    between atoms: C_4  and  S_21
REMARK    3  A    between atoms: C_12  and  S_17
REMARK                            x       y       z     vdW  Elec       q    Type
REMARK                         _______ _______ _______ _____ _____    ______ ____
ROOT
ATOM      1 CL   UNL     1      34.147 -23.379 -18.146  0.00  0.00    -0.082 Cl
ATOM      2 CL   UNL     1      30.532 -23.499 -13.054  0.00  0.00    -0.081 Cl
ATOM      3  C   UNL     1      33.692 -23.762 -15.475  0.00  0.00    +0.012 C 
ATOM      4  C   UNL     1      30.989 -23.122 -15.722  0.00  0.00    +0.117 C 
ATOM      5  C   UNL     1      33.167 -23.423 -16.722  0.00  0.00    +0.059 C 
ATOM      6  C   UNL     1      32.866 -23.782 -14.351  0.00  0.00    +0.014 C 
ATOM      7  C   UNL     1      31.513 -23.462 -14.475  0.00  0.00    +0.075 C 
ATOM      8  C   UNL     1      31.815 -23.103 -16.845  0.00  0.00    +0.031 C 
ENDROOT
BRANCH   3  11
ATOM      9 CL   UNL     1      35.774 -21.560 -16.052  0.00  0.00    -0.082 Cl
ATOM     10 CL   UNL     1      37.082 -27.378 -14.195  0.00  0.00    -0.081 Cl
ATOM     11  C   UNL     1      35.092 -24.102 -15.300  0.00  0.00    +0.012 C 
ATOM     12  C   UNL     1      37.759 -24.838 -14.941  0.00  0.00    +0.117 C 
ATOM     13  C   UNL     1      36.109 -23.176 -15.535  0.00  0.00    +0.059 C 
ATOM     14  C   UNL     1      35.409 -25.396 -14.886  0.00  0.00    +0.014 C 
ATOM     15  C   UNL     1      36.743 -25.764 -14.706  0.00  0.00    +0.075 C 
ATOM     16  C   UNL     1      37.443 -23.543 -15.355  0.00  0.00    +0.031 C 
BRANCH  12  17
ATOM     17  S   UNL     1      39.451 -25.243 -14.730  0.00  0.00    +0.011 S 
ATOM     18  O   UNL     1      39.624 -26.634 -15.114  0.00  0.00    -0.169 OA
ATOM     19  O   UNL     1      40.259 -24.209 -15.359  0.00  0.00    -0.169 OA
ATOM     20  C   UNL     1      39.714 -25.117 -12.978  0.00  0.00    +0.182 C 
ENDBRANCH  12  17
ENDBRANCH   3  11
BRANCH   4  21
ATOM     21  S   UNL     1      29.298 -22.712 -15.939  0.00  0.00    +0.011 S 
ATOM     22  O   UNL     1      28.925 -21.798 -14.872  0.00  0.00    -0.169 OA
ATOM     23  O   UNL     1      29.085 -22.336 -17.328  0.00  0.00    -0.169 OA
ATOM     24  C   UNL     1      28.441 -24.247 -15.675  0.00  0.00    +0.182 C 
ENDBRANCH   4  21
TORSDOF 3
ENDMDL
MODEL 8
REMARK VINA RESULT:      -7.6      1.187      7.879
REMARK  Name = 115069
REMARK  3 active torsions:
REMARK  status: ('A' for Active; 'I' for Inactive)
REMARK    1  A    between atoms: C_3  and  C_11
REMARK    2  A    between atoms: C_4  and  S_21
REMARK    3  A    between atoms: C_12  and  S_17
REMARK                            x       y       z     vdW  Elec       q    Type
REMARK                         _______ _______ _______ _____ _____    ______ ____
ROOT
ATOM      1 CL   UNL     1      31.636 -13.319 -21.383  0.00  0.00    -0.082 Cl
ATOM      2 CL   UNL     1      34.882  -9.532 -25.145  0.00  0.00    -0.081 Cl
ATOM      3  C   UNL     1      33.576 -12.785 -23.238  0.00  0.00    +0.012 C 
ATOM      4  C   UNL     1      32.948 -10.068 -23.288  0.00  0.00    +0.117 C 
ATOM      5  C   UNL     1      32.552 -12.291 -22.430  0.00  0.00    +0.059 C 
ATOM      6  C   UNL     1      34.288 -11.920 -24.070  0.00  0.00    +0.014 C 
ATOM      7  C   UNL     1      33.973 -10.561 -24.095  0.00  0.00    +0.075 C 
ATOM      8  C   UNL     1      32.238 -10.933 -22.456  0.00  0.00    +0.031 C 
ENDROOT
BRANCH   3  11
ATOM      9 CL   UNL     1      34.798 -13.952 -20.657  0.00  0.00    -0.082 Cl
ATOM     10 CL   UNL     1      33.745 -17.139 -25.925  0.00  0.00    -0.081 Cl
ATOM     11  C   UNL     1      33.936 -14.191 -23.244  0.00  0.00    +0.012 C 
ATOM     12  C   UNL     1      34.600 -16.898 -23.340  0.00  0.00    +0.117 C 
ATOM     13  C   UNL     1      34.494 -14.812 -22.127  0.00  0.00    +0.059 C 
ATOM     14  C   UNL     1      33.710 -14.923 -24.409  0.00  0.00    +0.014 C 
ATOM     15  C   UNL     1      34.042 -16.278 -24.457  0.00  0.00    +0.075 C 
ATOM     16  C   UNL     1      34.826 -16.166 -22.174  0.00  0.00    +0.031 C 
BRANCH  12  17
ATOM     17  S   UNL     1      35.036 -18.596 -23.342  0.00  0.00    +0.011 S 
ATOM     18  O   UNL     1      34.456 -19.200 -24.531  0.00  0.00    -0.169 OA
ATOM     19  O   UNL     1      36.464 -18.711 -23.089  0.00  0.00    -0.169 OA
ATOM     20  C   UNL     1      34.199 -19.261 -21.922  0.00  0.00    +0.182 C 
ENDBRANCH  12  17
ENDBRANCH   3  11
BRANCH   4  21
ATOM     21  S   UNL     1      32.510  -8.370 -23.276  0.00  0.00    +0.011 S 
ATOM     22  O   UNL     1      33.735  -7.597 -23.402  0.00  0.00    -0.169 OA
ATOM     23  O   UNL     1      31.419  -8.165 -24.217  0.00  0.00    -0.169 OA
ATOM     24  C   UNL     1      31.853  -8.102 -21.647  0.00  0.00    +0.182 C 
ENDBRANCH   4  21
TORSDOF 3
ENDMDL
MODEL 9
REMARK VINA RESULT:      -7.6      1.169      2.131
REMARK  Name = 115069
REMARK  3 active torsions:
REMARK  status: ('A' for Active; 'I' for Inactive)
REMARK    1  A    between atoms: C_3  and  C_11
REMARK    2  A    between atoms: C_4  and  S_21
REMARK    3  A    between atoms: C_12  and  S_17
REMARK                            x       y       z     vdW  Elec       q    Type
REMARK                         _______ _______ _______ _____ _____    ______ ____
ROOT
ATOM      1 CL   UNL     1      34.789 -13.935 -20.666  0.00  0.00    -0.082 Cl
ATOM      2 CL   UNL     1      33.704 -17.097 -25.944  0.00  0.00    -0.081 Cl
ATOM      3  C   UNL     1      33.920 -14.160 -23.252  0.00  0.00    +0.012 C 
ATOM      4  C   UNL     1      34.567 -16.871 -23.360  0.00  0.00    +0.117 C 
ATOM      5  C   UNL     1      34.476 -14.789 -22.138  0.00  0.00    +0.059 C 
ATOM      6  C   UNL     1      33.686 -14.886 -24.420  0.00  0.00    +0.014 C 
ATOM      7  C   UNL     1      34.011 -16.243 -24.474  0.00  0.00    +0.075 C 
ATOM      8  C   UNL     1      34.800 -16.144 -22.192  0.00  0.00    +0.031 C 
ENDROOT
BRANCH   3  11
ATOM      9 CL   UNL     1      31.642 -13.278 -21.368  0.00  0.00    -0.082 Cl
ATOM     10 CL   UNL     1      34.873  -9.503 -25.152  0.00  0.00    -0.081 Cl
ATOM     11  C   UNL     1      33.568 -12.752 -23.240  0.00  0.00    +0.012 C 
ATOM     12  C   UNL     1      32.955 -10.031 -23.279  0.00  0.00    +0.117 C 
ATOM     13  C   UNL     1      32.553 -12.254 -22.422  0.00  0.00    +0.059 C 
ATOM     14  C   UNL     1      34.276 -11.890 -24.076  0.00  0.00    +0.014 C 
ATOM     15  C   UNL     1      33.969 -10.528 -24.096  0.00  0.00    +0.075 C 
ATOM     16  C   UNL     1      32.247 -10.893 -22.441  0.00  0.00    +0.031 C 
BRANCH  12  17
ATOM     17  S   UNL     1      32.527  -8.331 -23.260  0.00  0.00    +0.011 S 
ATOM     18  O   UNL     1      33.760  -7.564 -23.336  0.00  0.00    -0.169 OA
ATOM     19  O   UNL     1      31.468  -8.107 -24.232  0.00  0.00    -0.169 OA
ATOM     20  C   UNL     1      31.820  -8.079 -21.650  0.00  0.00    +0.182 C 
ENDBRANCH  12  17
ENDBRANCH   3  11
BRANCH   4  21
ATOM     21  S   UNL     1      34.993 -18.571 -23.368  0.00  0.00    +0.011 S 
ATOM     22  O   UNL     1      34.367 -19.177 -24.533  0.00  0.00    -0.169 OA
ATOM     23  O   UNL     1      36.429 -18.692 -23.168  0.00  0.00    -0.169 OA
ATOM     24  C   UNL     1      34.205 -19.224 -21.915  0.00  0.00    +0.182 C 
ENDBRANCH   4  21
TORSDOF 3
ENDMDL
