MODEL 1
REMARK VINA RESULT:      -7.6      0.000      0.000
REMARK  Name = 25429
REMARK  2 active torsions:
REMARK  status: ('A' for Active; 'I' for Inactive)
REMARK    1  A    between atoms: N_4  and  C_7
REMARK    2  A    between atoms: C_12  and  O_16
REMARK                            x       y       z     vdW  Elec       q    Type
REMARK                         _______ _______ _______ _____ _____    ______ ____
ROOT
ATOM      1  N   UNL     1      34.298 -18.598 -22.480  0.00  0.00    -0.302 N 
ATOM      2  N   UNL     1      36.481 -18.189 -22.374  0.00  0.00    -0.302 N 
ATOM      3  C   UNL     1      34.776 -19.412 -21.484  0.00  0.00    +0.060 C 
ATOM      4  C   UNL     1      36.140 -19.139 -21.438  0.00  0.00    +0.060 C 
ATOM      5  C   UNL     1      35.354 -17.887 -22.980  0.00  0.00    +0.229 C 
ATOM      6  C   UNL     1      34.152 -20.337 -20.648  0.00  0.00    +0.016 C 
ATOM      7  C   UNL     1      36.944 -19.818 -20.508  0.00  0.00    +0.016 C 
ATOM      8  C   UNL     1      34.966 -21.004 -19.727  0.00  0.00    +0.001 C 
ATOM      9  C   UNL     1      36.338 -20.750 -19.657  0.00  0.00    +0.001 C 
ATOM     10  H   UNL     1      33.363 -18.537 -22.780  0.00  0.00    +0.150 HD
ATOM     11  H   UNL     1      37.374 -17.815 -22.551  0.00  0.00    +0.150 HD
ENDROOT
BRANCH   5  13
ATOM     12  O   UNL     1      33.884 -18.206 -25.544  0.00  0.00    -0.226 OA
ATOM     13  N   UNL     1      35.163 -16.987 -23.996  0.00  0.00    -0.240 N 
ATOM     14  C   UNL     1      34.462 -17.188 -25.184  0.00  0.00    +0.404 C 
ATOM     15  H   UNL     1      35.568 -16.097 -23.872  0.00  0.00    +0.156 HD
BRANCH  14  16
ATOM     16  O   UNL     1      34.503 -16.043 -25.936  0.00  0.00    -0.431 OA
ATOM     17  C   UNL     1      33.309 -15.253 -25.949  0.00  0.00    +0.257 C 
ENDBRANCH  14  16
ENDBRANCH   5  13
TORSDOF 2
ENDMDL
MODEL 2
REMARK VINA RESULT:      -7.6      2.048      2.214
REMARK  Name = 25429
REMARK  2 active torsions:
REMARK  status: ('A' for Active; 'I' for Inactive)
REMARK    1  A    between atoms: N_4  and  C_7
REMARK    2  A    between atoms: C_12  and  O_16
REMARK                            x       y       z     vdW  Elec       q    Type
REMARK                         _______ _______ _______ _____ _____    ______ ____
ROOT
ATOM      1  N   UNL     1      33.970 -18.651 -21.354  0.00  0.00    -0.302 N 
ATOM      2  N   UNL     1      36.175 -18.916 -21.241  0.00  0.00    -0.302 N 
ATOM      3  C   UNL     1      34.165 -19.809 -20.643  0.00  0.00    +0.060 C 
ATOM      4  C   UNL     1      35.549 -19.952 -20.587  0.00  0.00    +0.060 C 
ATOM      5  C   UNL     1      35.200 -18.155 -21.688  0.00  0.00    +0.229 C 
ATOM      6  C   UNL     1      33.277 -20.715 -20.064  0.00  0.00    +0.016 C 
ATOM      7  C   UNL     1      36.096 -21.058 -19.917  0.00  0.00    +0.016 C 
ATOM      8  C   UNL     1      33.838 -21.810 -19.400  0.00  0.00    +0.001 C 
ATOM      9  C   UNL     1      35.223 -21.981 -19.327  0.00  0.00    +0.001 C 
ATOM     10  H   UNL     1      33.101 -18.250 -21.582  0.00  0.00    +0.150 HD
ATOM     11  H   UNL     1      37.143 -18.773 -21.351  0.00  0.00    +0.150 HD
ENDROOT
BRANCH   5  13
ATOM     12  O   UNL     1      33.533 -15.696 -21.574  0.00  0.00    -0.226 OA
ATOM     13  N   UNL     1      35.306 -16.994 -22.408  0.00  0.00    -0.240 N 
ATOM     14  C   UNL     1      34.493 -15.864 -22.316  0.00  0.00    +0.404 C 
ATOM     15  H   UNL     1      36.038 -16.953 -23.065  0.00  0.00    +0.156 HD
BRANCH  14  16
ATOM     16  O   UNL     1      34.928 -14.917 -23.206  0.00  0.00    -0.431 OA
ATOM     17  C   UNL     1      33.999 -13.875 -23.524  0.00  0.00    +0.257 C 
ENDBRANCH  14  16
ENDBRANCH   5  13
TORSDOF 2
ENDMDL
MODEL 3
REMARK VINA RESULT:      -7.5      5.646      7.786
REMARK  Name = 25429
REMARK  2 active torsions:
REMARK  status: ('A' for Active; 'I' for Inactive)
REMARK    1  A    between atoms: N_4  and  C_7
REMARK    2  A    between atoms: C_12  and  O_16
REMARK                            x       y       z     vdW  Elec       q    Type
REMARK                         _______ _______ _______ _____ _____    ______ ____
ROOT
ATOM      1  N   UNL     1      32.649 -21.765 -18.899  0.00  0.00    -0.302 N 
ATOM      2  N   UNL     1      34.731 -22.365 -18.399  0.00  0.00    -0.302 N 
ATOM      3  C   UNL     1      33.452 -21.050 -19.751  0.00  0.00    +0.060 C 
ATOM      4  C   UNL     1      34.746 -21.441 -19.420  0.00  0.00    +0.060 C 
ATOM      5  C   UNL     1      33.460 -22.536 -18.112  0.00  0.00    +0.229 C 
ATOM      6  C   UNL     1      33.165 -20.121 -20.751  0.00  0.00    +0.016 C 
ATOM      7  C   UNL     1      35.830 -20.884 -20.117  0.00  0.00    +0.016 C 
ATOM      8  C   UNL     1      34.256 -19.577 -21.437  0.00  0.00    +0.001 C 
ATOM      9  C   UNL     1      35.565 -19.950 -21.127  0.00  0.00    +0.001 C 
ATOM     10  H   UNL     1      31.667 -21.730 -18.860  0.00  0.00    +0.150 HD
ATOM     11  H   UNL     1      35.505 -22.804 -17.976  0.00  0.00    +0.150 HD
ENDROOT
BRANCH   5  13
ATOM     12  O   UNL     1      30.750 -22.498 -16.889  0.00  0.00    -0.226 OA
ATOM     13  N   UNL     1      32.919 -23.361 -17.160  0.00  0.00    -0.240 N 
ATOM     14  C   UNL     1      31.636 -23.299 -16.617  0.00  0.00    +0.404 C 
ATOM     15  H   UNL     1      33.504 -24.077 -16.821  0.00  0.00    +0.156 HD
BRANCH  14  16
ATOM     16  O   UNL     1      31.485 -24.301 -15.694  0.00  0.00    -0.431 OA
ATOM     17  C   UNL     1      30.141 -24.723 -15.434  0.00  0.00    +0.257 C 
ENDBRANCH  14  16
ENDBRANCH   5  13
TORSDOF 2
ENDMDL
MODEL 4
REMARK VINA RESULT:      -7.4      8.601      9.675
REMARK  Name = 25429
REMARK  2 active torsions:
REMARK  status: ('A' for Active; 'I' for Inactive)
REMARK    1  A    between atoms: N_4  and  C_7
REMARK    2  A    between atoms: C_12  and  O_16
REMARK                            x       y       z     vdW  Elec       q    Type
REMARK                         _______ _______ _______ _____ _____    ______ ____
ROOT
ATOM      1  N   UNL     1      30.645 -22.687 -16.858  0.00  0.00    -0.302 N 
ATOM      2  N   UNL     1      30.410 -23.004 -14.670  0.00  0.00    -0.302 N 
ATOM      3  C   UNL     1      31.883 -23.073 -16.408  0.00  0.00    +0.060 C 
ATOM      4  C   UNL     1      31.709 -23.264 -15.040  0.00  0.00    +0.060 C 
ATOM      5  C   UNL     1      29.800 -22.661 -15.783  0.00  0.00    +0.229 C 
ATOM      6  C   UNL     1      33.101 -23.263 -17.060  0.00  0.00    +0.016 C 
ATOM      7  C   UNL     1      32.805 -23.670 -14.261  0.00  0.00    +0.016 C 
ATOM      8  C   UNL     1      34.181 -23.668 -16.270  0.00  0.00    +0.001 C 
ATOM      9  C   UNL     1      34.038 -23.868 -14.895  0.00  0.00    +0.001 C 
ATOM     10  H   UNL     1      30.409 -22.468 -17.788  0.00  0.00    +0.150 HD
ATOM     11  H   UNL     1      30.020 -23.062 -13.768  0.00  0.00    +0.150 HD
ENDROOT
BRANCH   5  13
ATOM     12  O   UNL     1      27.869 -23.453 -17.900  0.00  0.00    -0.226 OA
ATOM     13  N   UNL     1      28.486 -22.306 -15.945  0.00  0.00    -0.240 N 
ATOM     14  C   UNL     1      27.619 -22.707 -16.961  0.00  0.00    +0.404 C 
ATOM     15  H   UNL     1      28.112 -21.698 -15.266  0.00  0.00    +0.156 HD
BRANCH  14  16
ATOM     16  O   UNL     1      26.391 -22.132 -16.765  0.00  0.00    -0.431 OA
ATOM     17  C   UNL     1      25.973 -21.184 -17.752  0.00  0.00    +0.257 C 
ENDBRANCH  14  16
ENDBRANCH   5  13
TORSDOF 2
ENDMDL
MODEL 5
REMARK VINA RESULT:      -7.3     10.443     12.070
REMARK  Name = 25429
REMARK  2 active torsions:
REMARK  status: ('A' for Active; 'I' for Inactive)
REMARK    1  A    between atoms: N_4  and  C_7
REMARK    2  A    between atoms: C_12  and  O_16
REMARK                            x       y       z     vdW  Elec       q    Type
REMARK                         _______ _______ _______ _____ _____    ______ ____
ROOT
ATOM      1  N   UNL     1      33.567 -24.780 -13.017  0.00  0.00    -0.302 N 
ATOM      2  N   UNL     1      34.255 -23.205 -14.426  0.00  0.00    -0.302 N 
ATOM      3  C   UNL     1      32.522 -24.581 -13.884  0.00  0.00    +0.060 C 
ATOM      4  C   UNL     1      32.976 -23.594 -14.753  0.00  0.00    +0.060 C 
ATOM      5  C   UNL     1      34.578 -23.936 -13.383  0.00  0.00    +0.229 C 
ATOM      6  C   UNL     1      31.257 -25.161 -13.977  0.00  0.00    +0.016 C 
ATOM      7  C   UNL     1      32.133 -23.147 -15.783  0.00  0.00    +0.016 C 
ATOM      8  C   UNL     1      30.430 -24.706 -15.009  0.00  0.00    +0.001 C 
ATOM      9  C   UNL     1      30.858 -23.716 -15.897  0.00  0.00    +0.001 C 
ATOM     10  H   UNL     1      33.584 -25.417 -12.267  0.00  0.00    +0.150 HD
ATOM     11  H   UNL     1      34.810 -22.527 -14.877  0.00  0.00    +0.150 HD
ENDROOT
BRANCH   5  13
ATOM     12  O   UNL     1      35.215 -25.107 -10.725  0.00  0.00    -0.226 OA
ATOM     13  N   UNL     1      35.756 -23.923 -12.681  0.00  0.00    -0.240 N 
ATOM     14  C   UNL     1      36.003 -24.490 -11.431  0.00  0.00    +0.404 C 
ATOM     15  H   UNL     1      36.513 -23.460 -13.109  0.00  0.00    +0.156 HD
BRANCH  14  16
ATOM     16  O   UNL     1      37.306 -24.258 -11.077  0.00  0.00    -0.431 OA
ATOM     17  C   UNL     1      38.260 -24.253 -12.145  0.00  0.00    +0.257 C 
ENDBRANCH  14  16
ENDBRANCH   5  13
TORSDOF 2
ENDMDL
MODEL 6
REMARK VINA RESULT:      -7.2      2.990      5.659
REMARK  Name = 25429
REMARK  2 active torsions:
REMARK  status: ('A' for Active; 'I' for Inactive)
REMARK    1  A    between atoms: N_4  and  C_7
REMARK    2  A    between atoms: C_12  and  O_16
REMARK                            x       y       z     vdW  Elec       q    Type
REMARK                         _______ _______ _______ _____ _____    ______ ____
ROOT
ATOM      1  N   UNL     1      34.856 -19.531 -22.591  0.00  0.00    -0.302 N 
ATOM      2  N   UNL     1      35.149 -17.888 -21.122  0.00  0.00    -0.302 N 
ATOM      3  C   UNL     1      34.779 -18.370 -23.319  0.00  0.00    +0.060 C 
ATOM      4  C   UNL     1      34.965 -17.359 -22.379  0.00  0.00    +0.060 C 
ATOM      5  C   UNL     1      35.078 -19.190 -21.286  0.00  0.00    +0.229 C 
ATOM      6  C   UNL     1      34.569 -18.125 -24.675  0.00  0.00    +0.016 C 
ATOM      7  C   UNL     1      34.944 -16.020 -22.800  0.00  0.00    +0.016 C 
ATOM      8  C   UNL     1      34.551 -16.785 -25.078  0.00  0.00    +0.001 C 
ATOM      9  C   UNL     1      34.734 -15.750 -24.159  0.00  0.00    +0.001 C 
ATOM     10  H   UNL     1      34.766 -20.444 -22.946  0.00  0.00    +0.150 HD
ATOM     11  H   UNL     1      35.302 -17.398 -20.282  0.00  0.00    +0.150 HD
ENDROOT
BRANCH   5  13
ATOM     12  O   UNL     1      33.041 -21.092 -20.250  0.00  0.00    -0.226 OA
ATOM     13  N   UNL     1      35.198 -20.164 -20.328  0.00  0.00    -0.240 N 
ATOM     14  C   UNL     1      34.205 -21.033 -19.876  0.00  0.00    +0.404 C 
ATOM     15  H   UNL     1      36.086 -20.259 -19.912  0.00  0.00    +0.156 HD
BRANCH  14  16
ATOM     16  O   UNL     1      34.727 -21.856 -18.911  0.00  0.00    -0.431 OA
ATOM     17  C   UNL     1      36.110 -21.661 -18.596  0.00  0.00    +0.257 C 
ENDBRANCH  14  16
ENDBRANCH   5  13
TORSDOF 2
ENDMDL
MODEL 7
REMARK VINA RESULT:      -7.2      3.087      5.747
REMARK  Name = 25429
REMARK  2 active torsions:
REMARK  status: ('A' for Active; 'I' for Inactive)
REMARK    1  A    between atoms: N_4  and  C_7
REMARK    2  A    between atoms: C_12  and  O_16
REMARK                            x       y       z     vdW  Elec       q    Type
REMARK                         _______ _______ _______ _____ _____    ______ ____
ROOT
ATOM      1  N   UNL     1      34.995 -18.039 -20.871  0.00  0.00    -0.302 N 
ATOM      2  N   UNL     1      34.929 -19.522 -22.526  0.00  0.00    -0.302 N 
ATOM      3  C   UNL     1      34.863 -17.301 -22.020  0.00  0.00    +0.060 C 
ATOM      4  C   UNL     1      34.824 -18.249 -23.038  0.00  0.00    +0.060 C 
ATOM      5  C   UNL     1      35.029 -19.359 -21.225  0.00  0.00    +0.229 C 
ATOM      6  C   UNL     1      34.778 -15.928 -22.249  0.00  0.00    +0.016 C 
ATOM      7  C   UNL     1      34.693 -17.820 -24.369  0.00  0.00    +0.016 C 
ATOM      8  C   UNL     1      34.647 -15.517 -23.579  0.00  0.00    +0.001 C 
ATOM      9  C   UNL     1      34.605 -16.445 -24.622  0.00  0.00    +0.001 C 
ATOM     10  H   UNL     1      35.054 -17.682 -19.956  0.00  0.00    +0.150 HD
ATOM     11  H   UNL     1      34.928 -20.371 -23.024  0.00  0.00    +0.150 HD
ENDROOT
BRANCH   5  13
ATOM     12  O   UNL     1      32.964 -21.149 -20.054  0.00  0.00    -0.226 OA
ATOM     13  N   UNL     1      35.156 -20.330 -20.266  0.00  0.00    -0.240 N 
ATOM     14  C   UNL     1      34.150 -21.146 -19.748  0.00  0.00    +0.404 C 
ATOM     15  H   UNL     1      36.061 -20.467 -19.901  0.00  0.00    +0.156 HD
BRANCH  14  16
ATOM     16  O   UNL     1      34.685 -21.986 -18.808  0.00  0.00    -0.431 OA
ATOM     17  C   UNL     1      36.065 -21.779 -18.489  0.00  0.00    +0.257 C 
ENDBRANCH  14  16
ENDBRANCH   5  13
TORSDOF 2
ENDMDL
MODEL 8
REMARK VINA RESULT:      -7.2      9.506     11.285
REMARK  Name = 25429
REMARK  2 active torsions:
REMARK  status: ('A' for Active; 'I' for Inactive)
REMARK    1  A    between atoms: N_4  and  C_7
REMARK    2  A    between atoms: C_12  and  O_16
REMARK                            x       y       z     vdW  Elec       q    Type
REMARK                         _______ _______ _______ _____ _____    ______ ____
ROOT
ATOM      1  N   UNL     1      34.660 -24.329 -15.565  0.00  0.00    -0.302 N 
ATOM      2  N   UNL     1      33.937 -24.698 -13.495  0.00  0.00    -0.302 N 
ATOM      3  C   UNL     1      33.379 -23.836 -15.530  0.00  0.00    +0.060 C 
ATOM      4  C   UNL     1      32.950 -24.079 -14.229  0.00  0.00    +0.060 C 
ATOM      5  C   UNL     1      34.946 -24.832 -14.327  0.00  0.00    +0.229 C 
ATOM      6  C   UNL     1      32.585 -23.220 -16.497  0.00  0.00    +0.016 C 
ATOM      7  C   UNL     1      31.655 -23.690 -13.851  0.00  0.00    +0.016 C 
ATOM      8  C   UNL     1      31.298 -22.838 -16.104  0.00  0.00    +0.001 C 
ATOM      9  C   UNL     1      30.839 -23.068 -14.805  0.00  0.00    +0.001 C 
ATOM     10  H   UNL     1      35.263 -24.321 -16.342  0.00  0.00    +0.150 HD
ATOM     11  H   UNL     1      33.896 -24.980 -12.553  0.00  0.00    +0.150 HD
ENDROOT
BRANCH   5  13
ATOM     12  O   UNL     1      36.417 -26.930 -15.835  0.00  0.00    -0.226 OA
ATOM     13  N   UNL     1      36.171 -25.393 -14.074  0.00  0.00    -0.240 N 
ATOM     14  C   UNL     1      36.819 -26.380 -14.817  0.00  0.00    +0.404 C 
ATOM     15  H   UNL     1      36.647 -25.062 -13.277  0.00  0.00    +0.156 HD
BRANCH  14  16
ATOM     16  O   UNL     1      38.025 -26.670 -14.233  0.00  0.00    -0.431 OA
ATOM     17  C   UNL     1      38.517 -25.710 -13.292  0.00  0.00    +0.257 C 
ENDBRANCH  14  16
ENDBRANCH   5  13
TORSDOF 2
ENDMDL
MODEL 9
REMARK VINA RESULT:      -7.1      2.905      4.173
REMARK  Name = 25429
REMARK  2 active torsions:
REMARK  status: ('A' for Active; 'I' for Inactive)
REMARK    1  A    between atoms: N_4  and  C_7
REMARK    2  A    between atoms: C_12  and  O_16
REMARK                            x       y       z     vdW  Elec       q    Type
REMARK                         _______ _______ _______ _____ _____    ______ ____
ROOT
ATOM      1  N   UNL     1      34.317 -15.481 -24.308  0.00  0.00    -0.302 N 
ATOM      2  N   UNL     1      34.606 -15.539 -22.105  0.00  0.00    -0.302 N 
ATOM      3  C   UNL     1      34.532 -16.801 -24.001  0.00  0.00    +0.060 C 
ATOM      4  C   UNL     1      34.710 -16.810 -22.621  0.00  0.00    +0.060 C 
ATOM      5  C   UNL     1      34.370 -14.768 -23.143  0.00  0.00    +0.229 C 
ATOM      6  C   UNL     1      34.586 -17.951 -24.789  0.00  0.00    +0.016 C 
ATOM      7  C   UNL     1      34.957 -18.030 -21.971  0.00  0.00    +0.016 C 
ATOM      8  C   UNL     1      34.832 -19.157 -24.125  0.00  0.00    +0.001 C 
ATOM      9  C   UNL     1      35.015 -19.198 -22.741  0.00  0.00    +0.001 C 
ATOM     10  H   UNL     1      34.153 -15.114 -25.207  0.00  0.00    +0.150 HD
ATOM     11  H   UNL     1      34.690 -15.265 -21.163  0.00  0.00    +0.150 HD
ENDROOT
BRANCH   5  13
ATOM     12  O   UNL     1      33.430 -12.999 -25.341  0.00  0.00    -0.226 OA
ATOM     13  N   UNL     1      34.187 -13.409 -23.154  0.00  0.00    -0.240 N 
ATOM     14  C   UNL     1      33.742 -12.624 -24.218  0.00  0.00    +0.404 C 
ATOM     15  H   UNL     1      34.394 -12.935 -22.316  0.00  0.00    +0.156 HD
BRANCH  14  16
ATOM     16  O   UNL     1      33.695 -11.312 -23.825  0.00  0.00    -0.431 OA
ATOM     17  C   UNL     1      34.524 -10.403 -24.559  0.00  0.00    +0.257 C 
ENDBRANCH  14  16
ENDBRANCH   5  13
TORSDOF 2
ENDMDL
