MODEL 1
REMARK VINA RESULT:      -8.3      0.000      0.000
REMARK  Name = 444508
REMARK  11 active torsions:
REMARK  status: ('A' for Active; 'I' for Inactive)
REMARK    1  A    between atoms: C_1  and  N_8
REMARK    2  A    between atoms: C_2  and  N_23
REMARK    3  A    between atoms: C_6  and  C_20
REMARK    4  A    between atoms: C_9  and  C_13
REMARK    5  A    between atoms: C_9  and  C_16
REMARK    6  A    between atoms: C_13  and  O_14
REMARK    7  A    between atoms: C_16  and  O_17
REMARK    8  A    between atoms: C_20  and  O_21
REMARK    9  A    between atoms: N_23  and  C_25
REMARK   10  A    between atoms: C_25  and  C_26
REMARK   11  A    between atoms: C_25  and  C_28
REMARK                            x       y       z     vdW  Elec       q    Type
REMARK                         _______ _______ _______ _____ _____    ______ ____
ROOT
ATOM      1  C   UNL     1      34.592 -24.366 -14.490  0.00  0.00    +0.067 C 
ATOM      2  C   UNL     1      34.417 -23.614 -15.655  0.00  0.00    +0.059 C 
ATOM      3  C   UNL     1      33.496 -24.627 -13.664  0.00  0.00    +0.016 C 
ATOM      4  C   UNL     1      33.153 -23.127 -15.992  0.00  0.00    +0.022 C 
ATOM      5  C   UNL     1      32.233 -24.141 -14.001  0.00  0.00    +0.008 C 
ATOM      6  C   UNL     1      32.061 -23.391 -15.164  0.00  0.00    +0.077 C 
ENDROOT
BRANCH   1   8
ATOM      7  O   UNL     1      36.128 -26.596 -15.765  0.00  0.00    -0.275 OA
ATOM      8  N   UNL     1      35.880 -24.876 -14.123  0.00  0.00    -0.256 N 
ATOM      9  C   UNL     1      36.666 -24.455 -12.952  0.00  0.00    +0.119 C 
ATOM     10  C   UNL     1      38.080 -24.924 -13.349  0.00  0.00    +0.033 C 
ATOM     11  C   UNL     1      37.845 -26.192 -14.143  0.00  0.00    +0.087 C 
ATOM     12  C   UNL     1      36.526 -25.926 -14.821  0.00  0.00    +0.229 C 
BRANCH   9  13
ATOM     13  C   UNL     1      36.237 -25.189 -11.668  0.00  0.00    +0.158 C 
BRANCH  13  14
ATOM     14  O   UNL     1      36.444 -24.318 -10.575  0.00  0.00    -0.380 OA
ATOM     15  H   UNL     1      35.595 -23.941 -10.297  0.00  0.00    +0.211 HD
ENDBRANCH  13  14
ENDBRANCH   9  13
BRANCH   9  16
ATOM     16  C   UNL     1      36.739 -22.936 -12.722  0.00  0.00    +0.158 C 
BRANCH  16  17
ATOM     17  O   UNL     1      37.973 -22.641 -12.100  0.00  0.00    -0.380 OA
ATOM     18  H   UNL     1      38.356 -21.844 -12.502  0.00  0.00    +0.211 HD
ENDBRANCH  16  17
ENDBRANCH   9  16
ENDBRANCH   1   8
BRANCH   6  20
ATOM     19  O   UNL     1      29.821 -22.677 -14.720  0.00  0.00    -0.245 OA
ATOM     20  C   UNL     1      30.743 -22.885 -15.515  0.00  0.00    +0.338 C 
BRANCH  20  21
ATOM     21  O   UNL     1      30.614 -22.654 -16.851  0.00  0.00    -0.477 OA
ATOM     22  H   UNL     1      30.601 -23.372 -17.452  0.00  0.00    +0.295 HD
ENDBRANCH  20  21
ENDBRANCH   6  20
BRANCH   2  23
ATOM     23  N   UNL     1      35.509 -23.337 -16.508  0.00  0.00    -0.333 N 
ATOM     24  H   UNL     1      36.139 -24.063 -16.717  0.00  0.00    +0.147 HD
BRANCH  23  25
ATOM     25  C   UNL     1      35.736 -22.047 -17.079  0.00  0.00    +0.069 C 
BRANCH  25  26
ATOM     26  C   UNL     1      35.437 -22.095 -18.585  0.00  0.00    +0.019 C 
ATOM     27  C   UNL     1      36.422 -21.275 -19.410  0.00  0.00    +0.002 C 
ENDBRANCH  25  26
BRANCH  25  28
ATOM     28  C   UNL     1      37.191 -21.623 -16.832  0.00  0.00    +0.019 C 
ATOM     29  C   UNL     1      38.016 -22.710 -16.154  0.00  0.00    +0.002 C 
ENDBRANCH  25  28
ENDBRANCH  23  25
ENDBRANCH   2  23
TORSDOF 11
ENDMDL
MODEL 2
REMARK VINA RESULT:      -8.2      2.130      4.897
REMARK  Name = 444508
REMARK  11 active torsions:
REMARK  status: ('A' for Active; 'I' for Inactive)
REMARK    1  A    between atoms: C_1  and  N_8
REMARK    2  A    between atoms: C_2  and  N_23
REMARK    3  A    between atoms: C_6  and  C_20
REMARK    4  A    between atoms: C_9  and  C_13
REMARK    5  A    between atoms: C_9  and  C_16
REMARK    6  A    between atoms: C_13  and  O_14
REMARK    7  A    between atoms: C_16  and  O_17
REMARK    8  A    between atoms: C_20  and  O_21
REMARK    9  A    between atoms: N_23  and  C_25
REMARK   10  A    between atoms: C_25  and  C_26
REMARK   11  A    between atoms: C_25  and  C_28
REMARK                            x       y       z     vdW  Elec       q    Type
REMARK                         _______ _______ _______ _____ _____    ______ ____
ROOT
ATOM      1  C   UNL     1      36.679 -23.539 -15.391  0.00  0.00    +0.067 C 
ATOM      2  C   UNL     1      35.395 -23.527 -15.943  0.00  0.00    +0.059 C 
ATOM      3  C   UNL     1      37.696 -22.791 -15.989  0.00  0.00    +0.016 C 
ATOM      4  C   UNL     1      35.131 -22.771 -17.086  0.00  0.00    +0.022 C 
ATOM      5  C   UNL     1      37.431 -22.034 -17.130  0.00  0.00    +0.008 C 
ATOM      6  C   UNL     1      36.149 -22.024 -17.679  0.00  0.00    +0.077 C 
ENDROOT
BRANCH   1   8
ATOM      7  O   UNL     1      36.257 -22.780 -12.527  0.00  0.00    -0.275 OA
ATOM      8  N   UNL     1      36.975 -24.308 -14.219  0.00  0.00    -0.256 N 
ATOM      9  C   UNL     1      37.657 -25.613 -14.200  0.00  0.00    +0.119 C 
ATOM     10  C   UNL     1      37.243 -26.154 -12.817  0.00  0.00    +0.033 C 
ATOM     11  C   UNL     1      37.159 -24.921 -11.941  0.00  0.00    +0.087 C 
ATOM     12  C   UNL     1      36.706 -23.854 -12.904  0.00  0.00    +0.229 C 
BRANCH   9  13
ATOM     13  C   UNL     1      39.190 -25.468 -14.242  0.00  0.00    +0.158 C 
BRANCH  13  14
ATOM     14  O   UNL     1      39.634 -25.876 -15.520  0.00  0.00    -0.380 OA
ATOM     15  H   UNL     1      40.503 -26.298 -15.440  0.00  0.00    +0.211 HD
ENDBRANCH  13  14
ENDBRANCH   9  13
BRANCH   9  16
ATOM     16  C   UNL     1      37.169 -26.625 -15.249  0.00  0.00    +0.158 C 
BRANCH  16  17
ATOM     17  O   UNL     1      35.812 -26.916 -14.987  0.00  0.00    -0.380 OA
ATOM     18  H   UNL     1      35.679 -27.007 -14.030  0.00  0.00    +0.211 HD
ENDBRANCH  16  17
ENDBRANCH   9  16
ENDBRANCH   1   8
BRANCH   6  20
ATOM     19  O   UNL     1      36.652 -20.428 -19.389  0.00  0.00    -0.245 OA
ATOM     20  C   UNL     1      35.874 -21.234 -18.869  0.00  0.00    +0.338 C 
BRANCH  20  21
ATOM     21  O   UNL     1      34.633 -21.474 -19.376  0.00  0.00    -0.477 OA
ATOM     22  H   UNL     1      34.085 -20.759 -19.630  0.00  0.00    +0.295 HD
ENDBRANCH  20  21
ENDBRANCH   6  20
BRANCH   2  23
ATOM     23  N   UNL     1      34.349 -24.275 -15.358  0.00  0.00    -0.333 N 
ATOM     24  H   UNL     1      34.475 -25.242 -15.232  0.00  0.00    +0.147 HD
BRANCH  23  25
ATOM     25  C   UNL     1      33.116 -23.686 -14.940  0.00  0.00    +0.069 C 
BRANCH  25  26
ATOM     26  C   UNL     1      32.737 -24.223 -13.552  0.00  0.00    +0.019 C 
ATOM     27  C   UNL     1      31.433 -25.012 -13.559  0.00  0.00    +0.002 C 
ENDBRANCH  25  26
BRANCH  25  28
ATOM     28  C   UNL     1      32.017 -24.010 -15.962  0.00  0.00    +0.019 C 
ATOM     29  C   UNL     1      31.389 -22.762 -16.569  0.00  0.00    +0.002 C 
ENDBRANCH  25  28
ENDBRANCH  23  25
ENDBRANCH   2  23
TORSDOF 11
ENDMDL
MODEL 3
REMARK VINA RESULT:      -7.5      2.008      4.251
REMARK  Name = 444508
REMARK  11 active torsions:
REMARK  status: ('A' for Active; 'I' for Inactive)
REMARK    1  A    between atoms: C_1  and  N_8
REMARK    2  A    between atoms: C_2  and  N_23
REMARK    3  A    between atoms: C_6  and  C_20
REMARK    4  A    between atoms: C_9  and  C_13
REMARK    5  A    between atoms: C_9  and  C_16
REMARK    6  A    between atoms: C_13  and  O_14
REMARK    7  A    between atoms: C_16  and  O_17
REMARK    8  A    between atoms: C_20  and  O_21
REMARK    9  A    between atoms: N_23  and  C_25
REMARK   10  A    between atoms: C_25  and  C_26
REMARK   11  A    between atoms: C_25  and  C_28
REMARK                            x       y       z     vdW  Elec       q    Type
REMARK                         _______ _______ _______ _____ _____    ______ ____
ROOT
ATOM      1  C   UNL     1      36.558 -23.762 -15.151  0.00  0.00    +0.067 C 
ATOM      2  C   UNL     1      35.278 -23.669 -15.705  0.00  0.00    +0.059 C 
ATOM      3  C   UNL     1      37.616 -23.056 -15.732  0.00  0.00    +0.016 C 
ATOM      4  C   UNL     1      35.058 -22.874 -16.832  0.00  0.00    +0.022 C 
ATOM      5  C   UNL     1      37.395 -22.262 -16.857  0.00  0.00    +0.008 C 
ATOM      6  C   UNL     1      36.116 -22.171 -17.407  0.00  0.00    +0.077 C 
ENDROOT
BRANCH   1   8
ATOM      7  O   UNL     1      37.085 -26.706 -15.035  0.00  0.00    -0.275 OA
ATOM      8  N   UNL     1      36.810 -24.571 -13.996  0.00  0.00    -0.256 N 
ATOM      9  C   UNL     1      36.753 -24.110 -12.599  0.00  0.00    +0.119 C 
ATOM     10  C   UNL     1      37.577 -25.199 -11.884  0.00  0.00    +0.033 C 
ATOM     11  C   UNL     1      37.277 -26.465 -12.659  0.00  0.00    +0.087 C 
ATOM     12  C   UNL     1      37.075 -25.960 -14.064  0.00  0.00    +0.229 C 
BRANCH   9  13
ATOM     13  C   UNL     1      35.318 -24.121 -12.040  0.00  0.00    +0.158 C 
BRANCH  13  14
ATOM     14  O   UNL     1      35.345 -24.749 -10.775  0.00  0.00    -0.380 OA
ATOM     15  H   UNL     1      34.605 -24.425 -10.238  0.00  0.00    +0.211 HD
ENDBRANCH  13  14
ENDBRANCH   9  13
BRANCH   9  16
ATOM     16  C   UNL     1      37.442 -22.764 -12.323  0.00  0.00    +0.158 C 
BRANCH  16  17
ATOM     17  O   UNL     1      38.640 -23.015 -11.617  0.00  0.00    -0.380 OA
ATOM     18  H   UNL     1      39.327 -23.307 -12.238  0.00  0.00    +0.211 HD
ENDBRANCH  16  17
ENDBRANCH   9  16
ENDBRANCH   1   8
BRANCH   6  20
ATOM     19  O   UNL     1      36.661 -20.482 -19.011  0.00  0.00    -0.245 OA
ATOM     20  C   UNL     1      35.887 -21.342 -18.580  0.00  0.00    +0.338 C 
BRANCH  20  21
ATOM     21  O   UNL     1      34.695 -21.610 -19.181  0.00  0.00    -0.477 OA
ATOM     22  H   UNL     1      34.028 -22.073 -18.713  0.00  0.00    +0.295 HD
ENDBRANCH  20  21
ENDBRANCH   6  20
BRANCH   2  23
ATOM     23  N   UNL     1      34.192 -24.372 -15.137  0.00  0.00    -0.333 N 
ATOM     24  H   UNL     1      34.318 -25.316 -14.894  0.00  0.00    +0.147 HD
BRANCH  23  25
ATOM     25  C   UNL     1      32.918 -23.769 -14.901  0.00  0.00    +0.069 C 
BRANCH  25  26
ATOM     26  C   UNL     1      32.300 -24.362 -13.627  0.00  0.00    +0.019 C 
ATOM     27  C   UNL     1      30.969 -25.060 -13.886  0.00  0.00    +0.002 C 
ENDBRANCH  25  26
BRANCH  25  28
ATOM     28  C   UNL     1      32.001 -24.011 -16.110  0.00  0.00    +0.019 C 
ATOM     29  C   UNL     1      31.381 -22.727 -16.646  0.00  0.00    +0.002 C 
ENDBRANCH  25  28
ENDBRANCH  23  25
ENDBRANCH   2  23
TORSDOF 11
ENDMDL
MODEL 4
REMARK VINA RESULT:      -7.0      2.073      4.611
REMARK  Name = 444508
REMARK  11 active torsions:
REMARK  status: ('A' for Active; 'I' for Inactive)
REMARK    1  A    between atoms: C_1  and  N_8
REMARK    2  A    between atoms: C_2  and  N_23
REMARK    3  A    between atoms: C_6  and  C_20
REMARK    4  A    between atoms: C_9  and  C_13
REMARK    5  A    between atoms: C_9  and  C_16
REMARK    6  A    between atoms: C_13  and  O_14
REMARK    7  A    between atoms: C_16  and  O_17
REMARK    8  A    between atoms: C_20  and  O_21
REMARK    9  A    between atoms: N_23  and  C_25
REMARK   10  A    between atoms: C_25  and  C_26
REMARK   11  A    between atoms: C_25  and  C_28
REMARK                            x       y       z     vdW  Elec       q    Type
REMARK                         _______ _______ _______ _____ _____    ______ ____
ROOT
ATOM      1  C   UNL     1      35.277 -23.641 -15.366  0.00  0.00    +0.067 C 
ATOM      2  C   UNL     1      33.946 -23.766 -15.771  0.00  0.00    +0.059 C 
ATOM      3  C   UNL     1      36.186 -22.955 -16.176  0.00  0.00    +0.016 C 
ATOM      4  C   UNL     1      33.525 -23.206 -16.978  0.00  0.00    +0.022 C 
ATOM      5  C   UNL     1      35.764 -22.395 -17.382  0.00  0.00    +0.008 C 
ATOM      6  C   UNL     1      34.434 -22.521 -17.784  0.00  0.00    +0.077 C 
ENDROOT
BRANCH   1   8
ATOM      7  O   UNL     1      34.088 -23.328 -12.637  0.00  0.00    -0.275 OA
ATOM      8  N   UNL     1      35.734 -24.208 -14.131  0.00  0.00    -0.256 N 
ATOM      9  C   UNL     1      36.968 -24.990 -13.952  0.00  0.00    +0.119 C 
ATOM     10  C   UNL     1      36.673 -25.727 -12.630  0.00  0.00    +0.033 C 
ATOM     11  C   UNL     1      35.843 -24.745 -11.830  0.00  0.00    +0.087 C 
ATOM     12  C   UNL     1      35.070 -24.011 -12.895  0.00  0.00    +0.229 C 
BRANCH   9  13
ATOM     13  C   UNL     1      38.203 -24.090 -13.758  0.00  0.00    +0.158 C 
BRANCH  13  14
ATOM     14  O   UNL     1      39.141 -24.796 -12.973  0.00  0.00    -0.380 OA
ATOM     15  H   UNL     1      39.436 -24.234 -12.239  0.00  0.00    +0.211 HD
ENDBRANCH  13  14
ENDBRANCH   9  13
BRANCH   9  16
ATOM     16  C   UNL     1      37.229 -26.061 -15.023  0.00  0.00    +0.158 C 
BRANCH  16  17
ATOM     17  O   UNL     1      38.573 -25.952 -15.443  0.00  0.00    -0.380 OA
ATOM     18  H   UNL     1      38.934 -26.837 -15.611  0.00  0.00    +0.211 HD
ENDBRANCH  16  17
ENDBRANCH   9  16
ENDBRANCH   1   8
BRANCH   6  20
ATOM     19  O   UNL     1      32.884 -22.094 -19.555  0.00  0.00    -0.245 OA
ATOM     20  C   UNL     1      33.996 -21.936 -19.041  0.00  0.00    +0.338 C 
BRANCH  20  21
ATOM     21  O   UNL     1      34.959 -21.168 -19.621  0.00  0.00    -0.477 OA
ATOM     22  H   UNL     1      35.187 -21.302 -20.520  0.00  0.00    +0.295 HD
ENDBRANCH  20  21
ENDBRANCH   6  20
BRANCH   2  23
ATOM     23  N   UNL     1      33.008 -24.455 -14.970  0.00  0.00    -0.333 N 
ATOM     24  H   UNL     1      33.338 -25.122 -14.327  0.00  0.00    +0.147 HD
BRANCH  23  25
ATOM     25  C   UNL     1      31.600 -24.224 -15.054  0.00  0.00    +0.069 C 
BRANCH  25  26
ATOM     26  C   UNL     1      31.291 -22.788 -14.605  0.00  0.00    +0.019 C 
ATOM     27  C   UNL     1      29.894 -22.331 -15.009  0.00  0.00    +0.002 C 
ENDBRANCH  25  26
BRANCH  25  28
ATOM     28  C   UNL     1      30.857 -25.237 -14.171  0.00  0.00    +0.019 C 
ATOM     29  C   UNL     1      29.568 -25.741 -14.807  0.00  0.00    +0.002 C 
ENDBRANCH  25  28
ENDBRANCH  23  25
ENDBRANCH   2  23
TORSDOF 11
ENDMDL
MODEL 5
REMARK VINA RESULT:      -6.8     13.383     16.591
REMARK  Name = 444508
REMARK  11 active torsions:
REMARK  status: ('A' for Active; 'I' for Inactive)
REMARK    1  A    between atoms: C_1  and  N_8
REMARK    2  A    between atoms: C_2  and  N_23
REMARK    3  A    between atoms: C_6  and  C_20
REMARK    4  A    between atoms: C_9  and  C_13
REMARK    5  A    between atoms: C_9  and  C_16
REMARK    6  A    between atoms: C_13  and  O_14
REMARK    7  A    between atoms: C_16  and  O_17
REMARK    8  A    between atoms: C_20  and  O_21
REMARK    9  A    between atoms: N_23  and  C_25
REMARK   10  A    between atoms: C_25  and  C_26
REMARK   11  A    between atoms: C_25  and  C_28
REMARK                            x       y       z     vdW  Elec       q    Type
REMARK                         _______ _______ _______ _____ _____    ______ ____
ROOT
ATOM      1  C   UNL     1      31.961 -10.133 -22.276  0.00  0.00    +0.067 C 
ATOM      2  C   UNL     1      32.817 -10.589 -23.282  0.00  0.00    +0.059 C 
ATOM      3  C   UNL     1      31.335 -11.053 -21.430  0.00  0.00    +0.016 C 
ATOM      4  C   UNL     1      33.046 -11.957 -23.441  0.00  0.00    +0.022 C 
ATOM      5  C   UNL     1      31.565 -12.419 -21.589  0.00  0.00    +0.008 C 
ATOM      6  C   UNL     1      32.419 -12.872 -22.594  0.00  0.00    +0.077 C 
ENDROOT
BRANCH   1   8
ATOM      7  O   UNL     1      30.989  -8.150 -24.297  0.00  0.00    -0.275 OA
ATOM      8  N   UNL     1      31.710  -8.734 -22.093  0.00  0.00    -0.256 N 
ATOM      9  C   UNL     1      31.989  -7.966 -20.868  0.00  0.00    +0.119 C 
ATOM     10  C   UNL     1      31.084  -6.734 -21.067  0.00  0.00    +0.033 C 
ATOM     11  C   UNL     1      31.094  -6.499 -22.563  0.00  0.00    +0.087 C 
ATOM     12  C   UNL     1      31.222  -7.893 -23.123  0.00  0.00    +0.229 C 
BRANCH   9  13
ATOM     13  C   UNL     1      33.456  -7.503 -20.793  0.00  0.00    +0.158 C 
BRANCH  13  14
ATOM     14  O   UNL     1      33.672  -6.934 -19.519  0.00  0.00    -0.380 OA
ATOM     15  H   UNL     1      33.411  -6.000 -19.533  0.00  0.00    +0.211 HD
ENDBRANCH  13  14
ENDBRANCH   9  13
BRANCH   9  16
ATOM     16  C   UNL     1      31.556  -8.642 -19.557  0.00  0.00    +0.158 C 
BRANCH  16  17
ATOM     17  O   UNL     1      32.645  -9.397 -19.066  0.00  0.00    -0.380 OA
ATOM     18  H   UNL     1      32.564  -9.493 -18.103  0.00  0.00    +0.211 HD
ENDBRANCH  16  17
ENDBRANCH   9  16
ENDBRANCH   1   8
BRANCH   6  20
ATOM     19  O   UNL     1      33.196 -14.824 -23.736  0.00  0.00    -0.245 OA
ATOM     20  C   UNL     1      32.659 -14.297 -22.758  0.00  0.00    +0.338 C 
BRANCH  20  21
ATOM     21  O   UNL     1      32.220 -15.023 -21.693  0.00  0.00    -0.477 OA
ATOM     22  H   UNL     1      31.981 -14.592 -20.897  0.00  0.00    +0.295 HD
ENDBRANCH  20  21
ENDBRANCH   6  20
BRANCH   2  23
ATOM     23  N   UNL     1      33.462  -9.680 -24.150  0.00  0.00    -0.333 N 
ATOM     24  H   UNL     1      32.941  -9.275 -24.880  0.00  0.00    +0.147 HD
BRANCH  23  25
ATOM     25  C   UNL     1      34.839  -9.324 -24.013  0.00  0.00    +0.069 C 
BRANCH  25  26
ATOM     26  C   UNL     1      34.947  -7.841 -23.629  0.00  0.00    +0.019 C 
ATOM     27  C   UNL     1      34.390  -6.911 -24.701  0.00  0.00    +0.002 C 
ENDBRANCH  25  26
BRANCH  25  28
ATOM     28  C   UNL     1      35.575  -9.594 -25.334  0.00  0.00    +0.019 C 
ATOM     29  C   UNL     1      35.061 -10.835 -26.052  0.00  0.00    +0.002 C 
ENDBRANCH  25  28
ENDBRANCH  23  25
ENDBRANCH   2  23
TORSDOF 11
ENDMDL
MODEL 6
REMARK VINA RESULT:      -6.5     13.184     16.529
REMARK  Name = 444508
REMARK  11 active torsions:
REMARK  status: ('A' for Active; 'I' for Inactive)
REMARK    1  A    between atoms: C_1  and  N_8
REMARK    2  A    between atoms: C_2  and  N_23
REMARK    3  A    between atoms: C_6  and  C_20
REMARK    4  A    between atoms: C_9  and  C_13
REMARK    5  A    between atoms: C_9  and  C_16
REMARK    6  A    between atoms: C_13  and  O_14
REMARK    7  A    between atoms: C_16  and  O_17
REMARK    8  A    between atoms: C_20  and  O_21
REMARK    9  A    between atoms: N_23  and  C_25
REMARK   10  A    between atoms: C_25  and  C_26
REMARK   11  A    between atoms: C_25  and  C_28
REMARK                            x       y       z     vdW  Elec       q    Type
REMARK                         _______ _______ _______ _____ _____    ______ ____
ROOT
ATOM      1  C   UNL     1      31.992  -9.971 -22.163  0.00  0.00    +0.067 C 
ATOM      2  C   UNL     1      32.626 -10.880 -23.014  0.00  0.00    +0.059 C 
ATOM      3  C   UNL     1      31.465 -10.415 -20.946  0.00  0.00    +0.016 C 
ATOM      4  C   UNL     1      32.734 -12.223 -22.650  0.00  0.00    +0.022 C 
ATOM      5  C   UNL     1      31.575 -11.757 -20.583  0.00  0.00    +0.008 C 
ATOM      6  C   UNL     1      32.208 -12.661 -21.435  0.00  0.00    +0.077 C 
ENDROOT
BRANCH   1   8
ATOM      7  O   UNL     1      29.826  -8.656 -23.756  0.00  0.00    -0.275 OA
ATOM      8  N   UNL     1      31.867  -8.587 -22.514  0.00  0.00    -0.256 N 
ATOM      9  C   UNL     1      32.864  -7.540 -22.235  0.00  0.00    +0.119 C 
ATOM     10  C   UNL     1      32.008  -6.264 -22.355  0.00  0.00    +0.033 C 
ATOM     11  C   UNL     1      30.998  -6.590 -23.435  0.00  0.00    +0.087 C 
ATOM     12  C   UNL     1      30.777  -8.070 -23.255  0.00  0.00    +0.229 C 
BRANCH   9  13
ATOM     13  C   UNL     1      33.977  -7.498 -23.299  0.00  0.00    +0.158 C 
BRANCH  13  14
ATOM     14  O   UNL     1      35.208  -7.755 -22.657  0.00  0.00    -0.380 OA
ATOM     15  H   UNL     1      35.701  -6.926 -22.560  0.00  0.00    +0.211 HD
ENDBRANCH  13  14
ENDBRANCH   9  13
BRANCH   9  16
ATOM     16  C   UNL     1      33.457  -7.558 -20.817  0.00  0.00    +0.158 C 
BRANCH  16  17
ATOM     17  O   UNL     1      32.433  -7.222 -19.903  0.00  0.00    -0.380 OA
ATOM     18  H   UNL     1      32.177  -8.011 -19.399  0.00  0.00    +0.211 HD
ENDBRANCH  16  17
ENDBRANCH   9  16
ENDBRANCH   1   8
BRANCH   6  20
ATOM     19  O   UNL     1      32.430 -14.481 -19.898  0.00  0.00    -0.245 OA
ATOM     20  C   UNL     1      32.323 -14.060 -21.055  0.00  0.00    +0.338 C 
BRANCH  20  21
ATOM     21  O   UNL     1      32.300 -14.895 -22.130  0.00  0.00    -0.477 OA
ATOM     22  H   UNL     1      32.292 -15.823 -22.003  0.00  0.00    +0.295 HD
ENDBRANCH  20  21
ENDBRANCH   6  20
BRANCH   2  23
ATOM     23  N   UNL     1      33.166 -10.457 -24.249  0.00  0.00    -0.333 N 
ATOM     24  H   UNL     1      32.812  -9.638 -24.663  0.00  0.00    +0.147 HD
BRANCH  23  25
ATOM     25  C   UNL     1      34.206 -11.169 -24.923  0.00  0.00    +0.069 C 
BRANCH  25  26
ATOM     26  C   UNL     1      35.334 -10.194 -25.295  0.00  0.00    +0.019 C 
ATOM     27  C   UNL     1      35.871 -10.422 -26.703  0.00  0.00    +0.002 C 
ENDBRANCH  25  26
BRANCH  25  28
ATOM     28  C   UNL     1      33.639 -11.843 -26.181  0.00  0.00    +0.019 C 
ATOM     29  C   UNL     1      33.370 -13.329 -25.984  0.00  0.00    +0.002 C 
ENDBRANCH  25  28
ENDBRANCH  23  25
ENDBRANCH   2  23
TORSDOF 11
ENDMDL
MODEL 7
REMARK VINA RESULT:      -6.3     14.177     17.545
REMARK  Name = 444508
REMARK  11 active torsions:
REMARK  status: ('A' for Active; 'I' for Inactive)
REMARK    1  A    between atoms: C_1  and  N_8
REMARK    2  A    between atoms: C_2  and  N_23
REMARK    3  A    between atoms: C_6  and  C_20
REMARK    4  A    between atoms: C_9  and  C_13
REMARK    5  A    between atoms: C_9  and  C_16
REMARK    6  A    between atoms: C_13  and  O_14
REMARK    7  A    between atoms: C_16  and  O_17
REMARK    8  A    between atoms: C_20  and  O_21
REMARK    9  A    between atoms: N_23  and  C_25
REMARK   10  A    between atoms: C_25  and  C_26
REMARK   11  A    between atoms: C_25  and  C_28
REMARK                            x       y       z     vdW  Elec       q    Type
REMARK                         _______ _______ _______ _____ _____    ______ ____
ROOT
ATOM      1  C   UNL     1      32.623  -8.351 -22.195  0.00  0.00    +0.067 C 
ATOM      2  C   UNL     1      32.519  -9.710 -22.505  0.00  0.00    +0.059 C 
ATOM      3  C   UNL     1      32.373  -7.919 -20.889  0.00  0.00    +0.016 C 
ATOM      4  C   UNL     1      32.168 -10.630 -21.516  0.00  0.00    +0.022 C 
ATOM      5  C   UNL     1      32.023  -8.839 -19.901  0.00  0.00    +0.008 C 
ATOM      6  C   UNL     1      31.920 -10.194 -20.214  0.00  0.00    +0.077 C 
ENDROOT
BRANCH   1   8
ATOM      7  O   UNL     1      35.253  -8.018 -23.583  0.00  0.00    -0.275 OA
ATOM      8  N   UNL     1      32.981  -7.387 -23.192  0.00  0.00    -0.256 N 
ATOM      9  C   UNL     1      32.128  -6.282 -23.661  0.00  0.00    +0.119 C 
ATOM     10  C   UNL     1      32.788  -5.939 -25.012  0.00  0.00    +0.033 C 
ATOM     11  C   UNL     1      34.263  -6.197 -24.785  0.00  0.00    +0.087 C 
ATOM     12  C   UNL     1      34.258  -7.341 -23.803  0.00  0.00    +0.229 C 
BRANCH   9  13
ATOM     13  C   UNL     1      32.210  -5.053 -22.738  0.00  0.00    +0.158 C 
BRANCH  13  14
ATOM     14  O   UNL     1      30.964  -4.909 -22.086  0.00  0.00    -0.380 OA
ATOM     15  H   UNL     1      30.824  -5.659 -21.488  0.00  0.00    +0.211 HD
ENDBRANCH  13  14
ENDBRANCH   9  13
BRANCH   9  16
ATOM     16  C   UNL     1      30.666  -6.658 -23.951  0.00  0.00    +0.158 C 
BRANCH  16  17
ATOM     17  O   UNL     1      30.656  -7.850 -24.710  0.00  0.00    -0.380 OA
ATOM     18  H   UNL     1      29.854  -8.357 -24.507  0.00  0.00    +0.211 HD
ENDBRANCH  16  17
ENDBRANCH   9  16
ENDBRANCH   1   8
BRANCH   6  20
ATOM     19  O   UNL     1      31.112 -10.869 -18.066  0.00  0.00    -0.245 OA
ATOM     20  C   UNL     1      31.556 -11.153 -19.183  0.00  0.00    +0.338 C 
BRANCH  20  21
ATOM     21  O   UNL     1      31.758 -12.441 -19.576  0.00  0.00    -0.477 OA
ATOM     22  H   UNL     1      32.058 -12.625 -20.444  0.00  0.00    +0.295 HD
ENDBRANCH  20  21
ENDBRANCH   6  20
BRANCH   2  23
ATOM     23  N   UNL     1      32.766 -10.172 -23.817  0.00  0.00    -0.333 N 
ATOM     24  H   UNL     1      32.276  -9.758 -24.563  0.00  0.00    +0.147 HD
BRANCH  23  25
ATOM     25  C   UNL     1      33.697 -11.217 -24.107  0.00  0.00    +0.069 C 
BRANCH  25  26
ATOM     26  C   UNL     1      34.122 -11.128 -25.580  0.00  0.00    +0.019 C 
ATOM     27  C   UNL     1      35.451 -10.405 -25.769  0.00  0.00    +0.002 C 
ENDBRANCH  25  26
BRANCH  25  28
ATOM     28  C   UNL     1      33.053 -12.579 -23.813  0.00  0.00    +0.019 C 
ATOM     29  C   UNL     1      34.048 -13.599 -23.276  0.00  0.00    +0.002 C 
ENDBRANCH  25  28
ENDBRANCH  23  25
ENDBRANCH   2  23
TORSDOF 11
ENDMDL
MODEL 8
REMARK VINA RESULT:      -6.1      9.881     12.855
REMARK  Name = 444508
REMARK  11 active torsions:
REMARK  status: ('A' for Active; 'I' for Inactive)
REMARK    1  A    between atoms: C_1  and  N_8
REMARK    2  A    between atoms: C_2  and  N_23
REMARK    3  A    between atoms: C_6  and  C_20
REMARK    4  A    between atoms: C_9  and  C_13
REMARK    5  A    between atoms: C_9  and  C_16
REMARK    6  A    between atoms: C_13  and  O_14
REMARK    7  A    between atoms: C_16  and  O_17
REMARK    8  A    between atoms: C_20  and  O_21
REMARK    9  A    between atoms: N_23  and  C_25
REMARK   10  A    between atoms: C_25  and  C_26
REMARK   11  A    between atoms: C_25  and  C_28
REMARK                            x       y       z     vdW  Elec       q    Type
REMARK                         _______ _______ _______ _____ _____    ______ ____
ROOT
ATOM      1  C   UNL     1      33.284 -14.955 -22.722  0.00  0.00    +0.067 C 
ATOM      2  C   UNL     1      33.338 -13.645 -23.203  0.00  0.00    +0.059 C 
ATOM      3  C   UNL     1      32.610 -15.226 -21.527  0.00  0.00    +0.016 C 
ATOM      4  C   UNL     1      32.722 -12.611 -22.495  0.00  0.00    +0.022 C 
ATOM      5  C   UNL     1      31.994 -14.193 -20.821  0.00  0.00    +0.008 C 
ATOM      6  C   UNL     1      32.050 -12.886 -21.304  0.00  0.00    +0.077 C 
ENDROOT
BRANCH   1   8
ATOM      7  O   UNL     1      33.061 -15.631 -25.629  0.00  0.00    -0.275 OA
ATOM      8  N   UNL     1      33.908 -16.033 -23.430  0.00  0.00    -0.256 N 
ATOM      9  C   UNL     1      34.719 -17.101 -22.823  0.00  0.00    +0.119 C 
ATOM     10  C   UNL     1      35.505 -17.620 -24.043  0.00  0.00    +0.033 C 
ATOM     11  C   UNL     1      34.543 -17.465 -25.203  0.00  0.00    +0.087 C 
ATOM     12  C   UNL     1      33.751 -16.240 -24.822  0.00  0.00    +0.229 C 
BRANCH   9  13
ATOM     13  C   UNL     1      33.850 -18.244 -22.264  0.00  0.00    +0.158 C 
BRANCH  13  14
ATOM     14  O   UNL     1      34.627 -19.424 -22.261  0.00  0.00    -0.380 OA
ATOM     15  H   UNL     1      35.324 -19.354 -22.932  0.00  0.00    +0.211 HD
ENDBRANCH  13  14
ENDBRANCH   9  13
BRANCH   9  16
ATOM     16  C   UNL     1      35.750 -16.634 -21.783  0.00  0.00    +0.158 C 
BRANCH  16  17
ATOM     17  O   UNL     1      35.371 -17.143 -20.521  0.00  0.00    -0.380 OA
ATOM     18  H   UNL     1      34.571 -17.684 -20.617  0.00  0.00    +0.211 HD
ENDBRANCH  16  17
ENDBRANCH   9  16
ENDBRANCH   1   8
BRANCH   6  20
ATOM     19  O   UNL     1      31.815 -11.325 -19.507  0.00  0.00    -0.245 OA
ATOM     20  C   UNL     1      31.407 -11.810 -20.567  0.00  0.00    +0.338 C 
BRANCH  20  21
ATOM     21  O   UNL     1      30.271 -11.371 -21.174  0.00  0.00    -0.477 OA
ATOM     22  H   UNL     1      30.154 -11.495 -22.095  0.00  0.00    +0.295 HD
ENDBRANCH  20  21
ENDBRANCH   6  20
BRANCH   2  23
ATOM     23  N   UNL     1      34.013 -13.344 -24.408  0.00  0.00    -0.333 N 
ATOM     24  H   UNL     1      34.718 -13.956 -24.717  0.00  0.00    +0.147 HD
BRANCH  23  25
ATOM     25  C   UNL     1      33.713 -12.190 -25.196  0.00  0.00    +0.069 C 
BRANCH  25  26
ATOM     26  C   UNL     1      33.968 -12.503 -26.677  0.00  0.00    +0.019 C 
ATOM     27  C   UNL     1      32.723 -13.010 -27.397  0.00  0.00    +0.002 C 
ENDBRANCH  25  26
BRANCH  25  28
ATOM     28  C   UNL     1      34.584 -11.012 -24.736  0.00  0.00    +0.019 C 
ATOM     29  C   UNL     1      35.423 -10.423 -25.863  0.00  0.00    +0.002 C 
ENDBRANCH  25  28
ENDBRANCH  23  25
ENDBRANCH   2  23
TORSDOF 11
ENDMDL
MODEL 9
REMARK VINA RESULT:      -5.9     10.639     13.766
REMARK  Name = 444508
REMARK  11 active torsions:
REMARK  status: ('A' for Active; 'I' for Inactive)
REMARK    1  A    between atoms: C_1  and  N_8
REMARK    2  A    between atoms: C_2  and  N_23
REMARK    3  A    between atoms: C_6  and  C_20
REMARK    4  A    between atoms: C_9  and  C_13
REMARK    5  A    between atoms: C_9  and  C_16
REMARK    6  A    between atoms: C_13  and  O_14
REMARK    7  A    between atoms: C_16  and  O_17
REMARK    8  A    between atoms: C_20  and  O_21
REMARK    9  A    between atoms: N_23  and  C_25
REMARK   10  A    between atoms: C_25  and  C_26
REMARK   11  A    between atoms: C_25  and  C_28
REMARK                            x       y       z     vdW  Elec       q    Type
REMARK                         _______ _______ _______ _____ _____    ______ ____
ROOT
ATOM      1  C   UNL     1      32.977 -13.556 -22.543  0.00  0.00    +0.067 C 
ATOM      2  C   UNL     1      33.309 -12.260 -22.945  0.00  0.00    +0.059 C 
ATOM      3  C   UNL     1      32.098 -13.744 -21.473  0.00  0.00    +0.016 C 
ATOM      4  C   UNL     1      32.765 -11.159 -22.282  0.00  0.00    +0.022 C 
ATOM      5  C   UNL     1      31.554 -12.644 -20.811  0.00  0.00    +0.008 C 
ATOM      6  C   UNL     1      31.888 -11.351 -21.214  0.00  0.00    +0.077 C 
ENDROOT
BRANCH   1   8
ATOM      7  O   UNL     1      32.715 -14.319 -25.425  0.00  0.00    -0.275 OA
ATOM      8  N   UNL     1      33.522 -14.702 -23.208  0.00  0.00    -0.256 N 
ATOM      9  C   UNL     1      34.249 -15.805 -22.557  0.00  0.00    +0.119 C 
ATOM     10  C   UNL     1      34.998 -16.424 -23.753  0.00  0.00    +0.033 C 
ATOM     11  C   UNL     1      34.054 -16.242 -24.923  0.00  0.00    +0.087 C 
ATOM     12  C   UNL     1      33.354 -14.949 -24.593  0.00  0.00    +0.229 C 
BRANCH   9  13
ATOM     13  C   UNL     1      33.296 -16.859 -21.963  0.00  0.00    +0.158 C 
BRANCH  13  14
ATOM     14  O   UNL     1      34.067 -17.975 -21.570  0.00  0.00    -0.380 OA
ATOM     15  H   UNL     1      34.743 -18.153 -22.242  0.00  0.00    +0.211 HD
ENDBRANCH  13  14
ENDBRANCH   9  13
BRANCH   9  16
ATOM     16  C   UNL     1      35.309 -15.377 -21.529  0.00  0.00    +0.158 C 
BRANCH  16  17
ATOM     17  O   UNL     1      34.799 -15.629 -20.235  0.00  0.00    -0.380 OA
ATOM     18  H   UNL     1      34.766 -14.799 -19.733  0.00  0.00    +0.211 HD
ENDBRANCH  16  17
ENDBRANCH   9  16
ENDBRANCH   1   8
BRANCH   6  20
ATOM     19  O   UNL     1      30.650 -10.253 -19.487  0.00  0.00    -0.245 OA
ATOM     20  C   UNL     1      31.319 -10.204 -20.524  0.00  0.00    +0.338 C 
BRANCH  20  21
ATOM     21  O   UNL     1      31.604  -9.028 -21.148  0.00  0.00    -0.477 OA
ATOM     22  H   UNL     1      30.933  -8.573 -21.617  0.00  0.00    +0.295 HD
ENDBRANCH  20  21
ENDBRANCH   6  20
BRANCH   2  23
ATOM     23  N   UNL     1      34.195 -12.042 -24.025  0.00  0.00    -0.333 N 
ATOM     24  H   UNL     1      34.882 -12.720 -24.213  0.00  0.00    +0.147 HD
BRANCH  23  25
ATOM     25  C   UNL     1      34.134 -10.880 -24.854  0.00  0.00    +0.069 C 
BRANCH  25  26
ATOM     26  C   UNL     1      34.496 -11.262 -26.296  0.00  0.00    +0.019 C 
ATOM     27  C   UNL     1      35.766 -10.577 -26.788  0.00  0.00    +0.002 C 
ENDBRANCH  25  26
BRANCH  25  28
ATOM     28  C   UNL     1      35.101  -9.814 -24.319  0.00  0.00    +0.019 C 
ATOM     29  C   UNL     1      34.407  -8.498 -23.993  0.00  0.00    +0.002 C 
ENDBRANCH  25  28
ENDBRANCH  23  25
ENDBRANCH   2  23
TORSDOF 11
ENDMDL
