MODEL 1
REMARK VINA RESULT:      -6.7      0.000      0.000
REMARK  Name = 16741
REMARK  3 active torsions:
REMARK  status: ('A' for Active; 'I' for Inactive)
REMARK    1  A    between atoms: C_1  and  C_7
REMARK    2  A    between atoms: C_7  and  C_8
REMARK    3  A    between atoms: C_8  and  N_10
REMARK                            x       y       z     vdW  Elec       q    Type
REMARK                         _______ _______ _______ _____ _____    ______ ____
ROOT
ATOM      1  C   UNL     1      34.388 -19.827 -20.723  0.00  0.00    -0.020 C 
ATOM      2  C   UNL     1      35.666 -20.317 -20.456  0.00  0.00    -0.004 C 
ATOM      3  C   UNL     1      33.269 -20.464 -20.186  0.00  0.00    -0.004 C 
ATOM      4  C   UNL     1      35.826 -21.445 -19.651  0.00  0.00    -0.000 C 
ATOM      5  C   UNL     1      33.430 -21.592 -19.381  0.00  0.00    -0.000 C 
ATOM      6  C   UNL     1      34.709 -22.083 -19.114  0.00  0.00    -0.000 C 
ENDROOT
BRANCH   1   7
ATOM      7  C   UNL     1      34.216 -18.620 -21.583  0.00  0.00    +0.053 C 
BRANCH   7   8
ATOM      8  C   UNL     1      35.385 -17.632 -21.494  0.00  0.00    +0.141 C 
BRANCH   8  10
ATOM      9  S   UNL     1      34.636 -16.950 -24.996  0.00  0.00    +0.020 S 
ATOM     10  N   UNL     1      35.099 -16.452 -22.313  0.00  0.00    -0.222 NA
ATOM     11  C   UNL     1      34.904 -16.676 -23.449  0.00  0.00    +0.037 C 
ENDBRANCH   8  10
ENDBRANCH   7   8
ENDBRANCH   1   7
TORSDOF 3
ENDMDL
MODEL 2
REMARK VINA RESULT:      -6.7      1.639      1.829
REMARK  Name = 16741
REMARK  3 active torsions:
REMARK  status: ('A' for Active; 'I' for Inactive)
REMARK    1  A    between atoms: C_1  and  C_7
REMARK    2  A    between atoms: C_7  and  C_8
REMARK    3  A    between atoms: C_8  and  N_10
REMARK                            x       y       z     vdW  Elec       q    Type
REMARK                         _______ _______ _______ _____ _____    ______ ____
ROOT
ATOM      1  C   UNL     1      35.080 -19.604 -20.976  0.00  0.00    -0.020 C 
ATOM      2  C   UNL     1      35.704 -20.619 -20.254  0.00  0.00    -0.004 C 
ATOM      3  C   UNL     1      33.689 -19.500 -20.976  0.00  0.00    -0.004 C 
ATOM      4  C   UNL     1      34.938 -21.533 -19.530  0.00  0.00    -0.000 C 
ATOM      5  C   UNL     1      32.922 -20.414 -20.252  0.00  0.00    -0.000 C 
ATOM      6  C   UNL     1      33.547 -21.431 -19.530  0.00  0.00    -0.000 C 
ENDROOT
BRANCH   1   7
ATOM      7  C   UNL     1      35.900 -18.626 -21.749  0.00  0.00    +0.053 C 
BRANCH   7   8
ATOM      8  C   UNL     1      35.170 -18.035 -22.961  0.00  0.00    +0.141 C 
BRANCH   8  10
ATOM      9  S   UNL     1      34.244 -15.301 -20.734  0.00  0.00    +0.020 S 
ATOM     10  N   UNL     1      35.298 -16.576 -22.953  0.00  0.00    -0.222 NA
ATOM     11  C   UNL     1      34.848 -16.047 -22.006  0.00  0.00    +0.037 C 
ENDBRANCH   8  10
ENDBRANCH   7   8
ENDBRANCH   1   7
TORSDOF 3
ENDMDL
MODEL 3
REMARK VINA RESULT:      -6.7      1.659      2.236
REMARK  Name = 16741
REMARK  3 active torsions:
REMARK  status: ('A' for Active; 'I' for Inactive)
REMARK    1  A    between atoms: C_1  and  C_7
REMARK    2  A    between atoms: C_7  and  C_8
REMARK    3  A    between atoms: C_8  and  N_10
REMARK                            x       y       z     vdW  Elec       q    Type
REMARK                         _______ _______ _______ _____ _____    ______ ____
ROOT
ATOM      1  C   UNL     1      35.123 -19.614 -20.945  0.00  0.00    -0.020 C 
ATOM      2  C   UNL     1      33.731 -19.529 -20.933  0.00  0.00    -0.004 C 
ATOM      3  C   UNL     1      35.766 -20.625 -20.232  0.00  0.00    -0.004 C 
ATOM      4  C   UNL     1      32.981 -20.456 -20.207  0.00  0.00    -0.000 C 
ATOM      5  C   UNL     1      35.017 -21.552 -19.506  0.00  0.00    -0.000 C 
ATOM      6  C   UNL     1      33.625 -21.466 -19.493  0.00  0.00    -0.000 C 
ENDROOT
BRANCH   1   7
ATOM      7  C   UNL     1      35.923 -18.625 -21.722  0.00  0.00    +0.053 C 
BRANCH   7   8
ATOM      8  C   UNL     1      35.172 -18.033 -22.921  0.00  0.00    +0.141 C 
BRANCH   8  10
ATOM      9  S   UNL     1      34.267 -15.330 -20.649  0.00  0.00    +0.020 S 
ATOM     10  N   UNL     1      35.283 -16.573 -22.903  0.00  0.00    -0.222 NA
ATOM     11  C   UNL     1      34.849 -16.058 -21.942  0.00  0.00    +0.037 C 
ENDBRANCH   8  10
ENDBRANCH   7   8
ENDBRANCH   1   7
TORSDOF 3
ENDMDL
MODEL 4
REMARK VINA RESULT:      -6.3      4.618      6.104
REMARK  Name = 16741
REMARK  3 active torsions:
REMARK  status: ('A' for Active; 'I' for Inactive)
REMARK    1  A    between atoms: C_1  and  C_7
REMARK    2  A    between atoms: C_7  and  C_8
REMARK    3  A    between atoms: C_8  and  N_10
REMARK                            x       y       z     vdW  Elec       q    Type
REMARK                         _______ _______ _______ _____ _____    ______ ____
ROOT
ATOM      1  C   UNL     1      34.519 -21.245 -19.596  0.00  0.00    -0.020 C 
ATOM      2  C   UNL     1      35.575 -20.638 -20.277  0.00  0.00    -0.004 C 
ATOM      3  C   UNL     1      33.206 -20.847 -19.848  0.00  0.00    -0.004 C 
ATOM      4  C   UNL     1      35.318 -19.633 -21.209  0.00  0.00    -0.000 C 
ATOM      5  C   UNL     1      32.949 -19.842 -20.781  0.00  0.00    -0.000 C 
ATOM      6  C   UNL     1      34.005 -19.235 -21.461  0.00  0.00    -0.000 C 
ENDROOT
BRANCH   1   7
ATOM      7  C   UNL     1      34.794 -22.320 -18.600  0.00  0.00    +0.053 C 
BRANCH   7   8
ATOM      8  C   UNL     1      33.572 -23.190 -18.282  0.00  0.00    +0.141 C 
BRANCH   8  10
ATOM      9  S   UNL     1      30.732 -23.226 -15.997  0.00  0.00    +0.020 S 
ATOM     10  N   UNL     1      33.370 -23.247 -16.832  0.00  0.00    -0.222 NA
ATOM     11  C   UNL     1      32.247 -23.238 -16.491  0.00  0.00    +0.037 C 
ENDBRANCH   8  10
ENDBRANCH   7   8
ENDBRANCH   1   7
TORSDOF 3
ENDMDL
MODEL 5
REMARK VINA RESULT:      -6.3      4.470      5.989
REMARK  Name = 16741
REMARK  3 active torsions:
REMARK  status: ('A' for Active; 'I' for Inactive)
REMARK    1  A    between atoms: C_1  and  C_7
REMARK    2  A    between atoms: C_7  and  C_8
REMARK    3  A    between atoms: C_8  and  N_10
REMARK                            x       y       z     vdW  Elec       q    Type
REMARK                         _______ _______ _______ _____ _____    ______ ____
ROOT
ATOM      1  C   UNL     1      34.811 -21.104 -19.702  0.00  0.00    -0.020 C 
ATOM      2  C   UNL     1      33.434 -20.932 -19.841  0.00  0.00    -0.004 C 
ATOM      3  C   UNL     1      35.691 -20.344 -20.473  0.00  0.00    -0.004 C 
ATOM      4  C   UNL     1      32.936 -20.001 -20.752  0.00  0.00    -0.000 C 
ATOM      5  C   UNL     1      35.192 -19.413 -21.384  0.00  0.00    -0.000 C 
ATOM      6  C   UNL     1      33.815 -19.242 -21.525  0.00  0.00    -0.000 C 
ENDROOT
BRANCH   1   7
ATOM      7  C   UNL     1      35.343 -22.099 -18.726  0.00  0.00    +0.053 C 
BRANCH   7   8
ATOM      8  C   UNL     1      36.644 -21.656 -18.046  0.00  0.00    +0.141 C 
BRANCH   8  10
ATOM      9  S   UNL     1      34.688 -23.077 -15.318  0.00  0.00    +0.020 S 
ATOM     10  N   UNL     1      36.901 -22.498 -16.875  0.00  0.00    -0.222 NA
ATOM     11  C   UNL     1      35.955 -22.737 -16.223  0.00  0.00    +0.037 C 
ENDBRANCH   8  10
ENDBRANCH   7   8
ENDBRANCH   1   7
TORSDOF 3
ENDMDL
MODEL 6
REMARK VINA RESULT:      -6.1      5.060      6.658
REMARK  Name = 16741
REMARK  3 active torsions:
REMARK  status: ('A' for Active; 'I' for Inactive)
REMARK    1  A    between atoms: C_1  and  C_7
REMARK    2  A    between atoms: C_7  and  C_8
REMARK    3  A    between atoms: C_8  and  N_10
REMARK                            x       y       z     vdW  Elec       q    Type
REMARK                         _______ _______ _______ _____ _____    ______ ____
ROOT
ATOM      1  C   UNL     1      33.885 -21.409 -19.486  0.00  0.00    -0.020 C 
ATOM      2  C   UNL     1      33.114 -20.478 -20.182  0.00  0.00    -0.004 C 
ATOM      3  C   UNL     1      35.275 -21.383 -19.592  0.00  0.00    -0.004 C 
ATOM      4  C   UNL     1      33.733 -19.521 -20.985  0.00  0.00    -0.000 C 
ATOM      5  C   UNL     1      35.895 -20.425 -20.396  0.00  0.00    -0.000 C 
ATOM      6  C   UNL     1      35.124 -19.495 -21.093  0.00  0.00    -0.000 C 
ENDROOT
BRANCH   1   7
ATOM      7  C   UNL     1      33.222 -22.432 -18.626  0.00  0.00    +0.053 C 
BRANCH   7   8
ATOM      8  C   UNL     1      34.093 -22.909 -17.458  0.00  0.00    +0.141 C 
BRANCH   8  10
ATOM      9  S   UNL     1      34.574 -24.089 -14.042  0.00  0.00    +0.020 S 
ATOM     10  N   UNL     1      33.239 -23.324 -16.342  0.00  0.00    -0.222 NA
ATOM     11  C   UNL     1      33.817 -23.645 -15.372  0.00  0.00    +0.037 C 
ENDBRANCH   8  10
ENDBRANCH   7   8
ENDBRANCH   1   7
TORSDOF 3
ENDMDL
MODEL 7
REMARK VINA RESULT:      -6.1      3.242      5.390
REMARK  Name = 16741
REMARK  3 active torsions:
REMARK  status: ('A' for Active; 'I' for Inactive)
REMARK    1  A    between atoms: C_1  and  C_7
REMARK    2  A    between atoms: C_7  and  C_8
REMARK    3  A    between atoms: C_8  and  N_10
REMARK                            x       y       z     vdW  Elec       q    Type
REMARK                         _______ _______ _______ _____ _____    ______ ____
ROOT
ATOM      1  C   UNL     1      34.598 -18.542 -22.019  0.00  0.00    -0.020 C 
ATOM      2  C   UNL     1      34.683 -18.933 -23.355  0.00  0.00    -0.004 C 
ATOM      3  C   UNL     1      34.733 -17.196 -21.676  0.00  0.00    -0.004 C 
ATOM      4  C   UNL     1      34.903 -17.980 -24.349  0.00  0.00    -0.000 C 
ATOM      5  C   UNL     1      34.953 -16.243 -22.671  0.00  0.00    -0.000 C 
ATOM      6  C   UNL     1      35.039 -16.634 -24.007  0.00  0.00    -0.000 C 
ENDROOT
BRANCH   1   7
ATOM      7  C   UNL     1      34.361 -19.562 -20.957  0.00  0.00    +0.053 C 
BRANCH   7   8
ATOM      8  C   UNL     1      32.924 -20.094 -20.926  0.00  0.00    +0.141 C 
BRANCH   8  10
ATOM      9  S   UNL     1      34.363 -22.657 -18.771  0.00  0.00    +0.020 S 
ATOM     10  N   UNL     1      32.636 -20.665 -19.608  0.00  0.00    -0.222 NA
ATOM     11  C   UNL     1      33.376 -21.508 -19.264  0.00  0.00    +0.037 C 
ENDBRANCH   8  10
ENDBRANCH   7   8
ENDBRANCH   1   7
TORSDOF 3
ENDMDL
MODEL 8
REMARK VINA RESULT:      -6.1      5.289      6.932
REMARK  Name = 16741
REMARK  3 active torsions:
REMARK  status: ('A' for Active; 'I' for Inactive)
REMARK    1  A    between atoms: C_1  and  C_7
REMARK    2  A    between atoms: C_7  and  C_8
REMARK    3  A    between atoms: C_8  and  N_10
REMARK                            x       y       z     vdW  Elec       q    Type
REMARK                         _______ _______ _______ _____ _____    ______ ____
ROOT
ATOM      1  C   UNL     1      34.026 -22.026 -18.929  0.00  0.00    -0.020 C 
ATOM      2  C   UNL     1      33.082 -21.227 -19.574  0.00  0.00    -0.004 C 
ATOM      3  C   UNL     1      35.385 -21.842 -19.182  0.00  0.00    -0.004 C 
ATOM      4  C   UNL     1      33.496 -20.244 -20.473  0.00  0.00    -0.000 C 
ATOM      5  C   UNL     1      35.800 -20.859 -20.081  0.00  0.00    -0.000 C 
ATOM      6  C   UNL     1      34.855 -20.061 -20.727  0.00  0.00    -0.000 C 
ENDROOT
BRANCH   1   7
ATOM      7  C   UNL     1      33.581 -23.075 -17.967  0.00  0.00    +0.053 C 
BRANCH   7   8
ATOM      8  C   UNL     1      32.240 -22.763 -17.293  0.00  0.00    +0.141 C 
BRANCH   8  10
ATOM      9  S   UNL     1      29.585 -24.479 -15.478  0.00  0.00    +0.020 S 
ATOM     10  N   UNL     1      32.121 -23.530 -16.051  0.00  0.00    -0.222 NA
ATOM     11  C   UNL     1      31.041 -23.927 -15.819  0.00  0.00    +0.037 C 
ENDBRANCH   8  10
ENDBRANCH   7   8
ENDBRANCH   1   7
TORSDOF 3
ENDMDL
MODEL 9
REMARK VINA RESULT:      -6.0      3.149      5.600
REMARK  Name = 16741
REMARK  3 active torsions:
REMARK  status: ('A' for Active; 'I' for Inactive)
REMARK    1  A    between atoms: C_1  and  C_7
REMARK    2  A    between atoms: C_7  and  C_8
REMARK    3  A    between atoms: C_8  and  N_10
REMARK                            x       y       z     vdW  Elec       q    Type
REMARK                         _______ _______ _______ _____ _____    ______ ____
ROOT
ATOM      1  C   UNL     1      35.271 -17.965 -22.763  0.00  0.00    -0.020 C 
ATOM      2  C   UNL     1      35.137 -16.578 -22.810  0.00  0.00    -0.004 C 
ATOM      3  C   UNL     1      34.973 -18.734 -23.888  0.00  0.00    -0.004 C 
ATOM      4  C   UNL     1      34.705 -15.958 -23.983  0.00  0.00    -0.000 C 
ATOM      5  C   UNL     1      34.540 -18.114 -25.061  0.00  0.00    -0.000 C 
ATOM      6  C   UNL     1      34.406 -16.726 -25.108  0.00  0.00    -0.000 C 
ENDROOT
BRANCH   1   7
ATOM      7  C   UNL     1      35.735 -18.627 -21.509  0.00  0.00    +0.053 C 
BRANCH   7   8
ATOM      8  C   UNL     1      34.803 -19.744 -21.024  0.00  0.00    +0.141 C 
BRANCH   8  10
ATOM      9  S   UNL     1      33.940 -22.524 -18.829  0.00  0.00    +0.020 S 
ATOM     10  N   UNL     1      35.469 -20.524 -19.978  0.00  0.00    -0.222 NA
ATOM     11  C   UNL     1      34.810 -21.369 -19.499  0.00  0.00    +0.037 C 
ENDBRANCH   8  10
ENDBRANCH   7   8
ENDBRANCH   1   7
TORSDOF 3
ENDMDL
