MODEL 1
REMARK VINA RESULT:      -9.5      0.000      0.000
REMARK  Name = 9863672
REMARK  2 active torsions:
REMARK  status: ('A' for Active; 'I' for Inactive)
REMARK    1  A    between atoms: S_1  and  C_6
REMARK    2  A    between atoms: S_1  and  N_15
REMARK                            x       y       z     vdW  Elec       q    Type
REMARK                         _______ _______ _______ _____ _____    ______ ____
ROOT
ATOM      1  S   UNL     1      35.644 -17.950 -21.557  0.00  0.00    +0.063 S 
ATOM      2  O   UNL     1      35.815 -17.054 -20.428  0.00  0.00    -0.153 OA
ATOM      3  O   UNL     1      36.760 -18.685 -22.120  0.00  0.00    -0.153 OA
ENDROOT
BRANCH   1   6
ATOM      4  F   UNL     1      37.297 -19.544 -20.090  0.00  0.00    -0.202 F 
ATOM      5  N   UNL     1      35.802 -22.420 -18.509  0.00  0.00    -0.240 NA
ATOM      6  C   UNL     1      34.554 -19.236 -20.948  0.00  0.00    +0.124 C 
ATOM      7  C   UNL     1      35.001 -20.273 -20.144  0.00  0.00    +0.049 C 
ATOM      8  C   UNL     1      33.238 -19.105 -21.347  0.00  0.00    +0.020 C 
ATOM      9  C   UNL     1      34.059 -21.233 -19.720  0.00  0.00    +0.023 C 
ATOM     10  C   UNL     1      32.311 -20.055 -20.927  0.00  0.00    +0.001 C 
ATOM     11  C   UNL     1      36.334 -20.407 -19.739  0.00  0.00    +0.160 C 
ATOM     12  C   UNL     1      32.716 -21.116 -20.117  0.00  0.00    +0.002 C 
ATOM     13  C   UNL     1      34.519 -22.274 -18.912  0.00  0.00    +0.099 C 
ATOM     14  C   UNL     1      36.675 -21.483 -18.934  0.00  0.00    +0.128 C 
ENDBRANCH   1   6
BRANCH   1  15
ATOM     15  N   UNL     1      34.817 -17.112 -22.810  0.00  0.00    -0.159 NA
ATOM     16  N   UNL     1      33.625 -15.997 -25.490  0.00  0.00    +0.385 N 
ATOM     17  C   UNL     1      35.116 -17.572 -24.208  0.00  0.00    +0.058 C 
ATOM     18  C   UNL     1      34.622 -15.657 -22.576  0.00  0.00    +0.093 C 
ATOM     19  C   UNL     1      34.985 -16.496 -25.296  0.00  0.00    -0.064 C 
ATOM     20  C   UNL     1      33.280 -15.199 -23.134  0.00  0.00    -0.004 C 
ATOM     21  C   UNL     1      33.312 -14.864 -24.623  0.00  0.00    -0.080 C 
ATOM     22  C   UNL     1      34.226 -18.781 -24.513  0.00  0.00    +0.017 C 
ATOM     23  H   UNL     1      32.968 -16.752 -25.290  0.00  0.00    -0.084 HD
ATOM     24  H   UNL     1      33.548 -15.677 -26.456  0.00  0.00    -0.084 HD
ENDBRANCH   1  15
TORSDOF 2
ENDMDL
MODEL 2
REMARK VINA RESULT:      -8.8      2.046      6.401
REMARK  Name = 9863672
REMARK  2 active torsions:
REMARK  status: ('A' for Active; 'I' for Inactive)
REMARK    1  A    between atoms: S_1  and  C_6
REMARK    2  A    between atoms: S_1  and  N_15
REMARK                            x       y       z     vdW  Elec       q    Type
REMARK                         _______ _______ _______ _____ _____    ______ ____
ROOT
ATOM      1  S   UNL     1      35.098 -18.571 -22.804  0.00  0.00    +0.063 S 
ATOM      2  O   UNL     1      34.197 -18.953 -23.875  0.00  0.00    -0.153 OA
ATOM      3  O   UNL     1      36.527 -18.445 -23.021  0.00  0.00    -0.153 OA
ENDROOT
BRANCH   1   6
ATOM      4  F   UNL     1      34.469 -17.434 -25.199  0.00  0.00    -0.202 F 
ATOM      5  N   UNL     1      33.334 -14.011 -25.127  0.00  0.00    -0.240 NA
ATOM      6  C   UNL     1      34.590 -16.911 -22.359  0.00  0.00    +0.124 C 
ATOM      7  C   UNL     1      34.181 -15.980 -23.300  0.00  0.00    +0.049 C 
ATOM      8  C   UNL     1      34.640 -16.643 -21.005  0.00  0.00    +0.020 C 
ATOM      9  C   UNL     1      33.801 -14.701 -22.841  0.00  0.00    +0.023 C 
ATOM     10  C   UNL     1      34.264 -15.379 -20.556  0.00  0.00    +0.001 C 
ATOM     11  C   UNL     1      34.129 -16.250 -24.672  0.00  0.00    +0.160 C 
ATOM     12  C   UNL     1      33.846 -14.410 -21.468  0.00  0.00    +0.002 C 
ATOM     13  C   UNL     1      33.392 -13.769 -23.797  0.00  0.00    +0.099 C 
ATOM     14  C   UNL     1      33.705 -15.245 -25.529  0.00  0.00    +0.128 C 
ENDBRANCH   1   6
BRANCH   1  15
ATOM     15  N   UNL     1      34.811 -19.589 -21.447  0.00  0.00    -0.159 NA
ATOM     16  N   UNL     1      34.913 -21.611 -19.050  0.00  0.00    +0.385 N 
ATOM     17  C   UNL     1      35.977 -20.423 -21.001  0.00  0.00    +0.058 C 
ATOM     18  C   UNL     1      33.453 -20.189 -21.384  0.00  0.00    +0.093 C 
ATOM     19  C   UNL     1      35.613 -21.753 -20.326  0.00  0.00    -0.064 C 
ATOM     20  C   UNL     1      32.975 -20.284 -19.939  0.00  0.00    -0.004 C 
ATOM     21  C   UNL     1      33.464 -21.532 -19.209  0.00  0.00    -0.080 C 
ATOM     22  C   UNL     1      36.859 -19.562 -20.091  0.00  0.00    +0.017 C 
ATOM     23  H   UNL     1      35.238 -20.758 -18.593  0.00  0.00    -0.084 HD
ATOM     24  H   UNL     1      35.118 -22.439 -18.491  0.00  0.00    -0.084 HD
ENDBRANCH   1  15
TORSDOF 2
ENDMDL
MODEL 3
REMARK VINA RESULT:      -8.2      6.722      9.486
REMARK  Name = 9863672
REMARK  2 active torsions:
REMARK  status: ('A' for Active; 'I' for Inactive)
REMARK    1  A    between atoms: S_1  and  C_6
REMARK    2  A    between atoms: S_1  and  N_15
REMARK                            x       y       z     vdW  Elec       q    Type
REMARK                         _______ _______ _______ _____ _____    ______ ____
ROOT
ATOM      1  S   UNL     1      31.660 -10.121 -21.999  0.00  0.00    +0.063 S 
ATOM      2  O   UNL     1      30.315 -10.631 -22.187  0.00  0.00    -0.153 OA
ATOM      3  O   UNL     1      32.348 -10.240 -20.727  0.00  0.00    -0.153 OA
ENDROOT
BRANCH   1   6
ATOM      4  F   UNL     1      31.476 -12.647 -20.994  0.00  0.00    -0.202 F 
ATOM      5  N   UNL     1      33.283 -15.231 -22.744  0.00  0.00    -0.240 NA
ATOM      6  C   UNL     1      32.670 -11.092 -23.118  0.00  0.00    +0.124 C 
ATOM      7  C   UNL     1      32.850 -12.458 -22.963  0.00  0.00    +0.049 C 
ATOM      8  C   UNL     1      33.247 -10.367 -24.141  0.00  0.00    +0.020 C 
ATOM      9  C   UNL     1      33.664 -13.126 -23.902  0.00  0.00    +0.023 C 
ATOM     10  C   UNL     1      34.051 -11.030 -25.064  0.00  0.00    +0.001 C 
ATOM     11  C   UNL     1      32.264 -13.195 -21.928  0.00  0.00    +0.160 C 
ATOM     12  C   UNL     1      34.261 -12.404 -24.948  0.00  0.00    +0.002 C 
ATOM     13  C   UNL     1      33.841 -14.501 -23.737  0.00  0.00    +0.099 C 
ATOM     14  C   UNL     1      32.511 -14.558 -21.865  0.00  0.00    +0.128 C 
ENDBRANCH   1   6
BRANCH   1  15
ATOM     15  N   UNL     1      31.714  -8.486 -22.530  0.00  0.00    -0.159 NA
ATOM     16  N   UNL     1      32.103  -5.397 -22.924  0.00  0.00    +0.385 N 
ATOM     17  C   UNL     1      32.321  -7.508 -21.566  0.00  0.00    +0.058 C 
ATOM     18  C   UNL     1      30.546  -8.044 -23.336  0.00  0.00    +0.093 C 
ATOM     19  C   UNL     1      31.789  -6.071 -21.665  0.00  0.00    -0.064 C 
ATOM     20  C   UNL     1      30.983  -7.071 -24.424  0.00  0.00    -0.004 C 
ATOM     21  C   UNL     1      31.090  -5.624 -23.951  0.00  0.00    -0.080 C 
ATOM     22  C   UNL     1      33.843  -7.550 -21.738  0.00  0.00    +0.017 C 
ATOM     23  H   UNL     1      32.999  -5.747 -23.267  0.00  0.00    -0.084 HD
ATOM     24  H   UNL     1      32.136  -4.395 -22.738  0.00  0.00    -0.084 HD
ENDBRANCH   1  15
TORSDOF 2
ENDMDL
MODEL 4
REMARK VINA RESULT:      -7.9      5.620      9.811
REMARK  Name = 9863672
REMARK  2 active torsions:
REMARK  status: ('A' for Active; 'I' for Inactive)
REMARK    1  A    between atoms: S_1  and  C_6
REMARK    2  A    between atoms: S_1  and  N_15
REMARK                            x       y       z     vdW  Elec       q    Type
REMARK                         _______ _______ _______ _____ _____    ______ ____
ROOT
ATOM      1  S   UNL     1      34.887 -23.952 -15.228  0.00  0.00    +0.063 S 
ATOM      2  O   UNL     1      33.843 -23.153 -14.614  0.00  0.00    -0.153 OA
ATOM      3  O   UNL     1      34.590 -25.195 -15.914  0.00  0.00    -0.153 OA
ENDROOT
BRANCH   1   6
ATOM      4  F   UNL     1      32.780 -23.613 -16.923  0.00  0.00    -0.202 F 
ATOM      5  N   UNL     1      33.351 -21.574 -19.842  0.00  0.00    -0.240 NA
ATOM      6  C   UNL     1      35.553 -22.904 -16.521  0.00  0.00    +0.124 C 
ATOM      7  C   UNL     1      34.796 -22.484 -17.604  0.00  0.00    +0.049 C 
ATOM      8  C   UNL     1      36.878 -22.554 -16.346  0.00  0.00    +0.020 C 
ATOM      9  C   UNL     1      35.419 -21.661 -18.565  0.00  0.00    +0.023 C 
ATOM     10  C   UNL     1      37.489 -21.741 -17.297  0.00  0.00    +0.001 C 
ATOM     11  C   UNL     1      33.455 -22.838 -17.782  0.00  0.00    +0.160 C 
ATOM     12  C   UNL     1      36.766 -21.295 -18.403  0.00  0.00    +0.002 C 
ATOM     13  C   UNL     1      34.649 -21.244 -19.651  0.00  0.00    +0.099 C 
ATOM     14  C   UNL     1      32.789 -22.363 -18.902  0.00  0.00    +0.128 C 
ENDBRANCH   1   6
BRANCH   1  15
ATOM     15  N   UNL     1      36.135 -24.217 -14.074  0.00  0.00    -0.159 NA
ATOM     16  N   UNL     1      38.384 -25.317 -12.182  0.00  0.00    +0.385 N 
ATOM     17  C   UNL     1      36.635 -25.629 -13.969  0.00  0.00    +0.058 C 
ATOM     18  C   UNL     1      36.022 -23.418 -12.826  0.00  0.00    +0.093 C 
ATOM     19  C   UNL     1      37.176 -26.034 -12.591  0.00  0.00    -0.064 C 
ATOM     20  C   UNL     1      37.401 -23.010 -12.323  0.00  0.00    -0.004 C 
ATOM     21  C   UNL     1      38.088 -24.076 -11.473  0.00  0.00    -0.080 C 
ATOM     22  C   UNL     1      37.686 -25.845 -15.064  0.00  0.00    +0.017 C 
ATOM     23  H   UNL     1      38.929 -25.095 -13.016  0.00  0.00    -0.084 HD
ATOM     24  H   UNL     1      38.901 -25.922 -11.544  0.00  0.00    -0.084 HD
ENDBRANCH   1  15
TORSDOF 2
ENDMDL
MODEL 5
REMARK VINA RESULT:      -7.9      1.293      2.047
REMARK  Name = 9863672
REMARK  2 active torsions:
REMARK  status: ('A' for Active; 'I' for Inactive)
REMARK    1  A    between atoms: S_1  and  C_6
REMARK    2  A    between atoms: S_1  and  N_15
REMARK                            x       y       z     vdW  Elec       q    Type
REMARK                         _______ _______ _______ _____ _____    ______ ____
ROOT
ATOM      1  S   UNL     1      35.524 -18.223 -22.346  0.00  0.00    +0.063 S 
ATOM      2  O   UNL     1      36.747 -18.004 -21.595  0.00  0.00    -0.153 OA
ATOM      3  O   UNL     1      35.531 -18.888 -23.635  0.00  0.00    -0.153 OA
ENDROOT
BRANCH   1   6
ATOM      4  F   UNL     1      37.403 -19.632 -20.964  0.00  0.00    -0.202 F 
ATOM      5  N   UNL     1      36.195 -22.095 -18.623  0.00  0.00    -0.240 NA
ATOM      6  C   UNL     1      34.551 -19.317 -21.311  0.00  0.00    +0.124 C 
ATOM      7  C   UNL     1      35.129 -20.222 -20.435  0.00  0.00    +0.049 C 
ATOM      8  C   UNL     1      33.185 -19.180 -21.462  0.00  0.00    +0.020 C 
ATOM      9  C   UNL     1      34.270 -21.036 -19.666  0.00  0.00    +0.023 C 
ATOM     10  C   UNL     1      32.341 -19.986 -20.702  0.00  0.00    +0.001 C 
ATOM     11  C   UNL     1      36.512 -20.362 -20.280  0.00  0.00    +0.160 C 
ATOM     12  C   UNL     1      32.878 -20.911 -19.807  0.00  0.00    +0.002 C 
ATOM     13  C   UNL     1      34.861 -21.945 -18.787  0.00  0.00    +0.099 C 
ATOM     14  C   UNL     1      36.985 -21.299 -19.374  0.00  0.00    +0.128 C 
ENDBRANCH   1   6
BRANCH   1  15
ATOM     15  N   UNL     1      34.677 -16.732 -22.474  0.00  0.00    -0.159 NA
ATOM     16  N   UNL     1      32.937 -14.147 -22.099  0.00  0.00    +0.385 N 
ATOM     17  C   UNL     1      33.862 -16.341 -21.275  0.00  0.00    +0.058 C 
ATOM     18  C   UNL     1      34.131 -16.429 -23.822  0.00  0.00    +0.093 C 
ATOM     19  C   UNL     1      32.628 -15.476 -21.572  0.00  0.00    -0.064 C 
ATOM     20  C   UNL     1      34.216 -14.935 -24.112  0.00  0.00    -0.004 C 
ATOM     21  C   UNL     1      33.043 -14.131 -23.555  0.00  0.00    -0.080 C 
ATOM     22  C   UNL     1      34.791 -15.656 -20.268  0.00  0.00    +0.017 C 
ATOM     23  H   UNL     1      33.825 -13.837 -21.704  0.00  0.00    -0.084 HD
ATOM     24  H   UNL     1      32.171 -13.526 -21.839  0.00  0.00    -0.084 HD
ENDBRANCH   1  15
TORSDOF 2
ENDMDL
MODEL 6
REMARK VINA RESULT:      -7.9      3.626      5.493
REMARK  Name = 9863672
REMARK  2 active torsions:
REMARK  status: ('A' for Active; 'I' for Inactive)
REMARK    1  A    between atoms: S_1  and  C_6
REMARK    2  A    between atoms: S_1  and  N_15
REMARK                            x       y       z     vdW  Elec       q    Type
REMARK                         _______ _______ _______ _____ _____    ______ ____
ROOT
ATOM      1  S   UNL     1      34.005 -22.178 -19.077  0.00  0.00    +0.063 S 
ATOM      2  O   UNL     1      34.195 -23.407 -19.825  0.00  0.00    -0.153 OA
ATOM      3  O   UNL     1      32.716 -21.819 -18.518  0.00  0.00    -0.153 OA
ENDROOT
BRANCH   1   6
ATOM      4  F   UNL     1      32.394 -23.431 -17.271  0.00  0.00    -0.202 F 
ATOM      5  N   UNL     1      33.828 -24.161 -14.044  0.00  0.00    -0.240 NA
ATOM      6  C   UNL     1      35.055 -22.362 -17.636  0.00  0.00    +0.124 C 
ATOM      7  C   UNL     1      34.615 -22.962 -16.466  0.00  0.00    +0.049 C 
ATOM      8  C   UNL     1      36.331 -21.858 -17.792  0.00  0.00    +0.020 C 
ATOM      9  C   UNL     1      35.524 -23.055 -15.391  0.00  0.00    +0.023 C 
ATOM     10  C   UNL     1      37.225 -21.952 -16.728  0.00  0.00    +0.001 C 
ATOM     11  C   UNL     1      33.323 -23.473 -16.307  0.00  0.00    +0.160 C 
ATOM     12  C   UNL     1      36.826 -22.548 -15.532  0.00  0.00    +0.002 C 
ATOM     13  C   UNL     1      35.072 -23.660 -14.217  0.00  0.00    +0.099 C 
ATOM     14  C   UNL     1      32.986 -24.054 -15.094  0.00  0.00    +0.128 C 
ENDBRANCH   1   6
BRANCH   1  15
ATOM     15  N   UNL     1      34.614 -20.864 -20.005  0.00  0.00    -0.159 NA
ATOM     16  N   UNL     1      35.137 -18.482 -21.980  0.00  0.00    +0.385 N 
ATOM     17  C   UNL     1      33.679 -20.309 -21.040  0.00  0.00    +0.058 C 
ATOM     18  C   UNL     1      36.061 -20.940 -20.335  0.00  0.00    +0.093 C 
ATOM     19  C   UNL     1      34.355 -19.684 -22.269  0.00  0.00    -0.064 C 
ATOM     20  C   UNL     1      36.689 -19.551 -20.320  0.00  0.00    -0.004 C 
ATOM     21  C   UNL     1      36.522 -18.784 -21.629  0.00  0.00    -0.080 C 
ATOM     22  C   UNL     1      32.743 -19.310 -20.352  0.00  0.00    +0.017 C 
ATOM     23  H   UNL     1      34.703 -17.989 -21.199  0.00  0.00    -0.084 HD
ATOM     24  H   UNL     1      35.150 -17.912 -22.825  0.00  0.00    -0.084 HD
ENDBRANCH   1  15
TORSDOF 2
ENDMDL
MODEL 7
REMARK VINA RESULT:      -7.8      3.698      6.143
REMARK  Name = 9863672
REMARK  2 active torsions:
REMARK  status: ('A' for Active; 'I' for Inactive)
REMARK    1  A    between atoms: S_1  and  C_6
REMARK    2  A    between atoms: S_1  and  N_15
REMARK                            x       y       z     vdW  Elec       q    Type
REMARK                         _______ _______ _______ _____ _____    ______ ____
ROOT
ATOM      1  S   UNL     1      33.226 -14.140 -21.904  0.00  0.00    +0.063 S 
ATOM      2  O   UNL     1      32.094 -14.820 -21.302  0.00  0.00    -0.153 OA
ATOM      3  O   UNL     1      34.553 -14.211 -21.322  0.00  0.00    -0.153 OA
ENDROOT
BRANCH   1   6
ATOM      4  F   UNL     1      34.448 -16.502 -21.311  0.00  0.00    -0.202 F 
ATOM      5  N   UNL     1      35.196 -18.688 -24.081  0.00  0.00    -0.240 NA
ATOM      6  C   UNL     1      33.423 -14.923 -23.504  0.00  0.00    +0.124 C 
ATOM      7  C   UNL     1      34.013 -16.168 -23.657  0.00  0.00    +0.049 C 
ATOM      8  C   UNL     1      32.937 -14.184 -24.565  0.00  0.00    +0.020 C 
ATOM      9  C   UNL     1      34.118 -16.693 -24.962  0.00  0.00    +0.023 C 
ATOM     10  C   UNL     1      33.042 -14.706 -25.852  0.00  0.00    +0.001 C 
ATOM     11  C   UNL     1      34.505 -16.918 -22.583  0.00  0.00    +0.160 C 
ATOM     12  C   UNL     1      33.630 -15.955 -26.052  0.00  0.00    +0.002 C 
ATOM     13  C   UNL     1      34.715 -17.947 -25.105  0.00  0.00    +0.099 C 
ATOM     14  C   UNL     1      35.078 -18.153 -22.847  0.00  0.00    +0.128 C 
ENDBRANCH   1   6
BRANCH   1  15
ATOM     15  N   UNL     1      32.805 -12.494 -22.174  0.00  0.00    -0.159 NA
ATOM     16  N   UNL     1      31.523  -9.633 -22.293  0.00  0.00    +0.385 N 
ATOM     17  C   UNL     1      31.524 -12.037 -21.540  0.00  0.00    +0.058 C 
ATOM     18  C   UNL     1      33.150 -11.967 -23.521  0.00  0.00    +0.093 C 
ATOM     19  C   UNL     1      30.796 -10.901 -22.274  0.00  0.00    -0.064 C 
ATOM     20  C   UNL     1      33.584 -10.509 -23.431  0.00  0.00    -0.004 C 
ATOM     21  C   UNL     1      32.423  -9.518 -23.438  0.00  0.00    -0.080 C 
ATOM     22  C   UNL     1      31.820 -11.659 -20.085  0.00  0.00    +0.017 C 
ATOM     23  H   UNL     1      32.074  -9.559 -21.437  0.00  0.00    -0.084 HD
ATOM     24  H   UNL     1      30.835  -8.883 -22.365  0.00  0.00    -0.084 HD
ENDBRANCH   1  15
TORSDOF 2
ENDMDL
MODEL 8
REMARK VINA RESULT:      -7.7      7.993      9.447
REMARK  Name = 9863672
REMARK  2 active torsions:
REMARK  status: ('A' for Active; 'I' for Inactive)
REMARK    1  A    between atoms: S_1  and  C_6
REMARK    2  A    between atoms: S_1  and  N_15
REMARK                            x       y       z     vdW  Elec       q    Type
REMARK                         _______ _______ _______ _____ _____    ______ ____
ROOT
ATOM      1  S   UNL     1      32.040 -24.022 -14.050  0.00  0.00    +0.063 S 
ATOM      2  O   UNL     1      32.230 -25.449 -13.868  0.00  0.00    -0.153 OA
ATOM      3  O   UNL     1      32.222 -23.084 -12.959  0.00  0.00    -0.153 OA
ENDROOT
BRANCH   1   6
ATOM      4  F   UNL     1      34.332 -24.058 -12.578  0.00  0.00    -0.202 F 
ATOM      5  N   UNL     1      37.383 -23.192 -14.295  0.00  0.00    -0.240 NA
ATOM      6  C   UNL     1      33.303 -23.547 -15.230  0.00  0.00    +0.124 C 
ATOM      7  C   UNL     1      34.641 -23.440 -14.886  0.00  0.00    +0.049 C 
ATOM      8  C   UNL     1      32.831 -23.301 -16.504  0.00  0.00    +0.020 C 
ATOM      9  C   UNL     1      35.553 -23.060 -15.893  0.00  0.00    +0.023 C 
ATOM     10  C   UNL     1      33.734 -22.925 -17.495  0.00  0.00    +0.001 C 
ATOM     11  C   UNL     1      35.122 -23.691 -13.596  0.00  0.00    +0.160 C 
ATOM     12  C   UNL     1      35.091 -22.805 -17.194  0.00  0.00    +0.002 C 
ATOM     13  C   UNL     1      36.899 -22.954 -15.535  0.00  0.00    +0.099 C 
ATOM     14  C   UNL     1      36.481 -23.553 -13.358  0.00  0.00    +0.128 C 
ENDBRANCH   1   6
BRANCH   1  15
ATOM     15  N   UNL     1      30.508 -23.755 -14.787  0.00  0.00    -0.159 NA
ATOM     16  N   UNL     1      27.809 -23.863 -16.383  0.00  0.00    +0.385 N 
ATOM     17  C   UNL     1      30.011 -24.860 -15.673  0.00  0.00    +0.058 C 
ATOM     18  C   UNL     1      30.240 -22.352 -15.197  0.00  0.00    +0.093 C 
ATOM     19  C   UNL     1      29.089 -24.419 -16.819  0.00  0.00    -0.064 C 
ATOM     20  C   UNL     1      28.770 -22.005 -14.993  0.00  0.00    -0.004 C 
ATOM     21  C   UNL     1      27.871 -22.422 -16.154  0.00  0.00    -0.080 C 
ATOM     22  C   UNL     1      29.334 -25.913 -14.789  0.00  0.00    +0.017 C 
ATOM     23  H   UNL     1      27.533 -24.320 -15.513  0.00  0.00    -0.084 HD
ATOM     24  H   UNL     1      27.131 -24.029 -17.127  0.00  0.00    -0.084 HD
ENDBRANCH   1  15
TORSDOF 2
ENDMDL
MODEL 9
REMARK VINA RESULT:      -7.7      1.722      6.180
REMARK  Name = 9863672
REMARK  2 active torsions:
REMARK  status: ('A' for Active; 'I' for Inactive)
REMARK    1  A    between atoms: S_1  and  C_6
REMARK    2  A    between atoms: S_1  and  N_15
REMARK                            x       y       z     vdW  Elec       q    Type
REMARK                         _______ _______ _______ _____ _____    ______ ____
ROOT
ATOM      1  S   UNL     1      35.598 -18.462 -21.203  0.00  0.00    +0.063 S 
ATOM      2  O   UNL     1      37.029 -18.643 -21.363  0.00  0.00    -0.153 OA
ATOM      3  O   UNL     1      35.053 -17.382 -20.404  0.00  0.00    -0.153 OA
ENDROOT
BRANCH   1   6
ATOM      4  F   UNL     1      35.137 -15.777 -21.154  0.00  0.00    -0.202 F 
ATOM      5  N   UNL     1      33.889 -14.284 -24.190  0.00  0.00    -0.240 NA
ATOM      6  C   UNL     1      35.002 -18.109 -22.856  0.00  0.00    +0.124 C 
ATOM      7  C   UNL     1      34.643 -16.833 -23.262  0.00  0.00    +0.049 C 
ATOM      8  C   UNL     1      34.932 -19.211 -23.686  0.00  0.00    +0.020 C 
ATOM      9  C   UNL     1      34.187 -16.666 -24.586  0.00  0.00    +0.023 C 
ATOM     10  C   UNL     1      34.480 -19.042 -24.992  0.00  0.00    +0.001 C 
ATOM     11  C   UNL     1      34.715 -15.715 -22.423  0.00  0.00    +0.160 C 
ATOM     12  C   UNL     1      34.108 -17.775 -25.443  0.00  0.00    +0.002 C 
ATOM     13  C   UNL     1      33.827 -15.377 -24.985  0.00  0.00    +0.099 C 
ATOM     14  C   UNL     1      34.331 -14.483 -22.930  0.00  0.00    +0.128 C 
ENDBRANCH   1   6
BRANCH   1  15
ATOM     15  N   UNL     1      34.902 -19.954 -20.703  0.00  0.00    -0.159 NA
ATOM     16  N   UNL     1      33.094 -22.316 -19.705  0.00  0.00    +0.385 N 
ATOM     17  C   UNL     1      33.466 -19.889 -20.270  0.00  0.00    +0.058 C 
ATOM     18  C   UNL     1      35.818 -20.862 -19.964  0.00  0.00    +0.093 C 
ATOM     19  C   UNL     1      33.046 -20.935 -19.227  0.00  0.00    -0.064 C 
ATOM     20  C   UNL     1      35.530 -22.317 -20.316  0.00  0.00    -0.004 C 
ATOM     21  C   UNL     1      34.400 -22.937 -19.499  0.00  0.00    -0.080 C 
ATOM     22  C   UNL     1      32.587 -19.969 -21.522  0.00  0.00    +0.017 C 
ATOM     23  H   UNL     1      32.883 -22.324 -20.703  0.00  0.00    -0.084 HD
ATOM     24  H   UNL     1      32.410 -22.852 -19.170  0.00  0.00    -0.084 HD
ENDBRANCH   1  15
TORSDOF 2
ENDMDL
