MODEL 1
REMARK VINA RESULT:     -10.2      0.000      0.000
REMARK  Name = 68869
REMARK  4 active torsions:
REMARK  status: ('A' for Active; 'I' for Inactive)
REMARK    1  A    between atoms: C_3  and  C_17
REMARK    2  A    between atoms: C_9  and  C_11
REMARK    3  A    between atoms: C_17  and  C_20
REMARK    4  A    between atoms: C_20  and  O_21
REMARK                            x       y       z     vdW  Elec       q    Type
REMARK                         _______ _______ _______ _____ _____    ______ ____
ROOT
ATOM      1  O   UNL     1      35.701 -19.863 -20.977  0.00  0.00    -0.425 OA
ATOM      2  N   UNL     1      33.461 -20.195 -21.054  0.00  0.00    -0.368 NA
ATOM      3  C   UNL     1      34.244 -22.465 -18.190  0.00  0.00    -0.027 C 
ATOM      4  C   UNL     1      34.001 -20.950 -20.042  0.00  0.00    +0.151 C 
ATOM      5  C   UNL     1      33.411 -21.828 -19.122  0.00  0.00    +0.085 C 
ATOM      6  C   UNL     1      35.373 -20.750 -19.992  0.00  0.00    +0.174 C 
ATOM      7  C   UNL     1      35.625 -22.233 -18.173  0.00  0.00    -0.004 C 
ATOM      8  C   UNL     1      36.229 -21.360 -19.084  0.00  0.00    +0.039 C 
ATOM      9  C   UNL     1      34.504 -19.581 -21.564  0.00  0.00    +0.282 C 
ENDROOT
BRANCH   9  11
ATOM     10  F   UNL     1      34.745 -15.979 -25.808  0.00  0.00    -0.204 F 
ATOM     11  C   UNL     1      34.567 -18.652 -22.659  0.00  0.00    +0.067 C 
ATOM     12  C   UNL     1      34.673 -17.280 -22.412  0.00  0.00    +0.008 C 
ATOM     13  C   UNL     1      34.521 -19.115 -23.977  0.00  0.00    +0.008 C 
ATOM     14  C   UNL     1      34.734 -16.378 -23.475  0.00  0.00    +0.030 C 
ATOM     15  C   UNL     1      34.580 -18.212 -25.040  0.00  0.00    +0.030 C 
ATOM     16  C   UNL     1      34.687 -16.845 -24.788  0.00  0.00    +0.140 C 
ENDBRANCH   9  11
BRANCH   3  17
ATOM     17  C   UNL     1      33.645 -23.406 -17.196  0.00  0.00    +0.118 C 
ATOM     18  C   UNL     1      32.220 -23.018 -16.759  0.00  0.00    +0.016 C 
BRANCH  17  20
ATOM     19  O   UNL     1      35.350 -24.470 -15.807  0.00  0.00    -0.250 OA
ATOM     20  C   UNL     1      34.522 -23.581 -15.952  0.00  0.00    +0.317 C 
BRANCH  20  21
ATOM     21  O   UNL     1      34.286 -22.640 -14.999  0.00  0.00    -0.480 OA
ATOM     22  H   UNL     1      34.881 -22.539 -14.283  0.00  0.00    +0.295 HD
ENDBRANCH  20  21
ENDBRANCH  17  20
ENDBRANCH   3  17
TORSDOF 4
ENDMDL
MODEL 2
REMARK VINA RESULT:     -10.1      3.228      5.111
REMARK  Name = 68869
REMARK  4 active torsions:
REMARK  status: ('A' for Active; 'I' for Inactive)
REMARK    1  A    between atoms: C_3  and  C_17
REMARK    2  A    between atoms: C_9  and  C_11
REMARK    3  A    between atoms: C_17  and  C_20
REMARK    4  A    between atoms: C_20  and  O_21
REMARK                            x       y       z     vdW  Elec       q    Type
REMARK                         _______ _______ _______ _____ _____    ______ ____
ROOT
ATOM      1  O   UNL     1      34.687 -22.775 -17.349  0.00  0.00    -0.425 OA
ATOM      2  N   UNL     1      36.800 -21.955 -17.317  0.00  0.00    -0.368 NA
ATOM      3  C   UNL     1      37.000 -24.082 -14.250  0.00  0.00    -0.027 C 
ATOM      4  C   UNL     1      36.619 -22.797 -16.247  0.00  0.00    +0.151 C 
ATOM      5  C   UNL     1      37.486 -23.192 -15.219  0.00  0.00    +0.085 C 
ATOM      6  C   UNL     1      35.326 -23.301 -16.263  0.00  0.00    +0.174 C 
ATOM      7  C   UNL     1      35.688 -24.567 -14.304  0.00  0.00    -0.004 C 
ATOM      8  C   UNL     1      34.809 -24.183 -15.323  0.00  0.00    +0.039 C 
ATOM      9  C   UNL     1      35.635 -21.982 -17.925  0.00  0.00    +0.282 C 
ENDROOT
BRANCH   9  11
ATOM     10  F   UNL     1      34.000 -19.308 -22.531  0.00  0.00    -0.204 F 
ATOM     11  C   UNL     1      35.213 -21.293 -19.113  0.00  0.00    +0.067 C 
ATOM     12  C   UNL     1      36.153 -20.650 -19.924  0.00  0.00    +0.008 C 
ATOM     13  C   UNL     1      33.861 -21.261 -19.465  0.00  0.00    +0.008 C 
ATOM     14  C   UNL     1      35.743 -19.980 -21.078  0.00  0.00    +0.030 C 
ATOM     15  C   UNL     1      33.452 -20.591 -20.618  0.00  0.00    +0.030 C 
ATOM     16  C   UNL     1      34.393 -19.951 -21.424  0.00  0.00    +0.140 C 
ENDBRANCH   9  11
BRANCH   3  17
ATOM     17  C   UNL     1      37.900 -24.521 -13.142  0.00  0.00    +0.118 C 
ATOM     18  C   UNL     1      37.665 -25.978 -12.697  0.00  0.00    +0.016 C 
BRANCH  17  20
ATOM     19  O   UNL     1      38.297 -22.480 -11.859  0.00  0.00    -0.250 OA
ATOM     20  C   UNL     1      37.813 -23.603 -11.918  0.00  0.00    +0.317 C 
BRANCH  20  21
ATOM     21  O   UNL     1      37.142 -24.165 -10.878  0.00  0.00    -0.480 OA
ATOM     22  H   UNL     1      37.490 -24.107 -10.011  0.00  0.00    +0.295 HD
ENDBRANCH  20  21
ENDBRANCH  17  20
ENDBRANCH   3  17
TORSDOF 4
ENDMDL
MODEL 3
REMARK VINA RESULT:     -10.0      3.872      8.667
REMARK  Name = 68869
REMARK  4 active torsions:
REMARK  status: ('A' for Active; 'I' for Inactive)
REMARK    1  A    between atoms: C_3  and  C_17
REMARK    2  A    between atoms: C_9  and  C_11
REMARK    3  A    between atoms: C_17  and  C_20
REMARK    4  A    between atoms: C_20  and  O_21
REMARK                            x       y       z     vdW  Elec       q    Type
REMARK                         _______ _______ _______ _____ _____    ______ ____
ROOT
ATOM      1  O   UNL     1      34.624 -19.374 -22.889  0.00  0.00    -0.425 OA
ATOM      2  N   UNL     1      34.154 -17.734 -21.397  0.00  0.00    -0.368 NA
ATOM      3  C   UNL     1      34.152 -15.654 -24.503  0.00  0.00    -0.027 C 
ATOM      4  C   UNL     1      34.209 -17.201 -22.662  0.00  0.00    +0.151 C 
ATOM      5  C   UNL     1      34.030 -15.890 -23.125  0.00  0.00    +0.085 C 
ATOM      6  C   UNL     1      34.497 -18.202 -23.578  0.00  0.00    +0.174 C 
ATOM      7  C   UNL     1      34.443 -16.694 -25.394  0.00  0.00    -0.004 C 
ATOM      8  C   UNL     1      34.625 -18.008 -24.948  0.00  0.00    +0.039 C 
ATOM      9  C   UNL     1      34.405 -19.009 -21.595  0.00  0.00    +0.282 C 
ENDROOT
BRANCH   9  11
ATOM     10  F   UNL     1      34.712 -23.154 -17.885  0.00  0.00    -0.204 F 
ATOM     11  C   UNL     1      34.484 -20.078 -20.638  0.00  0.00    +0.067 C 
ATOM     12  C   UNL     1      33.317 -20.654 -20.129  0.00  0.00    +0.008 C 
ATOM     13  C   UNL     1      35.730 -20.549 -20.211  0.00  0.00    +0.008 C 
ATOM     14  C   UNL     1      33.394 -21.692 -19.200  0.00  0.00    +0.030 C 
ATOM     15  C   UNL     1      35.806 -21.586 -19.282  0.00  0.00    +0.030 C 
ATOM     16  C   UNL     1      34.638 -22.158 -18.777  0.00  0.00    +0.140 C 
ENDBRANCH   9  11
BRANCH   3  17
ATOM     17  C   UNL     1      33.967 -14.268 -25.028  0.00  0.00    +0.118 C 
ATOM     18  C   UNL     1      33.176 -13.349 -24.077  0.00  0.00    +0.016 C 
BRANCH  17  20
ATOM     19  O   UNL     1      33.885 -13.960 -27.450  0.00  0.00    -0.250 OA
ATOM     20  C   UNL     1      33.307 -14.248 -26.410  0.00  0.00    +0.317 C 
BRANCH  20  21
ATOM     21  O   UNL     1      31.989 -14.580 -26.375  0.00  0.00    -0.480 OA
ATOM     22  H   UNL     1      31.536 -14.786 -27.168  0.00  0.00    +0.295 HD
ENDBRANCH  20  21
ENDBRANCH  17  20
ENDBRANCH   3  17
TORSDOF 4
ENDMDL
MODEL 4
REMARK VINA RESULT:      -9.9      4.841      9.409
REMARK  Name = 68869
REMARK  4 active torsions:
REMARK  status: ('A' for Active; 'I' for Inactive)
REMARK    1  A    between atoms: C_3  and  C_17
REMARK    2  A    between atoms: C_9  and  C_11
REMARK    3  A    between atoms: C_17  and  C_20
REMARK    4  A    between atoms: C_20  and  O_21
REMARK                            x       y       z     vdW  Elec       q    Type
REMARK                         _______ _______ _______ _____ _____    ______ ____
ROOT
ATOM      1  O   UNL     1      33.364 -16.142 -21.197  0.00  0.00    -0.425 OA
ATOM      2  N   UNL     1      34.817 -16.163 -22.936  0.00  0.00    -0.368 NA
ATOM      3  C   UNL     1      33.281 -12.813 -23.558  0.00  0.00    -0.027 C 
ATOM      4  C   UNL     1      34.107 -14.987 -22.947  0.00  0.00    +0.151 C 
ATOM      5  C   UNL     1      34.149 -13.885 -23.813  0.00  0.00    +0.085 C 
ATOM      6  C   UNL     1      33.216 -14.971 -21.883  0.00  0.00    +0.174 C 
ATOM      7  C   UNL     1      32.397 -12.836 -22.472  0.00  0.00    -0.004 C 
ATOM      8  C   UNL     1      32.343 -13.928 -21.599  0.00  0.00    +0.039 C 
ATOM      9  C   UNL     1      34.338 -16.797 -21.890  0.00  0.00    +0.282 C 
ENDROOT
BRANCH   9  11
ATOM     10  F   UNL     1      35.716 -21.801 -19.864  0.00  0.00    -0.204 F 
ATOM     11  C   UNL     1      34.694 -18.088 -21.368  0.00  0.00    +0.067 C 
ATOM     12  C   UNL     1      33.697 -19.002 -21.015  0.00  0.00    +0.008 C 
ATOM     13  C   UNL     1      36.038 -18.436 -21.209  0.00  0.00    +0.008 C 
ATOM     14  C   UNL     1      34.042 -20.255 -20.508  0.00  0.00    +0.030 C 
ATOM     15  C   UNL     1      36.383 -19.689 -20.701  0.00  0.00    +0.030 C 
ATOM     16  C   UNL     1      35.385 -20.598 -20.351  0.00  0.00    +0.140 C 
ENDBRANCH   9  11
BRANCH   3  17
ATOM     17  C   UNL     1      33.301 -11.624 -24.462  0.00  0.00    +0.118 C 
ATOM     18  C   UNL     1      33.971 -11.895 -25.823  0.00  0.00    +0.016 C 
BRANCH  17  20
ATOM     19  O   UNL     1      33.373  -9.581 -23.123  0.00  0.00    -0.250 OA
ATOM     20  C   UNL     1      33.963 -10.404 -23.811  0.00  0.00    +0.317 C 
BRANCH  20  21
ATOM     21  O   UNL     1      35.292 -10.314 -24.080  0.00  0.00    -0.480 OA
ATOM     22  H   UNL     1      35.836 -11.073 -24.011  0.00  0.00    +0.295 HD
ENDBRANCH  20  21
ENDBRANCH  17  20
ENDBRANCH   3  17
TORSDOF 4
ENDMDL
MODEL 5
REMARK VINA RESULT:      -9.7      4.135      8.764
REMARK  Name = 68869
REMARK  4 active torsions:
REMARK  status: ('A' for Active; 'I' for Inactive)
REMARK    1  A    between atoms: C_3  and  C_17
REMARK    2  A    between atoms: C_9  and  C_11
REMARK    3  A    between atoms: C_17  and  C_20
REMARK    4  A    between atoms: C_20  and  O_21
REMARK                            x       y       z     vdW  Elec       q    Type
REMARK                         _______ _______ _______ _____ _____    ______ ____
ROOT
ATOM      1  O   UNL     1      34.940 -18.453 -23.281  0.00  0.00    -0.425 OA
ATOM      2  N   UNL     1      34.214 -17.030 -21.673  0.00  0.00    -0.368 NA
ATOM      3  C   UNL     1      33.530 -14.875 -24.649  0.00  0.00    -0.027 C 
ATOM      4  C   UNL     1      34.061 -16.445 -22.906  0.00  0.00    +0.151 C 
ATOM      5  C   UNL     1      33.559 -15.191 -23.283  0.00  0.00    +0.085 C 
ATOM      6  C   UNL     1      34.505 -17.313 -23.893  0.00  0.00    +0.174 C 
ATOM      7  C   UNL     1      33.988 -15.781 -25.613  0.00  0.00    -0.004 C 
ATOM      8  C   UNL     1      34.492 -17.036 -25.254  0.00  0.00    +0.039 C 
ATOM      9  C   UNL     1      34.733 -18.203 -21.957  0.00  0.00    +0.282 C 
ENDROOT
BRANCH   9  11
ATOM     10  F   UNL     1      36.223 -22.326 -18.517  0.00  0.00    -0.204 F 
ATOM     11  C   UNL     1      35.117 -19.266 -21.069  0.00  0.00    +0.067 C 
ATOM     12  C   UNL     1      36.462 -19.451 -20.733  0.00  0.00    +0.008 C 
ATOM     13  C   UNL     1      34.149 -20.123 -20.537  0.00  0.00    +0.008 C 
ATOM     14  C   UNL     1      36.835 -20.483 -19.872  0.00  0.00    +0.030 C 
ATOM     15  C   UNL     1      34.522 -21.155 -19.677  0.00  0.00    +0.030 C 
ATOM     16  C   UNL     1      35.865 -21.335 -19.344  0.00  0.00    +0.140 C 
ENDBRANCH   9  11
BRANCH   3  17
ATOM     17  C   UNL     1      33.001 -13.547 -25.082  0.00  0.00    +0.118 C 
ATOM     18  C   UNL     1      33.372 -13.178 -26.532  0.00  0.00    +0.016 C 
BRANCH  17  20
ATOM     19  O   UNL     1      32.828 -12.077 -23.139  0.00  0.00    -0.250 OA
ATOM     20  C   UNL     1      33.433 -12.411 -24.149  0.00  0.00    +0.317 C 
BRANCH  20  21
ATOM     21  O   UNL     1      34.570 -11.789 -24.560  0.00  0.00    -0.480 OA
ATOM     22  H   UNL     1      35.299 -12.296 -24.857  0.00  0.00    +0.295 HD
ENDBRANCH  20  21
ENDBRANCH  17  20
ENDBRANCH   3  17
TORSDOF 4
ENDMDL
MODEL 6
REMARK VINA RESULT:      -9.6      8.234     12.439
REMARK  Name = 68869
REMARK  4 active torsions:
REMARK  status: ('A' for Active; 'I' for Inactive)
REMARK    1  A    between atoms: C_3  and  C_17
REMARK    2  A    between atoms: C_9  and  C_11
REMARK    3  A    between atoms: C_17  and  C_20
REMARK    4  A    between atoms: C_20  and  O_21
REMARK                            x       y       z     vdW  Elec       q    Type
REMARK                         _______ _______ _______ _____ _____    ______ ____
ROOT
ATOM      1  O   UNL     1      34.457 -11.058 -24.337  0.00  0.00    -0.425 OA
ATOM      2  N   UNL     1      32.540 -11.280 -23.149  0.00  0.00    -0.368 NA
ATOM      3  C   UNL     1      32.967  -7.584 -22.799  0.00  0.00    -0.027 C 
ATOM      4  C   UNL     1      32.917  -9.959 -23.168  0.00  0.00    +0.151 C 
ATOM      5  C   UNL     1      32.332  -8.818 -22.601  0.00  0.00    +0.085 C 
ATOM      6  C   UNL     1      34.091  -9.820 -23.895  0.00  0.00    +0.174 C 
ATOM      7  C   UNL     1      34.150  -7.486 -23.541  0.00  0.00    -0.004 C 
ATOM      8  C   UNL     1      34.748  -8.615 -24.113  0.00  0.00    +0.039 C 
ATOM      9  C   UNL     1      33.480 -11.874 -23.849  0.00  0.00    +0.282 C 
ENDROOT
BRANCH   9  11
ATOM     10  F   UNL     1      34.057 -17.268 -25.117  0.00  0.00    -0.204 F 
ATOM     11  C   UNL     1      33.628 -13.265 -24.176  0.00  0.00    +0.067 C 
ATOM     12  C   UNL     1      34.222 -14.142 -23.264  0.00  0.00    +0.008 C 
ATOM     13  C   UNL     1      33.180 -13.750 -25.409  0.00  0.00    +0.008 C 
ATOM     14  C   UNL     1      34.367 -15.493 -23.582  0.00  0.00    +0.030 C 
ATOM     15  C   UNL     1      33.326 -15.100 -25.726  0.00  0.00    +0.030 C 
ATOM     16  C   UNL     1      33.918 -15.972 -24.812  0.00  0.00    +0.140 C 
ENDBRANCH   9  11
BRANCH   3  17
ATOM     17  C   UNL     1      32.368  -6.349 -22.208  0.00  0.00    +0.118 C 
ATOM     18  C   UNL     1      31.992  -6.497 -20.721  0.00  0.00    +0.016 C 
BRANCH  17  20
ATOM     19  O   UNL     1      31.018  -5.942 -24.204  0.00  0.00    -0.250 OA
ATOM     20  C   UNL     1      31.143  -5.860 -22.989  0.00  0.00    +0.317 C 
BRANCH  20  21
ATOM     21  O   UNL     1      30.191  -5.307 -22.192  0.00  0.00    -0.480 OA
ATOM     22  H   UNL     1      29.987  -5.698 -21.366  0.00  0.00    +0.295 HD
ENDBRANCH  20  21
ENDBRANCH  17  20
ENDBRANCH   3  17
TORSDOF 4
ENDMDL
MODEL 7
REMARK VINA RESULT:      -9.6      7.634     11.122
REMARK  Name = 68869
REMARK  4 active torsions:
REMARK  status: ('A' for Active; 'I' for Inactive)
REMARK    1  A    between atoms: C_3  and  C_17
REMARK    2  A    between atoms: C_9  and  C_11
REMARK    3  A    between atoms: C_17  and  C_20
REMARK    4  A    between atoms: C_20  and  O_21
REMARK                            x       y       z     vdW  Elec       q    Type
REMARK                         _______ _______ _______ _____ _____    ______ ____
ROOT
ATOM      1  O   UNL     1      34.188 -11.995 -24.377  0.00  0.00    -0.425 OA
ATOM      2  N   UNL     1      32.575 -12.551 -22.884  0.00  0.00    -0.368 NA
ATOM      3  C   UNL     1      32.570  -8.855 -22.332  0.00  0.00    -0.027 C 
ATOM      4  C   UNL     1      32.765 -11.191 -22.868  0.00  0.00    +0.151 C 
ATOM      5  C   UNL     1      32.152 -10.176 -22.119  0.00  0.00    +0.085 C 
ATOM      6  C   UNL     1      33.752 -10.847 -23.781  0.00  0.00    +0.174 C 
ATOM      7  C   UNL     1      33.570  -8.551 -23.264  0.00  0.00    -0.004 C 
ATOM      8  C   UNL     1      34.192  -9.551 -24.019  0.00  0.00    +0.039 C 
ATOM      9  C   UNL     1      33.436 -12.967 -23.786  0.00  0.00    +0.282 C 
ENDROOT
BRANCH   9  11
ATOM     10  F   UNL     1      34.468 -18.150 -25.551  0.00  0.00    -0.204 F 
ATOM     11  C   UNL     1      33.702 -14.304 -24.241  0.00  0.00    +0.067 C 
ATOM     12  C   UNL     1      34.469 -15.173 -23.460  0.00  0.00    +0.008 C 
ATOM     13  C   UNL     1      33.195 -14.742 -25.468  0.00  0.00    +0.008 C 
ATOM     14  C   UNL     1      34.727 -16.471 -23.902  0.00  0.00    +0.030 C 
ATOM     15  C   UNL     1      33.455 -16.040 -25.910  0.00  0.00    +0.030 C 
ATOM     16  C   UNL     1      34.220 -16.904 -25.126  0.00  0.00    +0.140 C 
ENDBRANCH   9  11
BRANCH   3  17
ATOM     17  C   UNL     1      31.936  -7.751 -21.549  0.00  0.00    +0.118 C 
ATOM     18  C   UNL     1      32.282  -6.344 -22.074  0.00  0.00    +0.016 C 
BRANCH  17  20
ATOM     19  O   UNL     1      31.636  -8.476 -19.235  0.00  0.00    -0.250 OA
ATOM     20  C   UNL     1      32.270  -7.825 -20.055  0.00  0.00    +0.317 C 
BRANCH  20  21
ATOM     21  O   UNL     1      33.355  -7.080 -19.716  0.00  0.00    -0.480 OA
ATOM     22  H   UNL     1      33.939  -7.380 -19.048  0.00  0.00    +0.295 HD
ENDBRANCH  20  21
ENDBRANCH  17  20
ENDBRANCH   3  17
TORSDOF 4
ENDMDL
MODEL 8
REMARK VINA RESULT:      -9.6      4.143      8.940
REMARK  Name = 68869
REMARK  4 active torsions:
REMARK  status: ('A' for Active; 'I' for Inactive)
REMARK    1  A    between atoms: C_3  and  C_17
REMARK    2  A    between atoms: C_9  and  C_11
REMARK    3  A    between atoms: C_17  and  C_20
REMARK    4  A    between atoms: C_20  and  O_21
REMARK                            x       y       z     vdW  Elec       q    Type
REMARK                         _______ _______ _______ _____ _____    ______ ____
ROOT
ATOM      1  O   UNL     1      33.564 -17.054 -21.056  0.00  0.00    -0.425 OA
ATOM      2  N   UNL     1      34.749 -17.694 -22.879  0.00  0.00    -0.368 NA
ATOM      3  C   UNL     1      33.840 -14.250 -24.009  0.00  0.00    -0.027 C 
ATOM      4  C   UNL     1      34.290 -16.412 -23.058  0.00  0.00    +0.151 C 
ATOM      5  C   UNL     1      34.438 -15.513 -24.124  0.00  0.00    +0.085 C 
ATOM      6  C   UNL     1      33.564 -16.016 -21.944  0.00  0.00    +0.174 C 
ATOM      7  C   UNL     1      33.116 -13.890 -22.866  0.00  0.00    -0.004 C 
ATOM      8  C   UNL     1      32.959 -14.775 -21.794  0.00  0.00    +0.039 C 
ATOM      9  C   UNL     1      34.292 -18.016 -21.690  0.00  0.00    +0.282 C 
ENDROOT
BRANCH   9  11
ATOM     10  F   UNL     1      34.898 -22.770 -18.848  0.00  0.00    -0.204 F 
ATOM     11  C   UNL     1      34.448 -19.243 -20.957  0.00  0.00    +0.067 C 
ATOM     12  C   UNL     1      33.325 -19.926 -20.482  0.00  0.00    +0.008 C 
ATOM     13  C   UNL     1      35.725 -19.759 -20.715  0.00  0.00    +0.008 C 
ATOM     14  C   UNL     1      33.477 -21.117 -19.771  0.00  0.00    +0.030 C 
ATOM     15  C   UNL     1      35.876 -20.949 -20.003  0.00  0.00    +0.030 C 
ATOM     16  C   UNL     1      34.752 -21.628 -19.531  0.00  0.00    +0.140 C 
ENDBRANCH   9  11
BRANCH   3  17
ATOM     17  C   UNL     1      33.980 -13.270 -25.128  0.00  0.00    +0.118 C 
ATOM     18  C   UNL     1      33.448 -11.864 -24.787  0.00  0.00    +0.016 C 
BRANCH  17  20
ATOM     19  O   UNL     1      33.828 -13.689 -27.530  0.00  0.00    -0.250 OA
ATOM     20  C   UNL     1      33.316 -13.757 -26.421  0.00  0.00    +0.317 C 
BRANCH  20  21
ATOM     21  O   UNL     1      32.076 -14.276 -26.218  0.00  0.00    -0.480 OA
ATOM     22  H   UNL     1      31.373 -13.719 -25.950  0.00  0.00    +0.295 HD
ENDBRANCH  20  21
ENDBRANCH  17  20
ENDBRANCH   3  17
TORSDOF 4
ENDMDL
MODEL 9
REMARK VINA RESULT:      -9.5      3.909      6.230
REMARK  Name = 68869
REMARK  4 active torsions:
REMARK  status: ('A' for Active; 'I' for Inactive)
REMARK    1  A    between atoms: C_3  and  C_17
REMARK    2  A    between atoms: C_9  and  C_11
REMARK    3  A    between atoms: C_17  and  C_20
REMARK    4  A    between atoms: C_20  and  O_21
REMARK                            x       y       z     vdW  Elec       q    Type
REMARK                         _______ _______ _______ _____ _____    ______ ____
ROOT
ATOM      1  O   UNL     1      34.127 -14.843 -23.995  0.00  0.00    -0.425 OA
ATOM      2  N   UNL     1      33.565 -14.915 -21.800  0.00  0.00    -0.368 NA
ATOM      3  C   UNL     1      34.684 -18.460 -22.187  0.00  0.00    -0.027 C 
ATOM      4  C   UNL     1      34.024 -16.148 -22.196  0.00  0.00    +0.151 C 
ATOM      5  C   UNL     1      34.181 -17.350 -21.493  0.00  0.00    +0.085 C 
ATOM      6  C   UNL     1      34.368 -16.108 -23.540  0.00  0.00    +0.174 C 
ATOM      7  C   UNL     1      35.020 -18.377 -23.544  0.00  0.00    -0.004 C 
ATOM      8  C   UNL     1      34.869 -17.185 -24.261  0.00  0.00    +0.039 C 
ATOM      9  C   UNL     1      33.649 -14.194 -22.896  0.00  0.00    +0.282 C 
ENDROOT
BRANCH   9  11
ATOM     10  F   UNL     1      32.320  -8.844 -23.705  0.00  0.00    -0.204 F 
ATOM     11  C   UNL     1      33.307 -12.814 -23.104  0.00  0.00    +0.067 C 
ATOM     12  C   UNL     1      32.332 -12.204 -22.310  0.00  0.00    +0.008 C 
ATOM     13  C   UNL     1      33.946 -12.074 -24.103  0.00  0.00    +0.008 C 
ATOM     14  C   UNL     1      31.999 -10.864 -22.512  0.00  0.00    +0.030 C 
ATOM     15  C   UNL     1      33.613 -10.735 -24.306  0.00  0.00    +0.030 C 
ATOM     16  C   UNL     1      32.640 -10.130 -23.510  0.00  0.00    +0.140 C 
ENDBRANCH   9  11
BRANCH   3  17
ATOM     17  C   UNL     1      34.863 -19.756 -21.465  0.00  0.00    +0.118 C 
ATOM     18  C   UNL     1      33.662 -20.140 -20.579  0.00  0.00    +0.016 C 
BRANCH  17  20
ATOM     19  O   UNL     1      37.174 -19.194 -20.906  0.00  0.00    -0.250 OA
ATOM     20  C   UNL     1      36.140 -19.783 -20.619  0.00  0.00    +0.317 C 
BRANCH  20  21
ATOM     21  O   UNL     1      36.020 -20.544 -19.499  0.00  0.00    -0.480 OA
ATOM     22  H   UNL     1      35.434 -21.275 -19.491  0.00  0.00    +0.295 HD
ENDBRANCH  20  21
ENDBRANCH  17  20
ENDBRANCH   3  17
TORSDOF 4
ENDMDL
