MODEL 1
REMARK VINA RESULT:      -7.7      0.000      0.000
REMARK  Name = 36688246
REMARK  2 active torsions:
REMARK  status: ('A' for Active; 'I' for Inactive)
REMARK    1  A    between atoms: C_1  and  N_8
REMARK    2  A    between atoms: C_2  and  S_16
REMARK                            x       y       z     vdW  Elec       q    Type
REMARK                         _______ _______ _______ _____ _____    ______ ____
ROOT
ATOM      1  C   UNL     1      34.461 -17.118 -23.216  0.00  0.00    +0.066 C 
ATOM      2  C   UNL     1      33.897 -15.925 -22.763  0.00  0.00    +0.125 C 
ATOM      3  C   UNL     1      34.594 -17.352 -24.585  0.00  0.00    +0.016 C 
ATOM      4  C   UNL     1      33.466 -14.965 -23.679  0.00  0.00    +0.016 C 
ATOM      5  C   UNL     1      33.599 -15.199 -25.048  0.00  0.00    -0.020 C 
ATOM      6  C   UNL     1      34.163 -16.392 -25.500  0.00  0.00    -0.003 C 
ATOM      7  C   UNL     1      33.139 -14.173 -26.027  0.00  0.00    +0.031 C 
ENDROOT
BRANCH   1   8
ATOM      8  N   UNL     1      34.899 -18.097 -22.316  0.00  0.00    -0.311 N 
ATOM      9  N   UNL     1      35.765 -20.204 -20.653  0.00  0.00    +0.386 N 
ATOM     10  C   UNL     1      36.334 -18.392 -22.211  0.00  0.00    +0.067 C 
ATOM     11  C   UNL     1      33.986 -19.213 -22.024  0.00  0.00    +0.067 C 
ATOM     12  C   UNL     1      36.655 -19.026 -20.865  0.00  0.00    -0.060 C 
ATOM     13  C   UNL     1      34.320 -19.839 -20.677  0.00  0.00    -0.060 C 
ATOM     14  H   UNL     1      35.983 -20.619 -19.747  0.00  0.00    -0.084 HD
ATOM     15  H   UNL     1      35.932 -20.860 -21.415  0.00  0.00    -0.084 HD
ENDBRANCH   1   8
BRANCH   2  16
ATOM     16  S   UNL     1      33.713 -15.596 -21.053  0.00  0.00    +0.043 S 
ATOM     17  O   UNL     1      32.609 -16.477 -20.648  0.00  0.00    -0.065 OA
ATOM     18  O   UNL     1      35.003 -15.944 -20.440  0.00  0.00    -0.065 OA
ATOM     19  O   UNL     1      33.403 -14.161 -21.008  0.00  0.00    -0.065 OA
ENDBRANCH   2  16
TORSDOF 2
ENDMDL
MODEL 2
REMARK VINA RESULT:      -7.0     11.003     11.893
REMARK  Name = 36688246
REMARK  2 active torsions:
REMARK  status: ('A' for Active; 'I' for Inactive)
REMARK    1  A    between atoms: C_1  and  N_8
REMARK    2  A    between atoms: C_2  and  S_16
REMARK                            x       y       z     vdW  Elec       q    Type
REMARK                         _______ _______ _______ _____ _____    ______ ____
ROOT
ATOM      1  C   UNL     1      35.417 -24.350 -14.491  0.00  0.00    +0.066 C 
ATOM      2  C   UNL     1      34.932 -24.198 -13.192  0.00  0.00    +0.125 C 
ATOM      3  C   UNL     1      34.574 -24.127 -15.581  0.00  0.00    +0.016 C 
ATOM      4  C   UNL     1      33.605 -23.824 -12.982  0.00  0.00    +0.016 C 
ATOM      5  C   UNL     1      32.763 -23.601 -14.071  0.00  0.00    -0.020 C 
ATOM      6  C   UNL     1      33.248 -23.753 -15.371  0.00  0.00    -0.003 C 
ATOM      7  C   UNL     1      31.344 -23.200 -13.847  0.00  0.00    +0.031 C 
ENDROOT
BRANCH   1   8
ATOM      8  N   UNL     1      36.744 -24.726 -14.728  0.00  0.00    -0.311 N 
ATOM      9  N   UNL     1      39.364 -25.535 -15.391  0.00  0.00    +0.386 N 
ATOM     10  C   UNL     1      37.690 -23.741 -15.268  0.00  0.00    +0.067 C 
ATOM     11  C   UNL     1      37.003 -26.131 -15.078  0.00  0.00    +0.067 C 
ATOM     12  C   UNL     1      39.123 -24.135 -14.938  0.00  0.00    -0.060 C 
ATOM     13  C   UNL     1      38.439 -26.511 -14.746  0.00  0.00    -0.060 C 
ATOM     14  H   UNL     1      40.324 -25.793 -15.161  0.00  0.00    -0.084 HD
ATOM     15  H   UNL     1      39.198 -25.569 -16.397  0.00  0.00    -0.084 HD
ENDBRANCH   1   8
BRANCH   2  16
ATOM     16  S   UNL     1      35.958 -24.470 -11.799  0.00  0.00    +0.043 S 
ATOM     17  O   UNL     1      35.045 -24.305 -10.659  0.00  0.00    -0.065 OA
ATOM     18  O   UNL     1      36.477 -25.837 -11.949  0.00  0.00    -0.065 OA
ATOM     19  O   UNL     1      36.988 -23.429 -11.919  0.00  0.00    -0.065 OA
ENDBRANCH   2  16
TORSDOF 2
ENDMDL
MODEL 3
REMARK VINA RESULT:      -7.0      8.943      9.961
REMARK  Name = 36688246
REMARK  2 active torsions:
REMARK  status: ('A' for Active; 'I' for Inactive)
REMARK    1  A    between atoms: C_1  and  N_8
REMARK    2  A    between atoms: C_2  and  S_16
REMARK                            x       y       z     vdW  Elec       q    Type
REMARK                         _______ _______ _______ _____ _____    ______ ____
ROOT
ATOM      1  C   UNL     1      33.320 -23.499 -15.356  0.00  0.00    +0.066 C 
ATOM      2  C   UNL     1      32.694 -23.160 -16.556  0.00  0.00    +0.125 C 
ATOM      3  C   UNL     1      32.585 -23.529 -14.170  0.00  0.00    +0.016 C 
ATOM      4  C   UNL     1      31.333 -22.852 -16.570  0.00  0.00    +0.016 C 
ATOM      5  C   UNL     1      30.599 -22.882 -15.384  0.00  0.00    -0.020 C 
ATOM      6  C   UNL     1      31.225 -23.220 -14.185  0.00  0.00    -0.003 C 
ATOM      7  C   UNL     1      29.145 -22.552 -15.399  0.00  0.00    +0.031 C 
ENDROOT
BRANCH   1   8
ATOM      8  N   UNL     1      34.684 -23.811 -15.315  0.00  0.00    -0.311 N 
ATOM      9  N   UNL     1      37.431 -24.387 -15.040  0.00  0.00    +0.386 N 
ATOM     10  C   UNL     1      35.104 -25.170 -14.953  0.00  0.00    +0.067 C 
ATOM     11  C   UNL     1      35.621 -22.730 -14.972  0.00  0.00    +0.067 C 
ATOM     12  C   UNL     1      36.499 -25.462 -15.488  0.00  0.00    -0.060 C 
ATOM     13  C   UNL     1      37.011 -23.036 -15.510  0.00  0.00    -0.060 C 
ATOM     14  H   UNL     1      38.361 -24.587 -15.408  0.00  0.00    -0.084 HD
ATOM     15  H   UNL     1      37.425 -24.376 -14.021  0.00  0.00    -0.084 HD
ENDBRANCH   1   8
BRANCH   2  16
ATOM     16  S   UNL     1      33.581 -23.110 -18.064  0.00  0.00    +0.043 S 
ATOM     17  O   UNL     1      32.762 -22.241 -18.920  0.00  0.00    -0.065 OA
ATOM     18  O   UNL     1      34.896 -22.543 -17.732  0.00  0.00    -0.065 OA
ATOM     19  O   UNL     1      33.632 -24.517 -18.484  0.00  0.00    -0.065 OA
ENDBRANCH   2  16
TORSDOF 2
ENDMDL
MODEL 4
REMARK VINA RESULT:      -7.0      2.587      3.293
REMARK  Name = 36688246
REMARK  2 active torsions:
REMARK  status: ('A' for Active; 'I' for Inactive)
REMARK    1  A    between atoms: C_1  and  N_8
REMARK    2  A    between atoms: C_2  and  S_16
REMARK                            x       y       z     vdW  Elec       q    Type
REMARK                         _______ _______ _______ _____ _____    ______ ____
ROOT
ATOM      1  C   UNL     1      34.344 -16.701 -22.057  0.00  0.00    +0.066 C 
ATOM      2  C   UNL     1      34.409 -16.526 -23.439  0.00  0.00    +0.125 C 
ATOM      3  C   UNL     1      34.072 -15.612 -21.228  0.00  0.00    +0.016 C 
ATOM      4  C   UNL     1      34.202 -15.263 -23.994  0.00  0.00    +0.016 C 
ATOM      5  C   UNL     1      33.930 -14.175 -23.165  0.00  0.00    -0.020 C 
ATOM      6  C   UNL     1      33.865 -14.349 -21.782  0.00  0.00    -0.003 C 
ATOM      7  C   UNL     1      33.708 -12.824 -23.757  0.00  0.00    +0.031 C 
ENDROOT
BRANCH   1   8
ATOM      8  N   UNL     1      34.550 -17.958 -21.477  0.00  0.00    -0.311 N 
ATOM      9  N   UNL     1      34.983 -20.399 -20.130  0.00  0.00    +0.386 N 
ATOM     10  C   UNL     1      33.400 -18.717 -20.969  0.00  0.00    +0.067 C 
ATOM     11  C   UNL     1      35.833 -18.194 -20.796  0.00  0.00    +0.067 C 
ATOM     12  C   UNL     1      33.724 -20.203 -20.905  0.00  0.00    -0.060 C 
ATOM     13  C   UNL     1      36.142 -19.683 -20.737  0.00  0.00    -0.060 C 
ATOM     14  H   UNL     1      35.195 -21.396 -20.098  0.00  0.00    -0.084 HD
ATOM     15  H   UNL     1      34.835 -20.016 -19.197  0.00  0.00    -0.084 HD
ENDBRANCH   1   8
BRANCH   2  16
ATOM     16  S   UNL     1      34.750 -17.868 -24.512  0.00  0.00    +0.043 S 
ATOM     17  O   UNL     1      35.957 -18.476 -23.934  0.00  0.00    -0.065 OA
ATOM     18  O   UNL     1      33.564 -18.735 -24.451  0.00  0.00    -0.065 OA
ATOM     19  O   UNL     1      34.948 -17.226 -25.818  0.00  0.00    -0.065 OA
ENDBRANCH   2  16
TORSDOF 2
ENDMDL
MODEL 5
REMARK VINA RESULT:      -6.9      2.620      4.967
REMARK  Name = 36688246
REMARK  2 active torsions:
REMARK  status: ('A' for Active; 'I' for Inactive)
REMARK    1  A    between atoms: C_1  and  N_8
REMARK    2  A    between atoms: C_2  and  S_16
REMARK                            x       y       z     vdW  Elec       q    Type
REMARK                         _______ _______ _______ _____ _____    ______ ____
ROOT
ATOM      1  C   UNL     1      33.835 -15.235 -23.666  0.00  0.00    +0.066 C 
ATOM      2  C   UNL     1      34.271 -16.053 -22.624  0.00  0.00    +0.125 C 
ATOM      3  C   UNL     1      33.794 -15.729 -24.970  0.00  0.00    +0.016 C 
ATOM      4  C   UNL     1      34.666 -17.365 -22.885  0.00  0.00    +0.016 C 
ATOM      5  C   UNL     1      34.625 -17.859 -24.189  0.00  0.00    -0.020 C 
ATOM      6  C   UNL     1      34.189 -17.041 -25.231  0.00  0.00    -0.003 C 
ATOM      7  C   UNL     1      35.047 -19.261 -24.469  0.00  0.00    +0.031 C 
ENDROOT
BRANCH   1   8
ATOM      8  N   UNL     1      33.434 -13.914 -23.430  0.00  0.00    -0.311 N 
ATOM      9  N   UNL     1      32.542 -11.255 -23.135  0.00  0.00    +0.386 N 
ATOM     10  C   UNL     1      32.131 -13.655 -22.805  0.00  0.00    +0.067 C 
ATOM     11  C   UNL     1      33.931 -12.876 -24.346  0.00  0.00    +0.067 C 
ATOM     12  C   UNL     1      32.117 -12.284 -22.143  0.00  0.00    -0.060 C 
ATOM     13  C   UNL     1      33.909 -11.512 -23.672  0.00  0.00    -0.060 C 
ATOM     14  H   UNL     1      32.535 -10.341 -22.682  0.00  0.00    -0.084 HD
ATOM     15  H   UNL     1      31.889 -11.290 -23.918  0.00  0.00    -0.084 HD
ENDBRANCH   1   8
BRANCH   2  16
ATOM     16  S   UNL     1      34.338 -15.469 -20.974  0.00  0.00    +0.043 S 
ATOM     17  O   UNL     1      35.176 -16.463 -20.289  0.00  0.00    -0.065 OA
ATOM     18  O   UNL     1      34.947 -14.133 -21.051  0.00  0.00    -0.065 OA
ATOM     19  O   UNL     1      32.930 -15.455 -20.554  0.00  0.00    -0.065 OA
ENDBRANCH   2  16
TORSDOF 2
ENDMDL
MODEL 6
REMARK VINA RESULT:      -6.8      9.648     11.174
REMARK  Name = 36688246
REMARK  2 active torsions:
REMARK  status: ('A' for Active; 'I' for Inactive)
REMARK    1  A    between atoms: C_1  and  N_8
REMARK    2  A    between atoms: C_2  and  S_16
REMARK                            x       y       z     vdW  Elec       q    Type
REMARK                         _______ _______ _______ _____ _____    ______ ____
ROOT
ATOM      1  C   UNL     1      34.779 -23.914 -13.956  0.00  0.00    +0.066 C 
ATOM      2  C   UNL     1      34.808 -23.376 -15.242  0.00  0.00    +0.125 C 
ATOM      3  C   UNL     1      33.559 -24.257 -13.370  0.00  0.00    +0.016 C 
ATOM      4  C   UNL     1      33.618 -23.181 -15.944  0.00  0.00    +0.016 C 
ATOM      5  C   UNL     1      32.399 -23.524 -15.359  0.00  0.00    -0.020 C 
ATOM      6  C   UNL     1      32.370 -24.062 -14.072  0.00  0.00    -0.003 C 
ATOM      7  C   UNL     1      31.127 -23.315 -16.109  0.00  0.00    +0.031 C 
ENDROOT
BRANCH   1   8
ATOM      8  N   UNL     1      35.959 -24.118 -13.231  0.00  0.00    -0.311 N 
ATOM      9  N   UNL     1      38.223 -24.551 -11.605  0.00  0.00    +0.386 N 
ATOM     10  C   UNL     1      36.478 -25.481 -13.063  0.00  0.00    +0.067 C 
ATOM     11  C   UNL     1      36.267 -23.170 -12.149  0.00  0.00    +0.067 C 
ATOM     12  C   UNL     1      37.970 -25.455 -12.764  0.00  0.00    -0.060 C 
ATOM     13  C   UNL     1      37.761 -23.156 -11.859  0.00  0.00    -0.060 C 
ATOM     14  H   UNL     1      39.225 -24.535 -11.416  0.00  0.00    -0.084 HD
ATOM     15  H   UNL     1      37.697 -24.912 -10.810  0.00  0.00    -0.084 HD
ENDBRANCH   1   8
BRANCH   2  16
ATOM     16  S   UNL     1      36.318 -22.932 -16.010  0.00  0.00    +0.043 S 
ATOM     17  O   UNL     1      36.780 -21.779 -15.225  0.00  0.00    -0.065 OA
ATOM     18  O   UNL     1      37.185 -24.113 -15.892  0.00  0.00    -0.065 OA
ATOM     19  O   UNL     1      35.926 -22.621 -17.391  0.00  0.00    -0.065 OA
ENDBRANCH   2  16
TORSDOF 2
ENDMDL
MODEL 7
REMARK VINA RESULT:      -6.6      9.254     10.739
REMARK  Name = 36688246
REMARK  2 active torsions:
REMARK  status: ('A' for Active; 'I' for Inactive)
REMARK    1  A    between atoms: C_1  and  N_8
REMARK    2  A    between atoms: C_2  and  S_16
REMARK                            x       y       z     vdW  Elec       q    Type
REMARK                         _______ _______ _______ _____ _____    ______ ____
ROOT
ATOM      1  C   UNL     1      32.314 -23.366 -16.069  0.00  0.00    +0.066 C 
ATOM      2  C   UNL     1      33.195 -23.560 -15.005  0.00  0.00    +0.125 C 
ATOM      3  C   UNL     1      32.800 -22.965 -17.313  0.00  0.00    +0.016 C 
ATOM      4  C   UNL     1      34.563 -23.352 -15.185  0.00  0.00    +0.016 C 
ATOM      5  C   UNL     1      35.048 -22.950 -16.430  0.00  0.00    -0.020 C 
ATOM      6  C   UNL     1      34.167 -22.757 -17.494  0.00  0.00    -0.003 C 
ATOM      7  C   UNL     1      36.510 -22.727 -16.623  0.00  0.00    +0.031 C 
ENDROOT
BRANCH   1   8
ATOM      8  N   UNL     1      30.937 -23.567 -15.912  0.00  0.00    -0.311 N 
ATOM      9  N   UNL     1      28.146 -23.956 -15.797  0.00  0.00    +0.386 N 
ATOM     10  C   UNL     1      30.395 -24.931 -15.966  0.00  0.00    +0.067 C 
ATOM     11  C   UNL     1      30.036 -22.494 -16.359  0.00  0.00    +0.067 C 
ATOM     12  C   UNL     1      29.054 -25.004 -15.248  0.00  0.00    -0.060 C 
ATOM     13  C   UNL     1      28.700 -22.581 -15.636  0.00  0.00    -0.060 C 
ATOM     14  H   UNL     1      27.253 -24.009 -15.306  0.00  0.00    -0.084 HD
ATOM     15  H   UNL     1      28.036 -24.132 -16.795  0.00  0.00    -0.084 HD
ENDBRANCH   1   8
BRANCH   2  16
ATOM     16  S   UNL     1      32.624 -24.063 -13.428  0.00  0.00    +0.043 S 
ATOM     17  O   UNL     1      33.812 -23.937 -12.572  0.00  0.00    -0.065 OA
ATOM     18  O   UNL     1      31.543 -23.128 -13.081  0.00  0.00    -0.065 OA
ATOM     19  O   UNL     1      32.166 -25.441 -13.648  0.00  0.00    -0.065 OA
ENDBRANCH   2  16
TORSDOF 2
ENDMDL
MODEL 8
REMARK VINA RESULT:      -6.5      8.146     10.395
REMARK  Name = 36688246
REMARK  2 active torsions:
REMARK  status: ('A' for Active; 'I' for Inactive)
REMARK    1  A    between atoms: C_1  and  N_8
REMARK    2  A    between atoms: C_2  and  S_16
REMARK                            x       y       z     vdW  Elec       q    Type
REMARK                         _______ _______ _______ _____ _____    ______ ____
ROOT
ATOM      1  C   UNL     1      36.632 -23.071 -15.337  0.00  0.00    +0.066 C 
ATOM      2  C   UNL     1      35.323 -23.292 -15.763  0.00  0.00    +0.125 C 
ATOM      3  C   UNL     1      37.515 -22.348 -16.141  0.00  0.00    +0.016 C 
ATOM      4  C   UNL     1      34.895 -22.791 -16.993  0.00  0.00    +0.016 C 
ATOM      5  C   UNL     1      35.778 -22.069 -17.796  0.00  0.00    -0.020 C 
ATOM      6  C   UNL     1      37.088 -21.847 -17.370  0.00  0.00    -0.003 C 
ATOM      7  C   UNL     1      35.321 -21.533 -19.111  0.00  0.00    +0.031 C 
ENDROOT
BRANCH   1   8
ATOM      8  N   UNL     1      37.086 -23.565 -14.108  0.00  0.00    -0.311 N 
ATOM      9  N   UNL     1      38.186 -24.520 -11.693  0.00  0.00    +0.386 N 
ATOM     10  C   UNL     1      37.256 -22.643 -12.977  0.00  0.00    +0.067 C 
ATOM     11  C   UNL     1      37.976 -24.735 -14.129  0.00  0.00    +0.067 C 
ATOM     12  C   UNL     1      37.203 -23.398 -11.657  0.00  0.00    -0.060 C 
ATOM     13  C   UNL     1      37.915 -25.478 -12.803  0.00  0.00    -0.060 C 
ATOM     14  H   UNL     1      38.139 -25.024 -10.807  0.00  0.00    -0.084 HD
ATOM     15  H   UNL     1      39.110 -24.119 -11.848  0.00  0.00    -0.084 HD
ENDBRANCH   1   8
BRANCH   2  16
ATOM     16  S   UNL     1      34.186 -24.195 -14.784  0.00  0.00    +0.043 S 
ATOM     17  O   UNL     1      34.721 -25.564 -14.806  0.00  0.00    -0.065 OA
ATOM     18  O   UNL     1      34.221 -23.568 -13.455  0.00  0.00    -0.065 OA
ATOM     19  O   UNL     1      32.908 -24.022 -15.487  0.00  0.00    -0.065 OA
ENDBRANCH   2  16
TORSDOF 2
ENDMDL
MODEL 9
REMARK VINA RESULT:      -6.5      8.838     10.282
REMARK  Name = 36688246
REMARK  2 active torsions:
REMARK  status: ('A' for Active; 'I' for Inactive)
REMARK    1  A    between atoms: C_1  and  N_8
REMARK    2  A    between atoms: C_2  and  S_16
REMARK                            x       y       z     vdW  Elec       q    Type
REMARK                         _______ _______ _______ _____ _____    ______ ____
ROOT
ATOM      1  C   UNL     1      33.306  -7.274 -23.505  0.00  0.00    +0.066 C 
ATOM      2  C   UNL     1      32.520  -6.299 -24.119  0.00  0.00    +0.125 C 
ATOM      3  C   UNL     1      34.589  -7.540 -23.985  0.00  0.00    +0.016 C 
ATOM      4  C   UNL     1      33.017  -5.589 -25.213  0.00  0.00    +0.016 C 
ATOM      5  C   UNL     1      34.299  -5.855 -25.692  0.00  0.00    -0.020 C 
ATOM      6  C   UNL     1      35.085  -6.831 -25.078  0.00  0.00    -0.003 C 
ATOM      7  C   UNL     1      34.830  -5.097 -26.861  0.00  0.00    +0.031 C 
ENDROOT
BRANCH   1   8
ATOM      8  N   UNL     1      32.830  -8.001 -22.408  0.00  0.00    -0.311 N 
ATOM      9  N   UNL     1      32.041  -9.572 -20.202  0.00  0.00    +0.386 N 
ATOM     10  C   UNL     1      33.151  -7.550 -21.048  0.00  0.00    +0.067 C 
ATOM     11  C   UNL     1      32.635  -9.449 -22.580  0.00  0.00    +0.067 C 
ATOM     12  C   UNL     1      32.138  -8.091 -20.049  0.00  0.00    -0.060 C 
ATOM     13  C   UNL     1      31.623  -9.976 -21.574  0.00  0.00    -0.060 C 
ATOM     14  H   UNL     1      31.356  -9.925 -19.533  0.00  0.00    -0.084 HD
ATOM     15  H   UNL     1      32.967  -9.962 -20.031  0.00  0.00    -0.084 HD
ENDBRANCH   1   8
BRANCH   2  16
ATOM     16  S   UNL     1      30.905  -5.937 -23.547  0.00  0.00    +0.043 S 
ATOM     17  O   UNL     1      30.247  -7.251 -23.513  0.00  0.00    -0.065 OA
ATOM     18  O   UNL     1      31.082  -5.330 -22.219  0.00  0.00    -0.065 OA
ATOM     19  O   UNL     1      30.379  -5.010 -24.557  0.00  0.00    -0.065 OA
ENDBRANCH   2  16
TORSDOF 2
ENDMDL
