MODEL 1
REMARK VINA RESULT:      -9.4      0.000      0.000
REMARK  Name = 60953
REMARK  8 active torsions:
REMARK  status: ('A' for Active; 'I' for Inactive)
REMARK    1  A    between atoms: N_4  and  C_16
REMARK    2  A    between atoms: C_11  and  O_23
REMARK    3  A    between atoms: C_14  and  O_19
REMARK    4  A    between atoms: C_15  and  O_21
REMARK    5  A    between atoms: O_23  and  C_24
REMARK    6  A    between atoms: C_24  and  C_25
REMARK    7  A    between atoms: C_25  and  C_26
REMARK    8  A    between atoms: C_26  and  C_27
REMARK                            x       y       z     vdW  Elec       q    Type
REMARK                         _______ _______ _______ _____ _____    ______ ____
ROOT
ATOM      1  F   UNL     1      34.641 -11.102 -24.986  0.00  0.00    -0.199 F 
ATOM      2  O   UNL     1      30.936 -10.985 -21.105  0.00  0.00    -0.193 OA
ATOM      3  O   UNL     1      32.488 -14.855 -22.554  0.00  0.00    -0.226 OA
ATOM      4  N   UNL     1      32.275  -9.789 -22.565  0.00  0.00    -0.176 N 
ATOM      5  N   UNL     1      32.285 -12.214 -22.463  0.00  0.00    -0.303 NA
ATOM      6  N   UNL     1      33.690 -13.377 -23.885  0.00  0.00    -0.223 N 
ATOM      7  C   UNL     1      33.235  -9.839 -23.570  0.00  0.00    +0.113 C 
ATOM      8  C   UNL     1      31.788 -11.003 -21.997  0.00  0.00    +0.276 C 
ATOM      9  C   UNL     1      33.715 -10.994 -24.020  0.00  0.00    +0.200 C 
ATOM     10  C   UNL     1      33.177 -12.206 -23.399  0.00  0.00    +0.232 C 
ATOM     11  C   UNL     1      33.313 -14.625 -23.432  0.00  0.00    +0.407 C 
ATOM     12  H   UNL     1      34.368 -13.327 -24.597  0.00  0.00    +0.161 HD
ENDROOT
BRANCH   4  16
ATOM     13  O   UNL     1      31.238  -7.798 -23.218  0.00  0.00    -0.335 OA
ATOM     14  C   UNL     1      32.872  -7.654 -21.507  0.00  0.00    +0.188 C 
ATOM     15  C   UNL     1      32.364  -6.261 -21.812  0.00  0.00    +0.169 C 
ATOM     16  C   UNL     1      31.779  -8.525 -22.102  0.00  0.00    +0.236 C 
ATOM     17  C   UNL     1      31.735  -6.443 -23.186  0.00  0.00    +0.146 C 
ATOM     18  C   UNL     1      32.728  -6.273 -24.329  0.00  0.00    +0.035 C 
BRANCH  14  19
ATOM     19  O   UNL     1      33.048  -7.872 -20.122  0.00  0.00    -0.378 OA
ATOM     20  H   UNL     1      32.572  -7.188 -19.625  0.00  0.00    +0.211 HD
ENDBRANCH  14  19
BRANCH  15  21
ATOM     21  O   UNL     1      31.327  -5.901 -20.898  0.00  0.00    -0.379 OA
ATOM     22  H   UNL     1      30.616  -5.450 -21.378  0.00  0.00    +0.211 HD
ENDBRANCH  15  21
ENDBRANCH   4  16
BRANCH  11  23
ATOM     23  O   UNL     1      34.006 -15.583 -24.117  0.00  0.00    -0.434 OA
BRANCH  23  24
ATOM     24  C   UNL     1      34.735 -16.518 -23.315  0.00  0.00    +0.210 C 
BRANCH  24  25
ATOM     25  C   UNL     1      34.857 -17.831 -24.077  0.00  0.00    +0.048 C 
BRANCH  25  26
ATOM     26  C   UNL     1      34.790 -19.035 -23.141  0.00  0.00    +0.004 C 
BRANCH  26  27
ATOM     27  C   UNL     1      34.466 -18.608 -21.709  0.00  0.00    +0.000 C 
ATOM     28  C   UNL     1      33.689 -19.686 -20.969  0.00  0.00    +0.000 C 
ENDBRANCH  26  27
ENDBRANCH  25  26
ENDBRANCH  24  25
ENDBRANCH  23  24
ENDBRANCH  11  23
TORSDOF 8
ENDMDL
MODEL 2
REMARK VINA RESULT:      -9.2      9.272     14.516
REMARK  Name = 60953
REMARK  8 active torsions:
REMARK  status: ('A' for Active; 'I' for Inactive)
REMARK    1  A    between atoms: N_4  and  C_16
REMARK    2  A    between atoms: C_11  and  O_23
REMARK    3  A    between atoms: C_14  and  O_19
REMARK    4  A    between atoms: C_15  and  O_21
REMARK    5  A    between atoms: O_23  and  C_24
REMARK    6  A    between atoms: C_24  and  C_25
REMARK    7  A    between atoms: C_25  and  C_26
REMARK    8  A    between atoms: C_26  and  C_27
REMARK                            x       y       z     vdW  Elec       q    Type
REMARK                         _______ _______ _______ _____ _____    ______ ____
ROOT
ATOM      1  F   UNL     1      37.441 -21.159 -18.134  0.00  0.00    -0.199 F 
ATOM      2  O   UNL     1      33.999 -24.434 -15.641  0.00  0.00    -0.193 OA
ATOM      3  O   UNL     1      32.661 -22.064 -19.116  0.00  0.00    -0.226 OA
ATOM      4  N   UNL     1      36.144 -23.574 -15.754  0.00  0.00    -0.176 N 
ATOM      5  N   UNL     1      34.390 -22.932 -17.303  0.00  0.00    -0.303 NA
ATOM      6  N   UNL     1      34.882 -21.397 -18.961  0.00  0.00    -0.223 N 
ATOM      7  C   UNL     1      37.021 -22.720 -16.413  0.00  0.00    +0.113 C 
ATOM      8  C   UNL     1      34.797 -23.685 -16.208  0.00  0.00    +0.276 C 
ATOM      9  C   UNL     1      36.639 -21.998 -17.461  0.00  0.00    +0.200 C 
ATOM     10  C   UNL     1      35.245 -22.153 -17.881  0.00  0.00    +0.232 C 
ATOM     11  C   UNL     1      33.615 -21.401 -19.509  0.00  0.00    +0.407 C 
ATOM     12  H   UNL     1      35.564 -20.817 -19.372  0.00  0.00    +0.161 HD
ENDROOT
BRANCH   4  16
ATOM     13  O   UNL     1      37.829 -23.788 -14.147  0.00  0.00    -0.335 OA
ATOM     14  C   UNL     1      36.872 -25.790 -14.982  0.00  0.00    +0.188 C 
ATOM     15  C   UNL     1      37.966 -26.148 -13.999  0.00  0.00    +0.169 C 
ATOM     16  C   UNL     1      36.591 -24.340 -14.626  0.00  0.00    +0.236 C 
ATOM     17  C   UNL     1      38.774 -24.859 -13.935  0.00  0.00    +0.146 C 
ATOM     18  C   UNL     1      39.846 -24.768 -15.013  0.00  0.00    +0.035 C 
BRANCH  14  19
ATOM     19  O   UNL     1      35.734 -26.614 -14.844  0.00  0.00    -0.378 OA
ATOM     20  H   UNL     1      35.802 -27.124 -14.021  0.00  0.00    +0.211 HD
ENDBRANCH  14  19
BRANCH  15  21
ATOM     21  O   UNL     1      37.410 -26.383 -12.704  0.00  0.00    -0.379 OA
ATOM     22  H   UNL     1      37.634 -27.281 -12.415  0.00  0.00    +0.211 HD
ENDBRANCH  15  21
ENDBRANCH   4  16
BRANCH  11  23
ATOM     23  O   UNL     1      33.579 -20.541 -20.570  0.00  0.00    -0.434 OA
BRANCH  23  24
ATOM     24  C   UNL     1      34.818 -19.903 -20.898  0.00  0.00    +0.210 C 
BRANCH  24  25
ATOM     25  C   UNL     1      34.523 -18.569 -21.570  0.00  0.00    +0.048 C 
BRANCH  25  26
ATOM     26  C   UNL     1      35.409 -18.345 -22.793  0.00  0.00    +0.004 C 
BRANCH  26  27
ATOM     27  C   UNL     1      34.833 -19.036 -24.030  0.00  0.00    +0.000 C 
ATOM     28  C   UNL     1      34.432 -18.028 -25.095  0.00  0.00    +0.000 C 
ENDBRANCH  26  27
ENDBRANCH  25  26
ENDBRANCH  24  25
ENDBRANCH  23  24
ENDBRANCH  11  23
TORSDOF 8
ENDMDL
MODEL 3
REMARK VINA RESULT:      -9.1      9.712     14.695
REMARK  Name = 60953
REMARK  8 active torsions:
REMARK  status: ('A' for Active; 'I' for Inactive)
REMARK    1  A    between atoms: N_4  and  C_16
REMARK    2  A    between atoms: C_11  and  O_23
REMARK    3  A    between atoms: C_14  and  O_19
REMARK    4  A    between atoms: C_15  and  O_21
REMARK    5  A    between atoms: O_23  and  C_24
REMARK    6  A    between atoms: C_24  and  C_25
REMARK    7  A    between atoms: C_25  and  C_26
REMARK    8  A    between atoms: C_26  and  C_27
REMARK                            x       y       z     vdW  Elec       q    Type
REMARK                         _______ _______ _______ _____ _____    ______ ____
ROOT
ATOM      1  F   UNL     1      37.188 -22.000 -18.124  0.00  0.00    -0.199 F 
ATOM      2  O   UNL     1      33.997 -23.729 -14.172  0.00  0.00    -0.193 OA
ATOM      3  O   UNL     1      32.253 -22.526 -18.045  0.00  0.00    -0.226 OA
ATOM      4  N   UNL     1      36.148 -23.260 -14.882  0.00  0.00    -0.176 N 
ATOM      5  N   UNL     1      34.203 -22.951 -16.299  0.00  0.00    -0.303 NA
ATOM      6  N   UNL     1      34.512 -22.154 -18.448  0.00  0.00    -0.223 N 
ATOM      7  C   UNL     1      36.959 -22.808 -15.917  0.00  0.00    +0.113 C 
ATOM      8  C   UNL     1      34.738 -23.333 -15.075  0.00  0.00    +0.276 C 
ATOM      9  C   UNL     1      36.454 -22.441 -17.091  0.00  0.00    +0.200 C 
ATOM     10  C   UNL     1      35.000 -22.539 -17.230  0.00  0.00    +0.232 C 
ATOM     11  C   UNL     1      33.171 -22.172 -18.777  0.00  0.00    +0.407 C 
ATOM     12  H   UNL     1      35.153 -21.847 -19.129  0.00  0.00    +0.161 HD
ENDROOT
BRANCH   4  16
ATOM     13  O   UNL     1      38.154 -23.490 -13.702  0.00  0.00    -0.335 OA
ATOM     14  C   UNL     1      36.470 -25.109 -13.298  0.00  0.00    +0.188 C 
ATOM     15  C   UNL     1      37.692 -25.466 -12.479  0.00  0.00    +0.169 C 
ATOM     16  C   UNL     1      36.727 -23.648 -13.627  0.00  0.00    +0.236 C 
ATOM     17  C   UNL     1      38.789 -24.678 -13.182  0.00  0.00    +0.146 C 
ATOM     18  C   UNL     1      39.416 -25.431 -14.349  0.00  0.00    +0.035 C 
BRANCH  14  19
ATOM     19  O   UNL     1      35.268 -25.301 -12.581  0.00  0.00    -0.378 OA
ATOM     20  H   UNL     1      35.048 -24.490 -12.097  0.00  0.00    +0.211 HD
ENDBRANCH  14  19
BRANCH  15  21
ATOM     21  O   UNL     1      37.566 -24.953 -11.152  0.00  0.00    -0.379 OA
ATOM     22  H   UNL     1      38.254 -24.289 -10.995  0.00  0.00    +0.211 HD
ENDBRANCH  15  21
ENDBRANCH   4  16
BRANCH  11  23
ATOM     23  O   UNL     1      33.015 -21.729 -20.060  0.00  0.00    -0.434 OA
BRANCH  23  24
ATOM     24  C   UNL     1      33.003 -20.307 -20.232  0.00  0.00    +0.210 C 
BRANCH  24  25
ATOM     25  C   UNL     1      34.021 -19.931 -21.299  0.00  0.00    +0.048 C 
BRANCH  25  26
ATOM     26  C   UNL     1      34.311 -18.432 -21.300  0.00  0.00    +0.004 C 
BRANCH  26  27
ATOM     27  C   UNL     1      35.130 -18.025 -22.525  0.00  0.00    +0.000 C 
ATOM     28  C   UNL     1      34.997 -19.043 -23.647  0.00  0.00    +0.000 C 
ENDBRANCH  26  27
ENDBRANCH  25  26
ENDBRANCH  24  25
ENDBRANCH  23  24
ENDBRANCH  11  23
TORSDOF 8
ENDMDL
MODEL 4
REMARK VINA RESULT:      -9.1      6.721      9.817
REMARK  Name = 60953
REMARK  8 active torsions:
REMARK  status: ('A' for Active; 'I' for Inactive)
REMARK    1  A    between atoms: N_4  and  C_16
REMARK    2  A    between atoms: C_11  and  O_23
REMARK    3  A    between atoms: C_14  and  O_19
REMARK    4  A    between atoms: C_15  and  O_21
REMARK    5  A    between atoms: O_23  and  C_24
REMARK    6  A    between atoms: C_24  and  C_25
REMARK    7  A    between atoms: C_25  and  C_26
REMARK    8  A    between atoms: C_26  and  C_27
REMARK                            x       y       z     vdW  Elec       q    Type
REMARK                         _______ _______ _______ _____ _____    ______ ____
ROOT
ATOM      1  F   UNL     1      32.481 -20.653 -20.518  0.00  0.00    -0.199 F 
ATOM      2  O   UNL     1      37.455 -18.885 -21.481  0.00  0.00    -0.193 OA
ATOM      3  O   UNL     1      36.739 -21.794 -18.239  0.00  0.00    -0.226 OA
ATOM      4  N   UNL     1      35.214 -18.822 -22.053  0.00  0.00    -0.176 N 
ATOM      5  N   UNL     1      36.068 -20.202 -20.249  0.00  0.00    -0.303 NA
ATOM      6  N   UNL     1      34.581 -21.507 -19.053  0.00  0.00    -0.223 N 
ATOM      7  C   UNL     1      33.932 -19.291 -21.788  0.00  0.00    +0.113 C 
ATOM      8  C   UNL     1      36.309 -19.286 -21.267  0.00  0.00    +0.276 C 
ATOM      9  C   UNL     1      33.695 -20.167 -20.817  0.00  0.00    +0.200 C 
ATOM     10  C   UNL     1      34.858 -20.608 -20.044  0.00  0.00    +0.232 C 
ATOM     11  C   UNL     1      35.539 -22.043 -18.214  0.00  0.00    +0.407 C 
ATOM     12  H   UNL     1      33.646 -21.791 -18.930  0.00  0.00    +0.161 HD
ENDROOT
BRANCH   4  16
ATOM     13  O   UNL     1      35.480 -16.553 -22.550  0.00  0.00    -0.335 OA
ATOM     14  C   UNL     1      34.309 -17.875 -24.131  0.00  0.00    +0.188 C 
ATOM     15  C   UNL     1      34.327 -16.441 -24.617  0.00  0.00    +0.169 C 
ATOM     16  C   UNL     1      35.434 -17.876 -23.110  0.00  0.00    +0.236 C 
ATOM     17  C   UNL     1      34.649 -15.675 -23.341  0.00  0.00    +0.146 C 
ATOM     18  C   UNL     1      33.412 -15.327 -22.521  0.00  0.00    +0.035 C 
BRANCH  14  19
ATOM     19  O   UNL     1      34.525 -18.799 -25.178  0.00  0.00    -0.378 OA
ATOM     20  H   UNL     1      35.189 -18.445 -25.790  0.00  0.00    +0.211 HD
ENDBRANCH  14  19
BRANCH  15  21
ATOM     21  O   UNL     1      35.406 -16.242 -25.532  0.00  0.00    -0.379 OA
ATOM     22  H   UNL     1      36.238 -16.509 -25.112  0.00  0.00    +0.211 HD
ENDBRANCH  15  21
ENDBRANCH   4  16
BRANCH  11  23
ATOM     23  O   UNL     1      34.942 -22.904 -17.338  0.00  0.00    -0.434 OA
BRANCH  23  24
ATOM     24  C   UNL     1      33.555 -23.172 -17.574  0.00  0.00    +0.210 C 
BRANCH  24  25
ATOM     25  C   UNL     1      32.855 -23.366 -16.236  0.00  0.00    +0.048 C 
BRANCH  25  26
ATOM     26  C   UNL     1      31.355 -23.104 -16.340  0.00  0.00    +0.004 C 
BRANCH  26  27
ATOM     27  C   UNL     1      30.733 -22.879 -14.962  0.00  0.00    +0.000 C 
ATOM     28  C   UNL     1      31.739 -23.129 -13.849  0.00  0.00    +0.000 C 
ENDBRANCH  26  27
ENDBRANCH  25  26
ENDBRANCH  24  25
ENDBRANCH  23  24
ENDBRANCH  11  23
TORSDOF 8
ENDMDL
MODEL 5
REMARK VINA RESULT:      -9.1      9.455     14.668
REMARK  Name = 60953
REMARK  8 active torsions:
REMARK  status: ('A' for Active; 'I' for Inactive)
REMARK    1  A    between atoms: N_4  and  C_16
REMARK    2  A    between atoms: C_11  and  O_23
REMARK    3  A    between atoms: C_14  and  O_19
REMARK    4  A    between atoms: C_15  and  O_21
REMARK    5  A    between atoms: O_23  and  C_24
REMARK    6  A    between atoms: C_24  and  C_25
REMARK    7  A    between atoms: C_25  and  C_26
REMARK    8  A    between atoms: C_26  and  C_27
REMARK                            x       y       z     vdW  Elec       q    Type
REMARK                         _______ _______ _______ _____ _____    ______ ____
ROOT
ATOM      1  F   UNL     1      37.556 -21.530 -17.222  0.00  0.00    -0.199 F 
ATOM      2  O   UNL     1      33.529 -24.611 -15.467  0.00  0.00    -0.193 OA
ATOM      3  O   UNL     1      33.012 -22.177 -19.112  0.00  0.00    -0.226 OA
ATOM      4  N   UNL     1      35.698 -23.869 -15.158  0.00  0.00    -0.176 N 
ATOM      5  N   UNL     1      34.311 -23.135 -17.009  0.00  0.00    -0.303 NA
ATOM      6  N   UNL     1      35.194 -21.630 -18.527  0.00  0.00    -0.223 N 
ATOM      7  C   UNL     1      36.730 -23.064 -15.628  0.00  0.00    +0.113 C 
ATOM      8  C   UNL     1      34.460 -23.907 -15.863  0.00  0.00    +0.276 C 
ATOM      9  C   UNL     1      36.595 -22.323 -16.723  0.00  0.00    +0.200 C 
ATOM     10  C   UNL     1      35.302 -22.403 -17.405  0.00  0.00    +0.232 C 
ATOM     11  C   UNL     1      34.057 -21.566 -19.308  0.00  0.00    +0.407 C 
ATOM     12  H   UNL     1      35.972 -21.088 -18.794  0.00  0.00    +0.161 HD
ENDROOT
BRANCH   4  16
ATOM     13  O   UNL     1      35.669 -23.820 -12.821  0.00  0.00    -0.335 OA
ATOM     14  C   UNL     1      37.287 -25.213 -13.852  0.00  0.00    +0.188 C 
ATOM     15  C   UNL     1      37.468 -25.288 -12.351  0.00  0.00    +0.169 C 
ATOM     16  C   UNL     1      35.878 -24.656 -13.972  0.00  0.00    +0.236 C 
ATOM     17  C   UNL     1      36.741 -24.037 -11.878  0.00  0.00    +0.146 C 
ATOM     18  C   UNL     1      37.625 -22.795 -11.870  0.00  0.00    +0.035 C 
BRANCH  14  19
ATOM     19  O   UNL     1      37.427 -26.473 -14.475  0.00  0.00    -0.378 OA
ATOM     20  H   UNL     1      36.719 -26.592 -15.127  0.00  0.00    +0.211 HD
ENDBRANCH  14  19
BRANCH  15  21
ATOM     21  O   UNL     1      36.778 -26.422 -11.826  0.00  0.00    -0.379 OA
ATOM     22  H   UNL     1      36.371 -26.188 -10.977  0.00  0.00    +0.211 HD
ENDBRANCH  15  21
ENDBRANCH   4  16
BRANCH  11  23
ATOM     23  O   UNL     1      34.272 -20.707 -20.349  0.00  0.00    -0.434 OA
BRANCH  23  24
ATOM     24  C   UNL     1      35.635 -20.333 -20.577  0.00  0.00    +0.210 C 
BRANCH  24  25
ATOM     25  C   UNL     1      35.663 -19.044 -21.387  0.00  0.00    +0.048 C 
BRANCH  25  26
ATOM     26  C   UNL     1      34.500 -18.971 -22.373  0.00  0.00    +0.004 C 
BRANCH  26  27
ATOM     27  C   UNL     1      34.973 -19.207 -23.808  0.00  0.00    +0.000 C 
ATOM     28  C   UNL     1      34.625 -18.032 -24.709  0.00  0.00    +0.000 C 
ENDBRANCH  26  27
ENDBRANCH  25  26
ENDBRANCH  24  25
ENDBRANCH  23  24
ENDBRANCH  11  23
TORSDOF 8
ENDMDL
MODEL 6
REMARK VINA RESULT:      -9.1      9.603     14.593
REMARK  Name = 60953
REMARK  8 active torsions:
REMARK  status: ('A' for Active; 'I' for Inactive)
REMARK    1  A    between atoms: N_4  and  C_16
REMARK    2  A    between atoms: C_11  and  O_23
REMARK    3  A    between atoms: C_14  and  O_19
REMARK    4  A    between atoms: C_15  and  O_21
REMARK    5  A    between atoms: O_23  and  C_24
REMARK    6  A    between atoms: C_24  and  C_25
REMARK    7  A    between atoms: C_25  and  C_26
REMARK    8  A    between atoms: C_26  and  C_27
REMARK                            x       y       z     vdW  Elec       q    Type
REMARK                         _______ _______ _______ _____ _____    ______ ____
ROOT
ATOM      1  F   UNL     1      33.088 -23.592 -17.022  0.00  0.00    -0.199 F 
ATOM      2  O   UNL     1      38.066 -22.017 -15.784  0.00  0.00    -0.193 OA
ATOM      3  O   UNL     1      36.229 -20.729 -19.585  0.00  0.00    -0.226 OA
ATOM      4  N   UNL     1      36.186 -23.217 -15.167  0.00  0.00    -0.176 N 
ATOM      5  N   UNL     1      36.330 -21.986 -17.253  0.00  0.00    -0.303 NA
ATOM      6  N   UNL     1      34.514 -22.014 -18.684  0.00  0.00    -0.223 N 
ATOM      7  C   UNL     1      34.898 -23.616 -15.505  0.00  0.00    +0.113 C 
ATOM      8  C   UNL     1      36.922 -22.383 -16.060  0.00  0.00    +0.276 C 
ATOM      9  C   UNL     1      34.327 -23.239 -16.645  0.00  0.00    +0.200 C 
ATOM     10  C   UNL     1      35.130 -22.383 -17.521  0.00  0.00    +0.232 C 
ATOM     11  C   UNL     1      35.103 -21.211 -19.642  0.00  0.00    +0.407 C 
ATOM     12  H   UNL     1      33.599 -22.338 -18.849  0.00  0.00    +0.161 HD
ENDROOT
BRANCH   4  16
ATOM     13  O   UNL     1      37.817 -24.591 -14.207  0.00  0.00    -0.335 OA
ATOM     14  C   UNL     1      35.776 -24.348 -13.025  0.00  0.00    +0.188 C 
ATOM     15  C   UNL     1      36.665 -25.307 -12.264  0.00  0.00    +0.169 C 
ATOM     16  C   UNL     1      36.773 -23.642 -13.928  0.00  0.00    +0.236 C 
ATOM     17  C   UNL     1      37.667 -25.729 -13.330  0.00  0.00    +0.146 C 
ATOM     18  C   UNL     1      37.194 -26.913 -14.165  0.00  0.00    +0.035 C 
BRANCH  14  19
ATOM     19  O   UNL     1      35.091 -23.456 -12.170  0.00  0.00    -0.378 OA
ATOM     20  H   UNL     1      34.288 -23.137 -12.611  0.00  0.00    +0.211 HD
ENDBRANCH  14  19
BRANCH  15  21
ATOM     21  O   UNL     1      37.380 -24.613 -11.240  0.00  0.00    -0.379 OA
ATOM     22  H   UNL     1      36.758 -24.316 -10.558  0.00  0.00    +0.211 HD
ENDBRANCH  15  21
ENDBRANCH   4  16
BRANCH  11  23
ATOM     23  O   UNL     1      34.231 -21.031 -20.678  0.00  0.00    -0.434 OA
BRANCH  23  24
ATOM     24  C   UNL     1      33.451 -19.831 -20.636  0.00  0.00    +0.210 C 
BRANCH  24  25
ATOM     25  C   UNL     1      34.157 -18.755 -21.449  0.00  0.00    +0.048 C 
BRANCH  25  26
ATOM     26  C   UNL     1      34.612 -19.282 -22.808  0.00  0.00    +0.004 C 
BRANCH  26  27
ATOM     27  C   UNL     1      35.298 -18.188 -23.627  0.00  0.00    +0.000 C 
ATOM     28  C   UNL     1      34.560 -17.923 -24.930  0.00  0.00    +0.000 C 
ENDBRANCH  26  27
ENDBRANCH  25  26
ENDBRANCH  24  25
ENDBRANCH  23  24
ENDBRANCH  11  23
TORSDOF 8
ENDMDL
MODEL 7
REMARK VINA RESULT:      -8.9      9.840     13.703
REMARK  Name = 60953
REMARK  8 active torsions:
REMARK  status: ('A' for Active; 'I' for Inactive)
REMARK    1  A    between atoms: N_4  and  C_16
REMARK    2  A    between atoms: C_11  and  O_23
REMARK    3  A    between atoms: C_14  and  O_19
REMARK    4  A    between atoms: C_15  and  O_21
REMARK    5  A    between atoms: O_23  and  C_24
REMARK    6  A    between atoms: C_24  and  C_25
REMARK    7  A    between atoms: C_25  and  C_26
REMARK    8  A    between atoms: C_26  and  C_27
REMARK                            x       y       z     vdW  Elec       q    Type
REMARK                         _______ _______ _______ _____ _____    ______ ____
ROOT
ATOM      1  F   UNL     1      32.492 -21.902 -19.154  0.00  0.00    -0.199 F 
ATOM      2  O   UNL     1      34.814 -23.979 -14.785  0.00  0.00    -0.193 OA
ATOM      3  O   UNL     1      37.288 -22.038 -17.883  0.00  0.00    -0.226 OA
ATOM      4  N   UNL     1      32.858 -23.575 -15.953  0.00  0.00    -0.176 N 
ATOM      5  N   UNL     1      35.038 -22.890 -16.769  0.00  0.00    -0.303 NA
ATOM      6  N   UNL     1      35.166 -21.789 -18.799  0.00  0.00    -0.223 N 
ATOM      7  C   UNL     1      32.274 -23.032 -17.092  0.00  0.00    +0.113 C 
ATOM      8  C   UNL     1      34.272 -23.504 -15.785  0.00  0.00    +0.276 C 
ATOM      9  C   UNL     1      33.001 -22.443 -18.037  0.00  0.00    +0.200 C 
ATOM     10  C   UNL     1      34.447 -22.400 -17.809  0.00  0.00    +0.232 C 
ATOM     11  C   UNL     1      36.539 -21.647 -18.772  0.00  0.00    +0.407 C 
ATOM     12  H   UNL     1      34.677 -21.429 -19.574  0.00  0.00    +0.161 HD
ENDROOT
BRANCH   4  16
ATOM     13  O   UNL     1      30.855 -24.719 -15.574  0.00  0.00    -0.335 OA
ATOM     14  C   UNL     1      31.584 -23.228 -13.882  0.00  0.00    +0.188 C 
ATOM     15  C   UNL     1      30.255 -23.823 -13.465  0.00  0.00    +0.169 C 
ATOM     16  C   UNL     1      32.044 -24.203 -14.952  0.00  0.00    +0.236 C 
ATOM     17  C   UNL     1      29.705 -24.336 -14.788  0.00  0.00    +0.146 C 
ATOM     18  C   UNL     1      28.928 -23.280 -15.566  0.00  0.00    +0.035 C 
BRANCH  14  19
ATOM     19  O   UNL     1      32.493 -23.136 -12.805  0.00  0.00    -0.378 OA
ATOM     20  H   UNL     1      32.347 -23.876 -12.195  0.00  0.00    +0.211 HD
ENDBRANCH  14  19
BRANCH  15  21
ATOM     21  O   UNL     1      30.463 -24.948 -12.610  0.00  0.00    -0.379 OA
ATOM     22  H   UNL     1      30.209 -25.759 -13.077  0.00  0.00    +0.211 HD
ENDBRANCH  15  21
ENDBRANCH   4  16
BRANCH  11  23
ATOM     23  O   UNL     1      36.948 -20.997 -19.903  0.00  0.00    -0.434 OA
BRANCH  23  24
ATOM     24  C   UNL     1      35.935 -20.270 -20.605  0.00  0.00    +0.210 C 
BRANCH  24  25
ATOM     25  C   UNL     1      36.516 -18.945 -21.078  0.00  0.00    +0.048 C 
BRANCH  25  26
ATOM     26  C   UNL     1      35.528 -18.173 -21.948  0.00  0.00    +0.004 C 
BRANCH  26  27
ATOM     27  C   UNL     1      34.569 -19.119 -22.673  0.00  0.00    +0.000 C 
ATOM     28  C   UNL     1      34.803 -19.104 -24.175  0.00  0.00    +0.000 C 
ENDBRANCH  26  27
ENDBRANCH  25  26
ENDBRANCH  24  25
ENDBRANCH  23  24
ENDBRANCH  11  23
TORSDOF 8
ENDMDL
MODEL 8
REMARK VINA RESULT:      -8.8      1.698      2.559
REMARK  Name = 60953
REMARK  8 active torsions:
REMARK  status: ('A' for Active; 'I' for Inactive)
REMARK    1  A    between atoms: N_4  and  C_16
REMARK    2  A    between atoms: C_11  and  O_23
REMARK    3  A    between atoms: C_14  and  O_19
REMARK    4  A    between atoms: C_15  and  O_21
REMARK    5  A    between atoms: O_23  and  C_24
REMARK    6  A    between atoms: C_24  and  C_25
REMARK    7  A    between atoms: C_25  and  C_26
REMARK    8  A    between atoms: C_26  and  C_27
REMARK                            x       y       z     vdW  Elec       q    Type
REMARK                         _______ _______ _______ _____ _____    ______ ____
ROOT
ATOM      1  F   UNL     1      34.261 -11.461 -24.570  0.00  0.00    -0.199 F 
ATOM      2  O   UNL     1      30.784 -10.774 -20.541  0.00  0.00    -0.193 OA
ATOM      3  O   UNL     1      32.154 -14.834 -21.601  0.00  0.00    -0.226 OA
ATOM      4  N   UNL     1      32.069  -9.800 -22.201  0.00  0.00    -0.176 N 
ATOM      5  N   UNL     1      32.023 -12.195 -21.813  0.00  0.00    -0.303 NA
ATOM      6  N   UNL     1      33.317 -13.560 -23.159  0.00  0.00    -0.223 N 
ATOM      7  C   UNL     1      32.968  -9.998 -23.242  0.00  0.00    +0.113 C 
ATOM      8  C   UNL     1      31.583 -10.923 -21.468  0.00  0.00    +0.276 C 
ATOM      9  C   UNL     1      33.394 -11.212 -23.577  0.00  0.00    +0.200 C 
ATOM     10  C   UNL     1      32.861 -12.325 -22.789  0.00  0.00    +0.232 C 
ATOM     11  C   UNL     1      32.935 -14.735 -22.541  0.00  0.00    +0.407 C 
ATOM     12  H   UNL     1      33.955 -13.615 -23.907  0.00  0.00    +0.161 HD
ENDROOT
BRANCH   4  16
ATOM     13  O   UNL     1      31.114  -7.841 -23.048  0.00  0.00    -0.335 OA
ATOM     14  C   UNL     1      32.765  -7.598 -21.364  0.00  0.00    +0.188 C 
ATOM     15  C   UNL     1      32.316  -6.221 -21.805  0.00  0.00    +0.169 C 
ATOM     16  C   UNL     1      31.631  -8.475 -21.865  0.00  0.00    +0.236 C 
ATOM     17  C   UNL     1      31.670  -6.512 -23.153  0.00  0.00    +0.146 C 
ATOM     18  C   UNL     1      32.662  -6.501 -24.310  0.00  0.00    +0.035 C 
BRANCH  14  19
ATOM     19  O   UNL     1      32.940  -7.683 -19.965  0.00  0.00    -0.378 OA
ATOM     20  H   UNL     1      32.168  -7.303 -19.519  0.00  0.00    +0.211 HD
ENDBRANCH  14  19
BRANCH  15  21
ATOM     21  O   UNL     1      31.302  -5.727 -20.929  0.00  0.00    -0.379 OA
ATOM     22  H   UNL     1      31.515  -4.818 -20.670  0.00  0.00    +0.211 HD
ENDBRANCH  15  21
ENDBRANCH   4  16
BRANCH  11  23
ATOM     23  O   UNL     1      33.564 -15.787 -23.144  0.00  0.00    -0.434 OA
BRANCH  23  24
ATOM     24  C   UNL     1      34.307 -15.475 -24.327  0.00  0.00    +0.210 C 
BRANCH  24  25
ATOM     25  C   UNL     1      33.829 -16.373 -25.460  0.00  0.00    +0.048 C 
BRANCH  25  26
ATOM     26  C   UNL     1      32.929 -15.619 -26.436  0.00  0.00    +0.004 C 
BRANCH  26  27
ATOM     27  C   UNL     1      32.936 -14.117 -26.152  0.00  0.00    +0.000 C 
ATOM     28  C   UNL     1      33.476 -13.328 -27.334  0.00  0.00    +0.000 C 
ENDBRANCH  26  27
ENDBRANCH  25  26
ENDBRANCH  24  25
ENDBRANCH  23  24
ENDBRANCH  11  23
TORSDOF 8
ENDMDL
MODEL 9
REMARK VINA RESULT:      -8.7      7.640     12.459
REMARK  Name = 60953
REMARK  8 active torsions:
REMARK  status: ('A' for Active; 'I' for Inactive)
REMARK    1  A    between atoms: N_4  and  C_16
REMARK    2  A    between atoms: C_11  and  O_23
REMARK    3  A    between atoms: C_14  and  O_19
REMARK    4  A    between atoms: C_15  and  O_21
REMARK    5  A    between atoms: O_23  and  C_24
REMARK    6  A    between atoms: C_24  and  C_25
REMARK    7  A    between atoms: C_25  and  C_26
REMARK    8  A    between atoms: C_26  and  C_27
REMARK                            x       y       z     vdW  Elec       q    Type
REMARK                         _______ _______ _______ _____ _____    ______ ____
ROOT
ATOM      1  F   UNL     1      32.559 -20.667 -20.509  0.00  0.00    -0.199 F 
ATOM      2  O   UNL     1      36.683 -22.332 -17.506  0.00  0.00    -0.193 OA
ATOM      3  O   UNL     1      37.341 -19.354 -20.697  0.00  0.00    -0.226 OA
ATOM      4  N   UNL     1      34.419 -22.469 -17.965  0.00  0.00    -0.176 N 
ATOM      5  N   UNL     1      35.922 -21.018 -19.199  0.00  0.00    -0.303 NA
ATOM      6  N   UNL     1      35.055 -19.719 -20.905  0.00  0.00    -0.223 N 
ATOM      7  C   UNL     1      33.363 -22.026 -18.753  0.00  0.00    +0.113 C 
ATOM      8  C   UNL     1      35.729 -21.955 -18.191  0.00  0.00    +0.276 C 
ATOM      9  C   UNL     1      33.540 -21.130 -19.719  0.00  0.00    +0.200 C 
ATOM     10  C   UNL     1      34.906 -20.638 -19.904  0.00  0.00    +0.232 C 
ATOM     11  C   UNL     1      36.262 -19.136 -21.237  0.00  0.00    +0.407 C 
ATOM     12  H   UNL     1      34.256 -19.457 -21.418  0.00  0.00    +0.161 HD
ENDROOT
BRANCH   4  16
ATOM     13  O   UNL     1      32.850 -23.940 -17.047  0.00  0.00    -0.335 OA
ATOM     14  C   UNL     1      34.311 -22.839 -15.539  0.00  0.00    +0.188 C 
ATOM     15  C   UNL     1      33.352 -23.699 -14.744  0.00  0.00    +0.169 C 
ATOM     16  C   UNL     1      34.192 -23.437 -16.930  0.00  0.00    +0.236 C 
ATOM     17  C   UNL     1      32.227 -23.933 -15.743  0.00  0.00    +0.146 C 
ATOM     18  C   UNL     1      31.171 -22.834 -15.728  0.00  0.00    +0.035 C 
BRANCH  14  19
ATOM     19  O   UNL     1      35.629 -22.895 -15.033  0.00  0.00    -0.378 OA
ATOM     20  H   UNL     1      35.602 -23.082 -14.082  0.00  0.00    +0.211 HD
ENDBRANCH  14  19
BRANCH  15  21
ATOM     21  O   UNL     1      33.948 -24.964 -14.451  0.00  0.00    -0.379 OA
ATOM     22  H   UNL     1      34.285 -24.958 -13.542  0.00  0.00    +0.211 HD
ENDBRANCH  15  21
ENDBRANCH   4  16
BRANCH  11  23
ATOM     23  O   UNL     1      36.074 -18.267 -22.274  0.00  0.00    -0.434 OA
BRANCH  23  24
ATOM     24  C   UNL     1      34.754 -18.234 -22.828  0.00  0.00    +0.210 C 
BRANCH  24  25
ATOM     25  C   UNL     1      34.780 -18.885 -24.204  0.00  0.00    +0.048 C 
BRANCH  25  26
ATOM     26  C   UNL     1      34.315 -17.922 -25.293  0.00  0.00    +0.004 C 
BRANCH  26  27
ATOM     27  C   UNL     1      34.305 -16.478 -24.791  0.00  0.00    +0.000 C 
ATOM     28  C   UNL     1      33.529 -15.567 -25.729  0.00  0.00    +0.000 C 
ENDBRANCH  26  27
ENDBRANCH  25  26
ENDBRANCH  24  25
ENDBRANCH  23  24
ENDBRANCH  11  23
TORSDOF 8
ENDMDL
