MODEL 1
REMARK VINA RESULT:      -9.5      0.000      0.000
REMARK  Name = 1372
REMARK  6 active torsions:
REMARK  status: ('A' for Active; 'I' for Inactive)
REMARK    1  A    between atoms: N_1  and  C_13
REMARK    2  A    between atoms: C_4  and  C_20
REMARK    3  A    between atoms: C_9  and  O_11
REMARK    4  A    between atoms: C_13  and  C_14
REMARK    5  A    between atoms: C_20  and  C_22
REMARK    6  A    between atoms: C_22  and  O_23
REMARK                            x       y       z     vdW  Elec       q    Type
REMARK                         _______ _______ _______ _____ _____    ______ ____
ROOT
ATOM      1  N   UNL     1      34.837 -16.566 -23.099  0.00  0.00    -0.327 N 
ATOM      2  C   UNL     1      34.195 -15.647 -22.301  0.00  0.00    +0.060 A 
ATOM      3  C   UNL     1      34.420 -16.439 -24.396  0.00  0.00    +0.034 A 
ATOM      4  C   UNL     1      33.494 -15.423 -24.445  0.00  0.00    +0.002 A 
ATOM      5  C   UNL     1      33.341 -14.912 -23.126  0.00  0.00    +0.016 A 
ATOM      6  C   UNL     1      32.557 -13.891 -22.553  0.00  0.00    +0.038 C 
ATOM      7  C   UNL     1      34.304 -15.411 -20.925  0.00  0.00    +0.020 C 
ATOM      8  C   UNL     1      34.944 -17.303 -25.477  0.00  0.00    +0.050 C 
ATOM      9  C   UNL     1      32.655 -13.644 -21.179  0.00  0.00    +0.139 C 
ATOM     10  C   UNL     1      33.516 -14.394 -20.379  0.00  0.00    +0.038 C 
ENDROOT
BRANCH   9  11
ATOM     11  O   UNL     1      31.900 -12.658 -20.618  0.00  0.00    -0.471 OA
ATOM     12  C   UNL     1      31.401 -11.647 -21.492  0.00  0.00    +0.252 C 
ENDBRANCH   9  11
BRANCH   1  13
ATOM     13  C   UNL     1      35.814 -17.529 -22.630  0.00  0.00    +0.132 C 
BRANCH  13  14
ATOM     14  C   UNL     1      35.170 -18.602 -21.794  0.00  0.00    +0.000 C 
ATOM     15  C   UNL     1      33.795 -18.785 -21.856  0.00  0.00    -0.002 C 
ATOM     16  C   UNL     1      35.960 -19.395 -20.972  0.00  0.00    -0.002 C 
ATOM     17  C   UNL     1      33.198 -19.779 -21.080  0.00  0.00    -0.000 C 
ATOM     18  C   UNL     1      35.363 -20.388 -20.197  0.00  0.00    -0.000 C 
ATOM     19  C   UNL     1      33.983 -20.580 -20.250  0.00  0.00    -0.000 C 
ENDBRANCH  13  14
ENDBRANCH   1  13
BRANCH   4  20
ATOM     20  C   UNL     1      32.785 -14.949 -25.653  0.00  0.00    +0.137 C 
BRANCH  20  22
ATOM     21  O   UNL     1      33.571 -12.660 -25.652  0.00  0.00    -0.250 OA
ATOM     22  C   UNL     1      33.450 -13.726 -26.244  0.00  0.00    +0.318 C 
BRANCH  22  23
ATOM     23  O   UNL     1      33.860 -13.916 -27.523  0.00  0.00    -0.480 OA
ATOM     24  H   UNL     1      33.235 -13.916 -28.221  0.00  0.00    +0.295 HD
ENDBRANCH  22  23
ENDBRANCH  20  22
ENDBRANCH   4  20
TORSDOF 6
ENDMDL
MODEL 2
REMARK VINA RESULT:      -9.0      5.324      9.485
REMARK  Name = 1372
REMARK  6 active torsions:
REMARK  status: ('A' for Active; 'I' for Inactive)
REMARK    1  A    between atoms: N_1  and  C_13
REMARK    2  A    between atoms: C_4  and  C_20
REMARK    3  A    between atoms: C_9  and  O_11
REMARK    4  A    between atoms: C_13  and  C_14
REMARK    5  A    between atoms: C_20  and  C_22
REMARK    6  A    between atoms: C_22  and  O_23
REMARK                            x       y       z     vdW  Elec       q    Type
REMARK                         _______ _______ _______ _____ _____    ______ ____
ROOT
ATOM      1  N   UNL     1      33.536  -8.749 -22.827  0.00  0.00    -0.327 N 
ATOM      2  C   UNL     1      33.700  -9.845 -23.643  0.00  0.00    +0.060 A 
ATOM      3  C   UNL     1      32.557  -8.990 -21.902  0.00  0.00    +0.034 A 
ATOM      4  C   UNL     1      32.076 -10.261 -22.116  0.00  0.00    +0.002 A 
ATOM      5  C   UNL     1      32.790 -10.815 -23.215  0.00  0.00    +0.016 A 
ATOM      6  C   UNL     1      32.751 -12.052 -23.889  0.00  0.00    +0.038 C 
ATOM      7  C   UNL     1      34.575 -10.052 -24.715  0.00  0.00    +0.020 C 
ATOM      8  C   UNL     1      32.166  -7.982 -20.892  0.00  0.00    +0.050 C 
ATOM      9  C   UNL     1      33.620 -12.273 -24.963  0.00  0.00    +0.139 C 
ATOM     10  C   UNL     1      34.517 -11.287 -25.369  0.00  0.00    +0.038 C 
ENDROOT
BRANCH   9  11
ATOM     11  O   UNL     1      33.588 -13.467 -25.619  0.00  0.00    -0.471 OA
ATOM     12  C   UNL     1      33.276 -13.434 -27.010  0.00  0.00    +0.252 C 
ENDBRANCH   9  11
BRANCH   1  13
ATOM     13  C   UNL     1      34.292  -7.517 -22.936  0.00  0.00    +0.132 C 
BRANCH  13  14
ATOM     14  C   UNL     1      33.781  -6.656 -24.058  0.00  0.00    +0.000 C 
ATOM     15  C   UNL     1      34.598  -6.401 -25.151  0.00  0.00    -0.002 C 
ATOM     16  C   UNL     1      32.499  -6.126 -23.986  0.00  0.00    -0.002 C 
ATOM     17  C   UNL     1      34.125  -5.602 -26.192  0.00  0.00    -0.000 C 
ATOM     18  C   UNL     1      32.027  -5.327 -25.027  0.00  0.00    -0.000 C 
ATOM     19  C   UNL     1      32.839  -5.065 -26.129  0.00  0.00    -0.000 C 
ENDBRANCH  13  14
ENDBRANCH   1  13
BRANCH   4  20
ATOM     20  C   UNL     1      31.009 -10.930 -21.342  0.00  0.00    +0.137 C 
BRANCH  20  22
ATOM     21  O   UNL     1      31.516 -11.039 -18.978  0.00  0.00    -0.250 OA
ATOM     22  C   UNL     1      31.551 -11.569 -20.083  0.00  0.00    +0.318 C 
BRANCH  22  23
ATOM     23  O   UNL     1      32.123 -12.778 -20.310  0.00  0.00    -0.480 OA
ATOM     24  H   UNL     1      33.055 -12.849 -20.380  0.00  0.00    +0.295 HD
ENDBRANCH  22  23
ENDBRANCH  20  22
ENDBRANCH   4  20
TORSDOF 6
ENDMDL
MODEL 3
REMARK VINA RESULT:      -9.0      0.641      1.359
REMARK  Name = 1372
REMARK  6 active torsions:
REMARK  status: ('A' for Active; 'I' for Inactive)
REMARK    1  A    between atoms: N_1  and  C_13
REMARK    2  A    between atoms: C_4  and  C_20
REMARK    3  A    between atoms: C_9  and  O_11
REMARK    4  A    between atoms: C_13  and  C_14
REMARK    5  A    between atoms: C_20  and  C_22
REMARK    6  A    between atoms: C_22  and  O_23
REMARK                            x       y       z     vdW  Elec       q    Type
REMARK                         _______ _______ _______ _____ _____    ______ ____
ROOT
ATOM      1  N   UNL     1      34.611 -16.013 -22.956  0.00  0.00    -0.327 N 
ATOM      2  C   UNL     1      33.850 -15.047 -22.338  0.00  0.00    +0.060 A 
ATOM      3  C   UNL     1      34.314 -16.067 -24.290  0.00  0.00    +0.034 A 
ATOM      4  C   UNL     1      33.346 -15.124 -24.547  0.00  0.00    +0.002 A 
ATOM      5  C   UNL     1      33.042 -14.470 -23.320  0.00  0.00    +0.016 A 
ATOM      6  C   UNL     1      32.156 -13.440 -22.950  0.00  0.00    +0.038 C 
ATOM      7  C   UNL     1      33.815 -14.643 -20.998  0.00  0.00    +0.020 C 
ATOM      8  C   UNL     1      34.982 -17.018 -25.205  0.00  0.00    +0.050 C 
ATOM      9  C   UNL     1      32.109 -13.025 -21.614  0.00  0.00    +0.139 C 
ATOM     10  C   UNL     1      32.927 -13.619 -20.654  0.00  0.00    +0.038 C 
ENDROOT
BRANCH   9  11
ATOM     11  O   UNL     1      31.255 -12.028 -21.249  0.00  0.00    -0.471 OA
ATOM     12  C   UNL     1      31.712 -10.688 -21.420  0.00  0.00    +0.252 C 
ENDBRANCH   9  11
BRANCH   1  13
ATOM     13  C   UNL     1      35.586 -16.851 -22.287  0.00  0.00    +0.132 C 
BRANCH  13  14
ATOM     14  C   UNL     1      34.937 -18.053 -21.656  0.00  0.00    +0.000 C 
ATOM     15  C   UNL     1      35.718 -19.145 -21.302  0.00  0.00    -0.002 C 
ATOM     16  C   UNL     1      33.567 -18.054 -21.436  0.00  0.00    -0.002 C 
ATOM     17  C   UNL     1      35.117 -20.259 -20.717  0.00  0.00    -0.000 C 
ATOM     18  C   UNL     1      32.965 -19.169 -20.852  0.00  0.00    -0.000 C 
ATOM     19  C   UNL     1      33.740 -20.271 -20.493  0.00  0.00    -0.000 C 
ENDBRANCH  13  14
ENDBRANCH   1  13
BRANCH   4  20
ATOM     20  C   UNL     1      32.733 -14.841 -25.862  0.00  0.00    +0.137 C 
BRANCH  20  22
ATOM     21  O   UNL     1      33.914 -13.860 -27.731  0.00  0.00    -0.250 OA
ATOM     22  C   UNL     1      33.469 -13.743 -26.596  0.00  0.00    +0.318 C 
BRANCH  22  23
ATOM     23  O   UNL     1      33.627 -12.623 -25.847  0.00  0.00    -0.480 OA
ATOM     24  H   UNL     1      34.171 -11.926 -26.155  0.00  0.00    +0.295 HD
ENDBRANCH  22  23
ENDBRANCH  20  22
ENDBRANCH   4  20
TORSDOF 6
ENDMDL
MODEL 4
REMARK VINA RESULT:      -9.0      7.091     10.458
REMARK  Name = 1372
REMARK  6 active torsions:
REMARK  status: ('A' for Active; 'I' for Inactive)
REMARK    1  A    between atoms: N_1  and  C_13
REMARK    2  A    between atoms: C_4  and  C_20
REMARK    3  A    between atoms: C_9  and  O_11
REMARK    4  A    between atoms: C_13  and  C_14
REMARK    5  A    between atoms: C_20  and  C_22
REMARK    6  A    between atoms: C_22  and  O_23
REMARK                            x       y       z     vdW  Elec       q    Type
REMARK                         _______ _______ _______ _____ _____    ______ ____
ROOT
ATOM      1  N   UNL     1      35.136 -22.801 -15.744  0.00  0.00    -0.327 N 
ATOM      2  C   UNL     1      33.818 -23.159 -15.578  0.00  0.00    +0.060 A 
ATOM      3  C   UNL     1      35.391 -22.534 -17.062  0.00  0.00    +0.034 A 
ATOM      4  C   UNL     1      34.223 -22.720 -17.764  0.00  0.00    +0.002 A 
ATOM      5  C   UNL     1      33.218 -23.116 -16.838  0.00  0.00    +0.016 A 
ATOM      6  C   UNL     1      31.852 -23.442 -16.951  0.00  0.00    +0.038 C 
ATOM      7  C   UNL     1      33.116 -23.514 -14.419  0.00  0.00    +0.020 C 
ATOM      8  C   UNL     1      36.732 -22.125 -17.534  0.00  0.00    +0.050 C 
ATOM      9  C   UNL     1      31.137 -23.799 -15.802  0.00  0.00    +0.139 C 
ATOM     10  C   UNL     1      31.762 -23.834 -14.556  0.00  0.00    +0.038 C 
ENDROOT
BRANCH   9  11
ATOM     11  O   UNL     1      29.816 -24.114 -15.903  0.00  0.00    -0.471 OA
ATOM     12  C   UNL     1      29.273 -24.960 -14.892  0.00  0.00    +0.252 C 
ENDBRANCH   9  11
BRANCH   1  13
ATOM     13  C   UNL     1      36.113 -22.720 -14.676  0.00  0.00    +0.132 C 
BRANCH  13  14
ATOM     14  C   UNL     1      36.520 -24.088 -14.198  0.00  0.00    +0.000 C 
ATOM     15  C   UNL     1      36.625 -24.334 -12.836  0.00  0.00    -0.002 C 
ATOM     16  C   UNL     1      36.785 -25.086 -15.126  0.00  0.00    -0.002 C 
ATOM     17  C   UNL     1      37.003 -25.601 -12.393  0.00  0.00    -0.000 C 
ATOM     18  C   UNL     1      37.163 -26.353 -14.683  0.00  0.00    -0.000 C 
ATOM     19  C   UNL     1      37.272 -26.611 -13.318  0.00  0.00    -0.000 C 
ENDBRANCH  13  14
ENDBRANCH   1  13
BRANCH   4  20
ATOM     20  C   UNL     1      34.046 -22.540 -19.221  0.00  0.00    +0.137 C 
BRANCH  20  22
ATOM     21  O   UNL     1      32.540 -20.672 -19.539  0.00  0.00    -0.250 OA
ATOM     22  C   UNL     1      33.683 -21.112 -19.566  0.00  0.00    +0.318 C 
BRANCH  22  23
ATOM     23  O   UNL     1      34.754 -20.376 -19.955  0.00  0.00    -0.480 OA
ATOM     24  H   UNL     1      35.448 -20.779 -20.439  0.00  0.00    +0.295 HD
ENDBRANCH  22  23
ENDBRANCH  20  22
ENDBRANCH   4  20
TORSDOF 6
ENDMDL
MODEL 5
REMARK VINA RESULT:      -8.9      2.936      7.367
REMARK  Name = 1372
REMARK  6 active torsions:
REMARK  status: ('A' for Active; 'I' for Inactive)
REMARK    1  A    between atoms: N_1  and  C_13
REMARK    2  A    between atoms: C_4  and  C_20
REMARK    3  A    between atoms: C_9  and  O_11
REMARK    4  A    between atoms: C_13  and  C_14
REMARK    5  A    between atoms: C_20  and  C_22
REMARK    6  A    between atoms: C_22  and  O_23
REMARK                            x       y       z     vdW  Elec       q    Type
REMARK                         _______ _______ _______ _____ _____    ______ ____
ROOT
ATOM      1  N   UNL     1      32.218 -12.524 -22.866  0.00  0.00    -0.327 N 
ATOM      2  C   UNL     1      32.705 -13.426 -23.784  0.00  0.00    +0.060 A 
ATOM      3  C   UNL     1      32.304 -13.043 -21.602  0.00  0.00    +0.034 A 
ATOM      4  C   UNL     1      32.855 -14.299 -21.697  0.00  0.00    +0.002 A 
ATOM      5  C   UNL     1      33.114 -14.556 -23.072  0.00  0.00    +0.016 A 
ATOM      6  C   UNL     1      33.659 -15.644 -23.782  0.00  0.00    +0.038 C 
ATOM      7  C   UNL     1      32.814 -13.330 -25.176  0.00  0.00    +0.020 C 
ATOM      8  C   UNL     1      31.850 -12.289 -20.412  0.00  0.00    +0.050 C 
ATOM      9  C   UNL     1      33.775 -15.563 -25.175  0.00  0.00    +0.139 C 
ATOM     10  C   UNL     1      33.358 -14.422 -25.859  0.00  0.00    +0.038 C 
ENDROOT
BRANCH   9  11
ATOM     11  O   UNL     1      34.302 -16.611 -25.868  0.00  0.00    -0.471 OA
ATOM     12  C   UNL     1      34.502 -17.827 -25.150  0.00  0.00    +0.252 C 
ENDBRANCH   9  11
BRANCH   1  13
ATOM     13  C   UNL     1      31.690 -11.215 -23.193  0.00  0.00    +0.132 C 
BRANCH  13  14
ATOM     14  C   UNL     1      32.790 -10.200 -23.341  0.00  0.00    +0.000 C 
ATOM     15  C   UNL     1      32.714  -9.002 -22.644  0.00  0.00    -0.002 C 
ATOM     16  C   UNL     1      33.866 -10.473 -24.174  0.00  0.00    -0.002 C 
ATOM     17  C   UNL     1      33.734  -8.060 -22.781  0.00  0.00    -0.000 C 
ATOM     18  C   UNL     1      34.885  -9.532 -24.313  0.00  0.00    -0.000 C 
ATOM     19  C   UNL     1      34.820  -8.325 -23.617  0.00  0.00    -0.000 C 
ENDBRANCH  13  14
ENDBRANCH   1  13
BRANCH   4  20
ATOM     20  C   UNL     1      33.129 -15.217 -20.571  0.00  0.00    +0.137 C 
BRANCH  20  22
ATOM     21  O   UNL     1      35.117 -16.573 -20.325  0.00  0.00    -0.250 OA
ATOM     22  C   UNL     1      34.611 -15.460 -20.397  0.00  0.00    +0.318 C 
BRANCH  22  23
ATOM     23  O   UNL     1      35.323 -14.310 -20.283  0.00  0.00    -0.480 OA
ATOM     24  H   UNL     1      35.948 -14.080 -20.941  0.00  0.00    +0.295 HD
ENDBRANCH  22  23
ENDBRANCH  20  22
ENDBRANCH   4  20
TORSDOF 6
ENDMDL
MODEL 6
REMARK VINA RESULT:      -8.9      1.166      1.363
REMARK  Name = 1372
REMARK  6 active torsions:
REMARK  status: ('A' for Active; 'I' for Inactive)
REMARK    1  A    between atoms: N_1  and  C_13
REMARK    2  A    between atoms: C_4  and  C_20
REMARK    3  A    between atoms: C_9  and  O_11
REMARK    4  A    between atoms: C_13  and  C_14
REMARK    5  A    between atoms: C_20  and  C_22
REMARK    6  A    between atoms: C_22  and  O_23
REMARK                            x       y       z     vdW  Elec       q    Type
REMARK                         _______ _______ _______ _____ _____    ______ ____
ROOT
ATOM      1  N   UNL     1      35.114 -17.600 -22.544  0.00  0.00    -0.327 N 
ATOM      2  C   UNL     1      34.529 -16.433 -22.110  0.00  0.00    +0.060 A 
ATOM      3  C   UNL     1      34.794 -17.830 -23.855  0.00  0.00    +0.034 A 
ATOM      4  C   UNL     1      33.991 -16.798 -24.282  0.00  0.00    +0.002 A 
ATOM      5  C   UNL     1      33.814 -15.906 -23.188  0.00  0.00    +0.016 A 
ATOM      6  C   UNL     1      33.113 -14.697 -23.010  0.00  0.00    +0.038 C 
ATOM      7  C   UNL     1      34.578 -15.808 -20.859  0.00  0.00    +0.020 C 
ATOM      8  C   UNL     1      35.286 -19.019 -24.586  0.00  0.00    +0.050 C 
ATOM      9  C   UNL     1      33.152 -14.061 -21.764  0.00  0.00    +0.139 C 
ATOM     10  C   UNL     1      33.874 -14.609 -20.706  0.00  0.00    +0.038 C 
ENDROOT
BRANCH   9  11
ATOM     11  O   UNL     1      32.477 -12.890 -21.586  0.00  0.00    -0.471 OA
ATOM     12  C   UNL     1      32.295 -12.066 -22.735  0.00  0.00    +0.252 C 
ENDBRANCH   9  11
BRANCH   1  13
ATOM     13  C   UNL     1      35.948 -18.461 -21.729  0.00  0.00    +0.132 C 
BRANCH  13  14
ATOM     14  C   UNL     1      35.126 -19.482 -20.990  0.00  0.00    +0.000 C 
ATOM     15  C   UNL     1      33.741 -19.394 -21.016  0.00  0.00    -0.002 C 
ATOM     16  C   UNL     1      35.764 -20.499 -20.293  0.00  0.00    -0.002 C 
ATOM     17  C   UNL     1      32.979 -20.341 -20.330  0.00  0.00    -0.000 C 
ATOM     18  C   UNL     1      35.002 -21.445 -19.607  0.00  0.00    -0.000 C 
ATOM     19  C   UNL     1      33.610 -21.366 -19.626  0.00  0.00    -0.000 C 
ENDBRANCH  13  14
ENDBRANCH   1  13
BRANCH   4  20
ATOM     20  C   UNL     1      33.415 -16.646 -25.635  0.00  0.00    +0.137 C 
BRANCH  20  22
ATOM     21  O   UNL     1      34.452 -14.540 -26.219  0.00  0.00    -0.250 OA
ATOM     22  C   UNL     1      33.431 -15.203 -26.088  0.00  0.00    +0.318 C 
BRANCH  22  23
ATOM     23  O   UNL     1      32.187 -14.702 -26.293  0.00  0.00    -0.480 OA
ATOM     24  H   UNL     1      31.594 -14.611 -25.573  0.00  0.00    +0.295 HD
ENDBRANCH  22  23
ENDBRANCH  20  22
ENDBRANCH   4  20
TORSDOF 6
ENDMDL
MODEL 7
REMARK VINA RESULT:      -8.8      7.703     11.225
REMARK  Name = 1372
REMARK  6 active torsions:
REMARK  status: ('A' for Active; 'I' for Inactive)
REMARK    1  A    between atoms: N_1  and  C_13
REMARK    2  A    between atoms: C_4  and  C_20
REMARK    3  A    between atoms: C_9  and  O_11
REMARK    4  A    between atoms: C_13  and  C_14
REMARK    5  A    between atoms: C_20  and  C_22
REMARK    6  A    between atoms: C_22  and  O_23
REMARK                            x       y       z     vdW  Elec       q    Type
REMARK                         _______ _______ _______ _____ _____    ______ ____
ROOT
ATOM      1  N   UNL     1      33.765 -23.379 -17.057  0.00  0.00    -0.327 N 
ATOM      2  C   UNL     1      34.861 -23.294 -16.229  0.00  0.00    +0.060 A 
ATOM      3  C   UNL     1      32.612 -23.287 -16.326  0.00  0.00    +0.034 A 
ATOM      4  C   UNL     1      32.960 -23.139 -15.004  0.00  0.00    +0.002 A 
ATOM      5  C   UNL     1      34.381 -23.142 -14.927  0.00  0.00    +0.016 A 
ATOM      6  C   UNL     1      35.307 -23.029 -13.871  0.00  0.00    +0.038 C 
ATOM      7  C   UNL     1      36.227 -23.339 -16.530  0.00  0.00    +0.020 C 
ATOM      8  C   UNL     1      31.276 -23.349 -16.958  0.00  0.00    +0.050 C 
ATOM      9  C   UNL     1      36.677 -23.072 -14.156  0.00  0.00    +0.139 C 
ATOM     10  C   UNL     1      37.128 -23.225 -15.466  0.00  0.00    +0.038 C 
ENDROOT
BRANCH   9  11
ATOM     11  O   UNL     1      37.578 -22.962 -13.141  0.00  0.00    -0.471 OA
ATOM     12  C   UNL     1      37.072 -23.065 -11.811  0.00  0.00    +0.252 C 
ENDBRANCH   9  11
BRANCH   1  13
ATOM     13  C   UNL     1      33.826 -23.544 -18.496  0.00  0.00    +0.132 C 
BRANCH  13  14
ATOM     14  C   UNL     1      34.051 -22.229 -19.191  0.00  0.00    +0.000 C 
ATOM     15  C   UNL     1      32.961 -21.433 -19.518  0.00  0.00    -0.002 C 
ATOM     16  C   UNL     1      35.344 -21.828 -19.497  0.00  0.00    -0.002 C 
ATOM     17  C   UNL     1      33.169 -20.213 -20.162  0.00  0.00    -0.000 C 
ATOM     18  C   UNL     1      35.552 -20.609 -20.142  0.00  0.00    -0.000 C 
ATOM     19  C   UNL     1      34.465 -19.802 -20.474  0.00  0.00    -0.000 C 
ENDBRANCH  13  14
ENDBRANCH   1  13
BRANCH   4  20
ATOM     20  C   UNL     1      32.024 -23.001 -13.867  0.00  0.00    +0.137 C 
BRANCH  20  22
ATOM     21  O   UNL     1      30.171 -24.523 -13.544  0.00  0.00    -0.250 OA
ATOM     22  C   UNL     1      31.379 -24.323 -13.514  0.00  0.00    +0.318 C 
BRANCH  22  23
ATOM     23  O   UNL     1      32.278 -25.257 -13.114  0.00  0.00    -0.480 OA
ATOM     24  H   UNL     1      33.179 -25.174 -13.358  0.00  0.00    +0.295 HD
ENDBRANCH  22  23
ENDBRANCH  20  22
ENDBRANCH   4  20
TORSDOF 6
ENDMDL
MODEL 8
REMARK VINA RESULT:      -8.6      7.113     10.845
REMARK  Name = 1372
REMARK  6 active torsions:
REMARK  status: ('A' for Active; 'I' for Inactive)
REMARK    1  A    between atoms: N_1  and  C_13
REMARK    2  A    between atoms: C_4  and  C_20
REMARK    3  A    between atoms: C_9  and  O_11
REMARK    4  A    between atoms: C_13  and  C_14
REMARK    5  A    between atoms: C_20  and  C_22
REMARK    6  A    between atoms: C_22  and  O_23
REMARK                            x       y       z     vdW  Elec       q    Type
REMARK                         _______ _______ _______ _____ _____    ______ ____
ROOT
ATOM      1  N   UNL     1      34.810 -23.295 -15.027  0.00  0.00    -0.327 N 
ATOM      2  C   UNL     1      35.045 -22.816 -16.295  0.00  0.00    +0.060 A 
ATOM      3  C   UNL     1      33.521 -23.746 -14.923  0.00  0.00    +0.034 A 
ATOM      4  C   UNL     1      32.909 -23.559 -16.141  0.00  0.00    +0.002 A 
ATOM      5  C   UNL     1      33.861 -22.972 -17.019  0.00  0.00    +0.016 A 
ATOM      6  C   UNL     1      33.830 -22.556 -18.365  0.00  0.00    +0.038 C 
ATOM      7  C   UNL     1      36.204 -22.263 -16.853  0.00  0.00    +0.020 C 
ATOM      8  C   UNL     1      32.988 -24.316 -13.667  0.00  0.00    +0.050 C 
ATOM      9  C   UNL     1      34.981 -22.001 -18.936  0.00  0.00    +0.139 C 
ATOM     10  C   UNL     1      36.149 -21.858 -18.189  0.00  0.00    +0.038 C 
ENDROOT
BRANCH   9  11
ATOM     11  O   UNL     1      34.959 -21.598 -20.238  0.00  0.00    -0.471 OA
ATOM     12  C   UNL     1      35.320 -20.244 -20.503  0.00  0.00    +0.252 C 
ENDBRANCH   9  11
BRANCH   1  13
ATOM     13  C   UNL     1      35.786 -23.317 -13.956  0.00  0.00    +0.132 C 
BRANCH  13  14
ATOM     14  C   UNL     1      36.734 -24.476 -14.100  0.00  0.00    +0.000 C 
ATOM     15  C   UNL     1      36.358 -25.577 -14.858  0.00  0.00    -0.002 C 
ATOM     16  C   UNL     1      37.971 -24.431 -13.472  0.00  0.00    -0.002 C 
ATOM     17  C   UNL     1      37.237 -26.653 -14.991  0.00  0.00    -0.000 C 
ATOM     18  C   UNL     1      38.849 -25.506 -13.605  0.00  0.00    -0.000 C 
ATOM     19  C   UNL     1      38.483 -26.617 -14.363  0.00  0.00    -0.000 C 
ENDBRANCH  13  14
ENDBRANCH   1  13
BRANCH   4  20
ATOM     20  C   UNL     1      31.511 -23.908 -16.474  0.00  0.00    +0.137 C 
BRANCH  20  22
ATOM     21  O   UNL     1      30.364 -22.473 -14.900  0.00  0.00    -0.250 OA
ATOM     22  C   UNL     1      30.551 -22.815 -16.061  0.00  0.00    +0.318 C 
BRANCH  22  23
ATOM     23  O   UNL     1      29.880 -22.280 -17.112  0.00  0.00    -0.480 OA
ATOM     24  H   UNL     1      29.777 -22.772 -17.902  0.00  0.00    +0.295 HD
ENDBRANCH  22  23
ENDBRANCH  20  22
ENDBRANCH   4  20
TORSDOF 6
ENDMDL
MODEL 9
REMARK VINA RESULT:      -8.6      1.198      4.046
REMARK  Name = 1372
REMARK  6 active torsions:
REMARK  status: ('A' for Active; 'I' for Inactive)
REMARK    1  A    between atoms: N_1  and  C_13
REMARK    2  A    between atoms: C_4  and  C_20
REMARK    3  A    between atoms: C_9  and  O_11
REMARK    4  A    between atoms: C_13  and  C_14
REMARK    5  A    between atoms: C_20  and  C_22
REMARK    6  A    between atoms: C_22  and  O_23
REMARK                            x       y       z     vdW  Elec       q    Type
REMARK                         _______ _______ _______ _____ _____    ______ ____
ROOT
ATOM      1  N   UNL     1      34.887 -17.372 -22.833  0.00  0.00    -0.327 N 
ATOM      2  C   UNL     1      34.334 -16.741 -23.924  0.00  0.00    +0.060 A 
ATOM      3  C   UNL     1      34.900 -16.529 -21.755  0.00  0.00    +0.034 A 
ATOM      4  C   UNL     1      34.347 -15.332 -22.148  0.00  0.00    +0.002 A 
ATOM      5  C   UNL     1      33.984 -15.451 -23.519  0.00  0.00    +0.016 A 
ATOM      6  C   UNL     1      33.390 -14.583 -24.456  0.00  0.00    +0.038 C 
ATOM      7  C   UNL     1      34.118 -17.208 -25.226  0.00  0.00    +0.020 C 
ATOM      8  C   UNL     1      35.442 -16.942 -20.442  0.00  0.00    +0.050 C 
ATOM      9  C   UNL     1      33.167 -15.036 -25.761  0.00  0.00    +0.139 C 
ATOM     10  C   UNL     1      33.527 -16.329 -26.138  0.00  0.00    +0.038 C 
ENDROOT
BRANCH   9  11
ATOM     11  O   UNL     1      32.592 -14.203 -26.673  0.00  0.00    -0.471 OA
ATOM     12  C   UNL     1      33.422 -13.194 -27.243  0.00  0.00    +0.252 C 
ENDBRANCH   9  11
BRANCH   1  13
ATOM     13  C   UNL     1      35.385 -18.733 -22.829  0.00  0.00    +0.132 C 
BRANCH  13  14
ATOM     14  C   UNL     1      34.753 -19.546 -21.733  0.00  0.00    +0.000 C 
ATOM     15  C   UNL     1      35.558 -20.292 -20.882  0.00  0.00    -0.002 C 
ATOM     16  C   UNL     1      33.372 -19.541 -21.585  0.00  0.00    -0.002 C 
ATOM     17  C   UNL     1      34.972 -21.046 -19.865  0.00  0.00    -0.000 C 
ATOM     18  C   UNL     1      32.787 -20.295 -20.569  0.00  0.00    -0.000 C 
ATOM     19  C   UNL     1      33.586 -21.048 -19.709  0.00  0.00    -0.000 C 
ENDBRANCH  13  14
ENDBRANCH   1  13
BRANCH   4  20
ATOM     20  C   UNL     1      34.165 -14.137 -21.297  0.00  0.00    +0.137 C 
BRANCH  20  22
ATOM     21  O   UNL     1      32.353 -14.890 -19.881  0.00  0.00    -0.250 OA
ATOM     22  C   UNL     1      32.775 -14.084 -20.702  0.00  0.00    +0.318 C 
BRANCH  22  23
ATOM     23  O   UNL     1      32.024 -13.073 -21.206  0.00  0.00    -0.480 OA
ATOM     24  H   UNL     1      31.502 -12.547 -20.634  0.00  0.00    +0.295 HD
ENDBRANCH  22  23
ENDBRANCH  20  22
ENDBRANCH   4  20
TORSDOF 6
ENDMDL
