MODEL 1
REMARK VINA RESULT:      -5.1      0.000      0.000
REMARK  Name = 10176265
REMARK  4 active torsions:
REMARK  status: ('A' for Active; 'I' for Inactive)
REMARK    1  A    between atoms: C_1  and  C_4
REMARK    2  A    between atoms: C_1  and  N_8
REMARK    3  A    between atoms: C_1  and  C_12
REMARK    4  A    between atoms: C_12  and  S_13
REMARK                            x       y       z     vdW  Elec       q    Type
REMARK                         _______ _______ _______ _____ _____    ______ ____
ROOT
ATOM      1  C   UNL     1      36.802 -25.255 -13.659  0.00  0.00    +0.159 C 
ENDROOT
BRANCH   1   4
ATOM      2  O   UNL     1      35.659 -24.562 -15.689  0.00  0.00    -0.274 OA
ATOM      3  N   UNL     1      35.887 -26.808 -15.271  0.00  0.00    -0.327 N 
ATOM      4  C   UNL     1      36.075 -25.473 -14.979  0.00  0.00    +0.238 C 
ATOM      5  H   UNL     1      35.428 -27.070 -16.102  0.00  0.00    +0.145 HD
ATOM      6  H   UNL     1      36.212 -27.499 -14.649  0.00  0.00    +0.145 HD
ENDBRANCH   1   4
BRANCH   1   8
ATOM      7  O   UNL     1      38.882 -27.044 -14.606  0.00  0.00    -0.275 OA
ATOM      8  N   UNL     1      38.165 -24.919 -13.984  0.00  0.00    -0.298 N 
ATOM      9  C   UNL     1      39.092 -25.848 -14.431  0.00  0.00    +0.223 C 
ATOM     10  C   UNL     1      40.432 -25.226 -14.721  0.00  0.00    +0.095 C 
ATOM     11  H   UNL     1      38.453 -23.983 -13.882  0.00  0.00    +0.150 HD
ENDBRANCH   1   8
BRANCH   1  12
ATOM     12  C   UNL     1      36.105 -24.161 -12.851  0.00  0.00    +0.082 C 
BRANCH  12  13
ATOM     13  S   UNL     1      37.289 -23.163 -11.896  0.00  0.00    -0.166 S 
ATOM     14  H   UNL     1      37.265 -23.553 -10.594  0.00  0.00    +0.102 HD
ENDBRANCH  12  13
ENDBRANCH   1  12
TORSDOF 4
ENDMDL
MODEL 2
REMARK VINA RESULT:      -5.1      2.036      2.771
REMARK  Name = 10176265
REMARK  4 active torsions:
REMARK  status: ('A' for Active; 'I' for Inactive)
REMARK    1  A    between atoms: C_1  and  C_4
REMARK    2  A    between atoms: C_1  and  N_8
REMARK    3  A    between atoms: C_1  and  C_12
REMARK    4  A    between atoms: C_12  and  S_13
REMARK                            x       y       z     vdW  Elec       q    Type
REMARK                         _______ _______ _______ _____ _____    ______ ____
ROOT
ATOM      1  C   UNL     1      37.377 -25.198 -13.816  0.00  0.00    +0.159 C 
ENDROOT
BRANCH   1   4
ATOM      2  O   UNL     1      38.321 -27.221 -14.776  0.00  0.00    -0.274 OA
ATOM      3  N   UNL     1      36.096 -26.775 -15.127  0.00  0.00    -0.327 N 
ATOM      4  C   UNL     1      37.341 -26.504 -14.597  0.00  0.00    +0.238 C 
ATOM      5  H   UNL     1      35.953 -27.595 -15.653  0.00  0.00    +0.145 HD
ATOM      6  H   UNL     1      35.351 -26.148 -14.981  0.00  0.00    +0.145 HD
ENDBRANCH   1   4
BRANCH   1   8
ATOM      7  O   UNL     1      38.724 -23.398 -15.652  0.00  0.00    -0.275 OA
ATOM      8  N   UNL     1      36.776 -24.193 -14.656  0.00  0.00    -0.298 N 
ATOM      9  C   UNL     1      37.505 -23.375 -15.506  0.00  0.00    +0.223 C 
ATOM     10  C   UNL     1      36.629 -22.432 -16.286  0.00  0.00    +0.095 C 
ATOM     11  H   UNL     1      35.798 -24.081 -14.625  0.00  0.00    +0.150 HD
ENDBRANCH   1   8
BRANCH   1  12
ATOM     12  C   UNL     1      36.647 -25.362 -12.484  0.00  0.00    +0.082 C 
BRANCH  12  13
ATOM     13  S   UNL     1      35.338 -24.117 -12.269  0.00  0.00    -0.166 S 
ATOM     14  H   UNL     1      34.784 -24.249 -11.034  0.00  0.00    +0.102 HD
ENDBRANCH  12  13
ENDBRANCH   1  12
TORSDOF 4
ENDMDL
MODEL 3
REMARK VINA RESULT:      -5.0     12.337     13.101
REMARK  Name = 10176265
REMARK  4 active torsions:
REMARK  status: ('A' for Active; 'I' for Inactive)
REMARK    1  A    between atoms: C_1  and  C_4
REMARK    2  A    between atoms: C_1  and  N_8
REMARK    3  A    between atoms: C_1  and  C_12
REMARK    4  A    between atoms: C_12  and  S_13
REMARK                            x       y       z     vdW  Elec       q    Type
REMARK                         _______ _______ _______ _____ _____    ______ ____
ROOT
ATOM      1  C   UNL     1      34.648 -16.006 -22.631  0.00  0.00    +0.159 C 
ENDROOT
BRANCH   1   4
ATOM      2  O   UNL     1      34.851 -15.286 -20.319  0.00  0.00    -0.274 OA
ATOM      3  N   UNL     1      35.246 -17.492 -20.820  0.00  0.00    -0.327 N 
ATOM      4  C   UNL     1      34.902 -16.196 -21.142  0.00  0.00    +0.238 C 
ATOM      5  H   UNL     1      35.434 -17.733 -19.884  0.00  0.00    +0.145 HD
ATOM      6  H   UNL     1      35.305 -18.176 -21.526  0.00  0.00    +0.145 HD
ENDBRANCH   1   4
BRANCH   1   8
ATOM      7  O   UNL     1      34.879 -16.741 -25.430  0.00  0.00    -0.275 OA
ATOM      8  N   UNL     1      34.521 -17.322 -23.204  0.00  0.00    -0.298 N 
ATOM      9  C   UNL     1      34.648 -17.577 -24.561  0.00  0.00    +0.223 C 
ATOM     10  C   UNL     1      34.496 -19.039 -24.887  0.00  0.00    +0.095 C 
ATOM     11  H   UNL     1      34.334 -18.079 -22.602  0.00  0.00    +0.150 HD
ENDBRANCH   1   8
BRANCH   1  12
ATOM     12  C   UNL     1      33.400 -15.151 -22.846  0.00  0.00    +0.082 C 
BRANCH  12  13
ATOM     13  S   UNL     1      33.789 -13.573 -23.664  0.00  0.00    -0.166 S 
ATOM     14  H   UNL     1      34.572 -13.807 -24.751  0.00  0.00    +0.102 HD
ENDBRANCH  12  13
ENDBRANCH   1  12
TORSDOF 4
ENDMDL
MODEL 4
REMARK VINA RESULT:      -5.0      2.377      3.880
REMARK  Name = 10176265
REMARK  4 active torsions:
REMARK  status: ('A' for Active; 'I' for Inactive)
REMARK    1  A    between atoms: C_1  and  C_4
REMARK    2  A    between atoms: C_1  and  N_8
REMARK    3  A    between atoms: C_1  and  C_12
REMARK    4  A    between atoms: C_12  and  S_13
REMARK                            x       y       z     vdW  Elec       q    Type
REMARK                         _______ _______ _______ _____ _____    ______ ____
ROOT
ATOM      1  C   UNL     1      36.992 -25.102 -15.085  0.00  0.00    +0.159 C 
ENDROOT
BRANCH   1   4
ATOM      2  O   UNL     1      36.718 -27.273 -16.142  0.00  0.00    -0.274 OA
ATOM      3  N   UNL     1      36.778 -27.169 -13.849  0.00  0.00    -0.327 N 
ATOM      4  C   UNL     1      36.833 -26.615 -15.111  0.00  0.00    +0.238 C 
ATOM      5  H   UNL     1      36.676 -28.142 -13.742  0.00  0.00    +0.145 HD
ATOM      6  H   UNL     1      36.841 -26.590 -13.054  0.00  0.00    +0.145 HD
ENDBRANCH   1   4
BRANCH   1   8
ATOM      7  O   UNL     1      35.064 -23.625 -16.674  0.00  0.00    -0.275 OA
ATOM      8  N   UNL     1      35.731 -24.557 -14.648  0.00  0.00    -0.298 N 
ATOM      9  C   UNL     1      34.872 -23.861 -15.485  0.00  0.00    +0.223 C 
ATOM     10  C   UNL     1      33.615 -23.425 -14.781  0.00  0.00    +0.095 C 
ATOM     11  H   UNL     1      35.467 -24.684 -13.708  0.00  0.00    +0.150 HD
ENDBRANCH   1   8
BRANCH   1  12
ATOM     12  C   UNL     1      38.149 -24.711 -14.166  0.00  0.00    +0.082 C 
BRANCH  12  13
ATOM     13  S   UNL     1      39.746 -25.322 -14.787  0.00  0.00    -0.166 S 
ATOM     14  H   UNL     1      39.600 -25.751 -16.069  0.00  0.00    +0.102 HD
ENDBRANCH  12  13
ENDBRANCH   1  12
TORSDOF 4
ENDMDL
MODEL 5
REMARK VINA RESULT:      -4.9     11.393     12.106
REMARK  Name = 10176265
REMARK  4 active torsions:
REMARK  status: ('A' for Active; 'I' for Inactive)
REMARK    1  A    between atoms: C_1  and  C_4
REMARK    2  A    between atoms: C_1  and  N_8
REMARK    3  A    between atoms: C_1  and  C_12
REMARK    4  A    between atoms: C_12  and  S_13
REMARK                            x       y       z     vdW  Elec       q    Type
REMARK                         _______ _______ _______ _____ _____    ______ ____
ROOT
ATOM      1  C   UNL     1      34.991 -16.467 -22.293  0.00  0.00    +0.159 C 
ENDROOT
BRANCH   1   4
ATOM      2  O   UNL     1      34.904 -15.257 -20.187  0.00  0.00    -0.274 OA
ATOM      3  N   UNL     1      33.427 -14.678 -21.846  0.00  0.00    -0.327 N 
ATOM      4  C   UNL     1      34.473 -15.412 -21.326  0.00  0.00    +0.238 C 
ATOM      5  H   UNL     1      33.011 -13.966 -21.309  0.00  0.00    +0.145 HD
ATOM      6  H   UNL     1      33.097 -14.867 -22.755  0.00  0.00    +0.145 HD
ENDBRANCH   1   4
BRANCH   1   8
ATOM      7  O   UNL     1      35.999 -18.584 -20.582  0.00  0.00    -0.275 OA
ATOM      8  N   UNL     1      34.335 -17.704 -21.952  0.00  0.00    -0.298 N 
ATOM      9  C   UNL     1      34.899 -18.661 -21.122  0.00  0.00    +0.223 C 
ATOM     10  C   UNL     1      33.992 -19.844 -20.911  0.00  0.00    +0.095 C 
ATOM     11  H   UNL     1      33.442 -17.879 -22.328  0.00  0.00    +0.150 HD
ENDBRANCH   1   8
BRANCH   1  12
ATOM     12  C   UNL     1      34.719 -16.037 -23.734  0.00  0.00    +0.082 C 
BRANCH  12  13
ATOM     13  S   UNL     1      34.634 -17.461 -24.863  0.00  0.00    -0.166 S 
ATOM     14  H   UNL     1      35.089 -18.573 -24.226  0.00  0.00    +0.102 HD
ENDBRANCH  12  13
ENDBRANCH   1  12
TORSDOF 4
ENDMDL
MODEL 6
REMARK VINA RESULT:      -4.9      9.769     10.636
REMARK  Name = 10176265
REMARK  4 active torsions:
REMARK  status: ('A' for Active; 'I' for Inactive)
REMARK    1  A    between atoms: C_1  and  C_4
REMARK    2  A    between atoms: C_1  and  N_8
REMARK    3  A    between atoms: C_1  and  C_12
REMARK    4  A    between atoms: C_12  and  S_13
REMARK                            x       y       z     vdW  Elec       q    Type
REMARK                         _______ _______ _______ _____ _____    ______ ____
ROOT
ATOM      1  C   UNL     1      34.406 -18.250 -21.571  0.00  0.00    +0.159 C 
ENDROOT
BRANCH   1   4
ATOM      2  O   UNL     1      34.547 -19.136 -23.829  0.00  0.00    -0.274 OA
ATOM      3  N   UNL     1      36.421 -18.183 -22.907  0.00  0.00    -0.327 N 
ATOM      4  C   UNL     1      35.095 -18.564 -22.891  0.00  0.00    +0.238 C 
ATOM      5  H   UNL     1      36.968 -18.337 -23.710  0.00  0.00    +0.145 HD
ATOM      6  H   UNL     1      36.820 -17.757 -22.113  0.00  0.00    +0.145 HD
ENDBRANCH   1   4
BRANCH   1   8
ATOM      7  O   UNL     1      32.478 -20.300 -20.864  0.00  0.00    -0.275 OA
ATOM      8  N   UNL     1      34.614 -19.388 -20.711  0.00  0.00    -0.298 N 
ATOM      9  C   UNL     1      33.626 -20.320 -20.430  0.00  0.00    +0.223 C 
ATOM     10  C   UNL     1      34.116 -21.419 -19.526  0.00  0.00    +0.095 C 
ATOM     11  H   UNL     1      35.501 -19.509 -20.302  0.00  0.00    +0.150 HD
ENDBRANCH   1   8
BRANCH   1  12
ATOM     12  C   UNL     1      34.970 -16.958 -20.979  0.00  0.00    +0.082 C 
BRANCH  12  13
ATOM     13  S   UNL     1      34.239 -15.482 -21.751  0.00  0.00    -0.166 S 
ATOM     14  H   UNL     1      32.977 -15.766 -22.169  0.00  0.00    +0.102 HD
ENDBRANCH  12  13
ENDBRANCH   1  12
TORSDOF 4
ENDMDL
MODEL 7
REMARK VINA RESULT:      -4.9     10.994     11.865
REMARK  Name = 10176265
REMARK  4 active torsions:
REMARK  status: ('A' for Active; 'I' for Inactive)
REMARK    1  A    between atoms: C_1  and  C_4
REMARK    2  A    between atoms: C_1  and  N_8
REMARK    3  A    between atoms: C_1  and  C_12
REMARK    4  A    between atoms: C_12  and  S_13
REMARK                            x       y       z     vdW  Elec       q    Type
REMARK                         _______ _______ _______ _____ _____    ______ ____
ROOT
ATOM      1  C   UNL     1      35.214 -17.751 -21.697  0.00  0.00    +0.159 C 
ENDROOT
BRANCH   1   4
ATOM      2  O   UNL     1      35.344 -18.907 -23.832  0.00  0.00    -0.274 OA
ATOM      3  N   UNL     1      35.558 -16.621 -23.806  0.00  0.00    -0.327 N 
ATOM      4  C   UNL     1      35.358 -17.848 -23.210  0.00  0.00    +0.238 C 
ATOM      5  H   UNL     1      35.665 -16.560 -24.783  0.00  0.00    +0.145 HD
ATOM      6  H   UNL     1      35.595 -15.805 -23.256  0.00  0.00    +0.145 HD
ENDBRANCH   1   4
BRANCH   1   8
ATOM      7  O   UNL     1      34.972 -15.279 -20.196  0.00  0.00    -0.275 OA
ATOM      8  N   UNL     1      34.013 -16.997 -21.440  0.00  0.00    -0.298 N 
ATOM      9  C   UNL     1      33.996 -15.820 -20.707  0.00  0.00    +0.223 C 
ATOM     10  C   UNL     1      32.617 -15.224 -20.611  0.00  0.00    +0.095 C 
ATOM     11  H   UNL     1      33.162 -17.335 -21.801  0.00  0.00    +0.150 HD
ENDBRANCH   1   8
BRANCH   1  12
ATOM     12  C   UNL     1      35.170 -19.150 -21.083  0.00  0.00    +0.082 C 
BRANCH  12  13
ATOM     13  S   UNL     1      33.464 -19.742 -20.863  0.00  0.00    -0.166 S 
ATOM     14  H   UNL     1      33.181 -19.826 -19.535  0.00  0.00    +0.102 HD
ENDBRANCH  12  13
ENDBRANCH   1  12
TORSDOF 4
ENDMDL
MODEL 8
REMARK VINA RESULT:      -4.9     10.373     11.229
REMARK  Name = 10176265
REMARK  4 active torsions:
REMARK  status: ('A' for Active; 'I' for Inactive)
REMARK    1  A    between atoms: C_1  and  C_4
REMARK    2  A    between atoms: C_1  and  N_8
REMARK    3  A    between atoms: C_1  and  C_12
REMARK    4  A    between atoms: C_12  and  S_13
REMARK                            x       y       z     vdW  Elec       q    Type
REMARK                         _______ _______ _______ _____ _____    ______ ____
ROOT
ATOM      1  C   UNL     1      34.687 -18.280 -21.132  0.00  0.00    +0.159 C 
ENDROOT
BRANCH   1   4
ATOM      2  O   UNL     1      36.817 -19.236 -20.455  0.00  0.00    -0.274 OA
ATOM      3  N   UNL     1      36.650 -18.297 -22.544  0.00  0.00    -0.327 N 
ATOM      4  C   UNL     1      36.145 -18.678 -21.318  0.00  0.00    +0.238 C 
ATOM      5  H   UNL     1      37.584 -18.502 -22.776  0.00  0.00    +0.145 HD
ATOM      6  H   UNL     1      36.076 -17.820 -23.187  0.00  0.00    +0.145 HD
ENDBRANCH   1   4
BRANCH   1   8
ATOM      7  O   UNL     1      34.869 -15.559 -20.137  0.00  0.00    -0.275 OA
ATOM      8  N   UNL     1      34.489 -17.061 -21.875  0.00  0.00    -0.298 N 
ATOM      9  C   UNL     1      34.597 -15.799 -21.310  0.00  0.00    +0.223 C 
ATOM     10  C   UNL     1      34.367 -14.701 -22.313  0.00  0.00    +0.095 C 
ATOM     11  H   UNL     1      34.264 -17.127 -22.831  0.00  0.00    +0.150 HD
ENDBRANCH   1   8
BRANCH   1  12
ATOM     12  C   UNL     1      33.771 -19.409 -21.603  0.00  0.00    +0.082 C 
BRANCH  12  13
ATOM     13  S   UNL     1      33.270 -20.495 -20.232  0.00  0.00    -0.166 S 
ATOM     14  H   UNL     1      34.131 -20.338 -19.191  0.00  0.00    +0.102 HD
ENDBRANCH  12  13
ENDBRANCH   1  12
TORSDOF 4
ENDMDL
MODEL 9
REMARK VINA RESULT:      -4.9      2.854      3.825
REMARK  Name = 10176265
REMARK  4 active torsions:
REMARK  status: ('A' for Active; 'I' for Inactive)
REMARK    1  A    between atoms: C_1  and  C_4
REMARK    2  A    between atoms: C_1  and  N_8
REMARK    3  A    between atoms: C_1  and  C_12
REMARK    4  A    between atoms: C_12  and  S_13
REMARK                            x       y       z     vdW  Elec       q    Type
REMARK                         _______ _______ _______ _____ _____    ______ ____
ROOT
ATOM      1  C   UNL     1      37.086 -24.266 -13.070  0.00  0.00    +0.159 C 
ENDROOT
BRANCH   1   4
ATOM      2  O   UNL     1      38.437 -22.805 -11.674  0.00  0.00    -0.274 OA
ATOM      3  N   UNL     1      36.569 -23.778 -10.759  0.00  0.00    -0.327 N 
ATOM      4  C   UNL     1      37.447 -23.522 -11.792  0.00  0.00    +0.238 C 
ATOM      5  H   UNL     1      36.703 -23.350  -9.883  0.00  0.00    +0.145 HD
ATOM      6  H   UNL     1      35.809 -24.388 -10.898  0.00  0.00    +0.145 HD
ENDBRANCH   1   4
BRANCH   1   8
ATOM      7  O   UNL     1      35.877 -24.170 -15.706  0.00  0.00    -0.275 OA
ATOM      8  N   UNL     1      37.451 -23.409 -14.169  0.00  0.00    -0.298 N 
ATOM      9  C   UNL     1      36.811 -23.435 -15.400  0.00  0.00    +0.223 C 
ATOM     10  C   UNL     1      37.372 -22.420 -16.359  0.00  0.00    +0.095 C 
ATOM     11  H   UNL     1      38.192 -22.773 -14.041  0.00  0.00    +0.150 HD
ENDBRANCH   1   8
BRANCH   1  12
ATOM     12  C   UNL     1      37.807 -25.613 -13.114  0.00  0.00    +0.082 C 
BRANCH  12  13
ATOM     13  S   UNL     1      39.471 -25.470 -13.836  0.00  0.00    -0.166 S 
ATOM     14  H   UNL     1      39.712 -26.545 -14.634  0.00  0.00    +0.102 HD
ENDBRANCH  12  13
ENDBRANCH   1  12
TORSDOF 4
ENDMDL
