MODEL 1
REMARK VINA RESULT:      -5.4      0.000      0.000
REMARK  Name = 5287977
REMARK  8 active torsions:
REMARK  status: ('A' for Active; 'I' for Inactive)
REMARK    1  A    between atoms: C_3  and  C_15
REMARK    2  A    between atoms: C_4  and  N_9
REMARK    3  A    between atoms: C_7  and  C_21
REMARK    4  A    between atoms: C_10  and  C_12
REMARK    5  A    between atoms: C_15  and  C_20
REMARK    6  A    between atoms: C_21  and  N_23
REMARK    7  A    between atoms: C_21  and  C_33
REMARK    8  A    between atoms: N_24  and  C_28
REMARK                            x       y       z     vdW  Elec       q    Type
REMARK                         _______ _______ _______ _____ _____    ______ ____
ROOT
ATOM      1  O   UNL     1      30.265  -7.446 -23.425  0.00  0.00    -0.273 OA
ATOM      2  N   UNL     1      32.475  -8.134 -23.395  0.00  0.00    -0.278 N 
ATOM      3  C   UNL     1      32.206  -9.561 -23.208  0.00  0.00    +0.100 C 
ATOM      4  C   UNL     1      33.538 -10.251 -23.523  0.00  0.00    +0.092 C 
ATOM      5  C   UNL     1      34.580  -9.192 -23.157  0.00  0.00    +0.043 C 
ATOM      6  C   UNL     1      33.906  -7.879 -23.536  0.00  0.00    +0.095 C 
ATOM      7  C   UNL     1      31.465  -7.197 -23.550  0.00  0.00    +0.244 C 
ENDROOT
BRANCH   4   9
ATOM      8  O   UNL     1      33.788 -12.915 -24.668  0.00  0.00    -0.275 OA
ATOM      9  N   UNL     1      33.624 -10.605 -24.922  0.00  0.00    -0.304 N 
ATOM     10  C   UNL     1      33.742 -11.909 -25.366  0.00  0.00    +0.222 C 
ATOM     11  H   UNL     1      33.598  -9.883 -25.589  0.00  0.00    +0.149 HD
BRANCH  10  12
ATOM     12  C   UNL     1      33.812 -12.041 -26.852  0.00  0.00    +0.077 C 
ATOM     13  C   UNL     1      32.665 -12.673 -27.585  0.00  0.00    +0.010 C 
ATOM     14  C   UNL     1      33.969 -13.405 -27.456  0.00  0.00    +0.010 C 
ENDBRANCH  10  12
ENDBRANCH   4   9
BRANCH   3  15
ATOM     15  C   UNL     1      31.814  -9.760 -21.745  0.00  0.00    +0.077 C 
ATOM     16  C   UNL     1      32.406 -11.049 -21.140  0.00  0.00    +0.009 C 
ATOM     17  C   UNL     1      30.425 -10.413 -21.586  0.00  0.00    +0.009 C 
ATOM     18  C   UNL     1      31.040 -11.263 -20.453  0.00  0.00    +0.001 C 
BRANCH  15  20
ATOM     19  O   UNL     1      32.773  -8.344 -19.945  0.00  0.00    -0.288 OA
ATOM     20  C   UNL     1      32.049  -8.459 -20.934  0.00  0.00    +0.208 C 
ENDBRANCH  15  20
ENDBRANCH   3  15
BRANCH   7  21
ATOM     21  C   UNL     1      31.922  -5.799 -23.886  0.00  0.00    +0.150 C 
BRANCH  21  23
ATOM     22  O   UNL     1      33.719  -4.498 -25.713  0.00  0.00    -0.253 OA
ATOM     23  N   UNL     1      31.831  -5.789 -25.319  0.00  0.00    -0.283 N 
ATOM     24  N   UNL     1      32.434  -5.275 -27.484  0.00  0.00    -0.291 N 
ATOM     25  C   UNL     1      32.751  -5.129 -26.137  0.00  0.00    +0.301 C 
ATOM     26  H   UNL     1      31.085  -6.270 -25.746  0.00  0.00    +0.151 HD
ATOM     27  H   UNL     1      31.636  -5.800 -27.723  0.00  0.00    +0.151 HD
BRANCH  24  28
ATOM     28  C   UNL     1      33.218  -4.695 -28.546  0.00  0.00    +0.073 C 
ATOM     29  C   UNL     1      33.318  -3.180 -28.408  0.00  0.00    +0.020 C 
ATOM     30  C   UNL     1      32.549  -4.866 -29.905  0.00  0.00    +0.020 C 
ATOM     31  C   UNL     1      32.017  -2.653 -29.008  0.00  0.00    +0.002 C 
ATOM     32  C   UNL     1      31.547  -3.717 -30.000  0.00  0.00    +0.002 C 
ENDBRANCH  24  28
ENDBRANCH  21  23
BRANCH  21  33
ATOM     33  C   UNL     1      31.043  -4.738 -23.216  0.00  0.00    +0.027 C 
ATOM     34  C   UNL     1      31.670  -3.346 -23.349  0.00  0.00    +0.002 C 
ATOM     35  C   UNL     1      30.826  -5.052 -21.731  0.00  0.00    +0.002 C 
ENDBRANCH  21  33
ENDBRANCH   7  21
TORSDOF 8
ENDMDL
MODEL 2
REMARK VINA RESULT:      -5.3      6.210     11.502
REMARK  Name = 5287977
REMARK  8 active torsions:
REMARK  status: ('A' for Active; 'I' for Inactive)
REMARK    1  A    between atoms: C_3  and  C_15
REMARK    2  A    between atoms: C_4  and  N_9
REMARK    3  A    between atoms: C_7  and  C_21
REMARK    4  A    between atoms: C_10  and  C_12
REMARK    5  A    between atoms: C_15  and  C_20
REMARK    6  A    between atoms: C_21  and  N_23
REMARK    7  A    between atoms: C_21  and  C_33
REMARK    8  A    between atoms: N_24  and  C_28
REMARK                            x       y       z     vdW  Elec       q    Type
REMARK                         _______ _______ _______ _____ _____    ______ ____
ROOT
ATOM      1  O   UNL     1      35.214 -15.156 -20.882  0.00  0.00    -0.273 OA
ATOM      2  N   UNL     1      34.074 -14.654 -22.833  0.00  0.00    -0.278 N 
ATOM      3  C   UNL     1      33.658 -13.305 -22.444  0.00  0.00    +0.100 C 
ATOM      4  C   UNL     1      33.189 -12.653 -23.750  0.00  0.00    +0.092 C 
ATOM      5  C   UNL     1      32.703 -13.840 -24.583  0.00  0.00    +0.043 C 
ATOM      6  C   UNL     1      33.655 -14.965 -24.197  0.00  0.00    +0.095 C 
ATOM      7  C   UNL     1      34.878 -15.448 -22.030  0.00  0.00    +0.244 C 
ENDROOT
BRANCH   4   9
ATOM      8  O   UNL     1      33.806  -9.811 -23.658  0.00  0.00    -0.275 OA
ATOM      9  N   UNL     1      34.276 -11.964 -24.409  0.00  0.00    -0.304 N 
ATOM     10  C   UNL     1      34.485 -10.602 -24.302  0.00  0.00    +0.222 C 
ATOM     11  H   UNL     1      34.898 -12.492 -24.960  0.00  0.00    +0.149 HD
BRANCH  10  12
ATOM     12  C   UNL     1      35.669 -10.106 -25.064  0.00  0.00    +0.077 C 
ATOM     13  C   UNL     1      35.475  -9.039 -26.102  0.00  0.00    +0.010 C 
ATOM     14  C   UNL     1      35.794 -10.445 -26.520  0.00  0.00    +0.010 C 
ENDBRANCH  10  12
ENDBRANCH   4   9
BRANCH   3  15
ATOM     15  C   UNL     1      32.503 -13.454 -21.456  0.00  0.00    +0.077 C 
ATOM     16  C   UNL     1      31.386 -12.416 -21.684  0.00  0.00    +0.009 C 
ATOM     17  C   UNL     1      32.777 -12.751 -20.110  0.00  0.00    +0.009 C 
ATOM     18  C   UNL     1      31.310 -12.272 -20.149  0.00  0.00    +0.001 C 
BRANCH  15  20
ATOM     19  O   UNL     1      32.034 -15.628 -20.352  0.00  0.00    -0.288 OA
ATOM     20  C   UNL     1      32.046 -14.934 -21.368  0.00  0.00    +0.208 C 
ENDBRANCH  15  20
ENDBRANCH   3  15
BRANCH   7  21
ATOM     21  C   UNL     1      35.336 -16.745 -22.650  0.00  0.00    +0.150 C 
BRANCH  21  23
ATOM     22  O   UNL     1      37.117 -18.968 -22.267  0.00  0.00    -0.253 OA
ATOM     23  N   UNL     1      35.384 -17.622 -21.513  0.00  0.00    -0.283 N 
ATOM     24  N   UNL     1      36.121 -19.373 -20.209  0.00  0.00    -0.291 N 
ATOM     25  C   UNL     1      36.285 -18.683 -21.406  0.00  0.00    +0.301 C 
ATOM     26  H   UNL     1      34.751 -17.468 -20.774  0.00  0.00    +0.151 HD
ATOM     27  H   UNL     1      35.425 -19.068 -19.583  0.00  0.00    +0.151 HD
BRANCH  24  28
ATOM     28  C   UNL     1      36.922 -20.515 -19.841  0.00  0.00    +0.073 C 
ATOM     29  C   UNL     1      36.430 -21.789 -20.517  0.00  0.00    +0.020 C 
ATOM     30  C   UNL     1      36.791 -20.847 -18.359  0.00  0.00    +0.020 C 
ATOM     31  C   UNL     1      35.266 -22.259 -19.650  0.00  0.00    +0.002 C 
ATOM     32  C   UNL     1      35.520 -21.689 -18.254  0.00  0.00    +0.002 C 
ENDBRANCH  24  28
ENDBRANCH  21  23
BRANCH  21  33
ATOM     33  C   UNL     1      34.374 -17.223 -23.743  0.00  0.00    +0.027 C 
ATOM     34  C   UNL     1      33.858 -18.633 -23.438  0.00  0.00    +0.002 C 
ATOM     35  C   UNL     1      35.051 -17.221 -25.118  0.00  0.00    +0.002 C 
ENDBRANCH  21  33
ENDBRANCH   7  21
TORSDOF 8
ENDMDL
MODEL 3
REMARK VINA RESULT:      -5.2      2.367      3.431
REMARK  Name = 5287977
REMARK  8 active torsions:
REMARK  status: ('A' for Active; 'I' for Inactive)
REMARK    1  A    between atoms: C_3  and  C_15
REMARK    2  A    between atoms: C_4  and  N_9
REMARK    3  A    between atoms: C_7  and  C_21
REMARK    4  A    between atoms: C_10  and  C_12
REMARK    5  A    between atoms: C_15  and  C_20
REMARK    6  A    between atoms: C_21  and  N_23
REMARK    7  A    between atoms: C_21  and  C_33
REMARK    8  A    between atoms: N_24  and  C_28
REMARK                            x       y       z     vdW  Elec       q    Type
REMARK                         _______ _______ _______ _____ _____    ______ ____
ROOT
ATOM      1  O   UNL     1      30.786  -9.156 -23.004  0.00  0.00    -0.273 OA
ATOM      2  N   UNL     1      32.596 -10.591 -23.144  0.00  0.00    -0.278 N 
ATOM      3  C   UNL     1      31.859 -11.823 -22.862  0.00  0.00    +0.100 C 
ATOM      4  C   UNL     1      32.818 -12.950 -23.263  0.00  0.00    +0.092 C 
ATOM      5  C   UNL     1      34.200 -12.330 -23.048  0.00  0.00    +0.043 C 
ATOM      6  C   UNL     1      34.002 -10.868 -23.428  0.00  0.00    +0.095 C 
ATOM      7  C   UNL     1      31.976  -9.356 -23.251  0.00  0.00    +0.244 C 
ENDROOT
BRANCH   4   9
ATOM      8  O   UNL     1      33.775 -15.356 -24.591  0.00  0.00    -0.275 OA
ATOM      9  N   UNL     1      32.627 -13.330 -24.645  0.00  0.00    -0.304 N 
ATOM     10  C   UNL     1      33.125 -14.502 -25.183  0.00  0.00    +0.222 C 
ATOM     11  H   UNL     1      32.117 -12.725 -25.230  0.00  0.00    +0.149 HD
BRANCH  10  12
ATOM     12  C   UNL     1      32.805 -14.692 -26.629  0.00  0.00    +0.077 C 
ATOM     13  C   UNL     1      33.612 -13.957 -27.659  0.00  0.00    +0.010 C 
ATOM     14  C   UNL     1      32.189 -13.559 -27.395  0.00  0.00    +0.010 C 
ENDBRANCH  10  12
ENDBRANCH   4   9
BRANCH   3  15
ATOM     15  C   UNL     1      31.576 -11.848 -21.360  0.00  0.00    +0.077 C 
ATOM     16  C   UNL     1      30.225 -11.199 -20.998  0.00  0.00    +0.009 C 
ATOM     17  C   UNL     1      32.251 -10.682 -20.609  0.00  0.00    +0.009 C 
ATOM     18  C   UNL     1      30.945 -10.550 -19.797  0.00  0.00    +0.001 C 
BRANCH  15  20
ATOM     19  O   UNL     1      32.773 -13.599 -20.070  0.00  0.00    -0.288 OA
ATOM     20  C   UNL     1      31.825 -13.265 -20.781  0.00  0.00    +0.208 C 
ENDBRANCH  15  20
ENDBRANCH   3  15
BRANCH   7  21
ATOM     21  C   UNL     1      32.862  -8.220 -23.697  0.00  0.00    +0.150 C 
BRANCH  21  23
ATOM     22  O   UNL     1      33.037  -5.935 -25.433  0.00  0.00    -0.253 OA
ATOM     23  N   UNL     1      31.934  -7.126 -23.774  0.00  0.00    -0.283 N 
ATOM     24  N   UNL     1      31.057  -5.131 -24.524  0.00  0.00    -0.291 N 
ATOM     25  C   UNL     1      32.094  -6.050 -24.650  0.00  0.00    +0.301 C 
ATOM     26  H   UNL     1      31.147  -7.135 -23.181  0.00  0.00    +0.151 HD
ATOM     27  H   UNL     1      30.347  -5.312 -23.867  0.00  0.00    +0.151 HD
BRANCH  24  28
ATOM     28  C   UNL     1      30.973  -3.925 -25.311  0.00  0.00    +0.073 C 
ATOM     29  C   UNL     1      32.250  -3.098 -25.210  0.00  0.00    +0.020 C 
ATOM     30  C   UNL     1      29.911  -2.971 -24.777  0.00  0.00    +0.020 C 
ATOM     31  C   UNL     1      32.102  -2.321 -23.905  0.00  0.00    +0.002 C 
ATOM     32  C   UNL     1      30.599  -2.204 -23.649  0.00  0.00    +0.002 C 
ENDBRANCH  24  28
ENDBRANCH  21  23
BRANCH  21  33
ATOM     33  C   UNL     1      34.008  -7.972 -22.710  0.00  0.00    +0.027 C 
ATOM     34  C   UNL     1      33.533  -7.130 -21.522  0.00  0.00    +0.002 C 
ATOM     35  C   UNL     1      35.184  -7.264 -23.392  0.00  0.00    +0.002 C 
ENDBRANCH  21  33
ENDBRANCH   7  21
TORSDOF 8
ENDMDL
MODEL 4
REMARK VINA RESULT:      -4.9     15.287     19.863
REMARK  Name = 5287977
REMARK  8 active torsions:
REMARK  status: ('A' for Active; 'I' for Inactive)
REMARK    1  A    between atoms: C_3  and  C_15
REMARK    2  A    between atoms: C_4  and  N_9
REMARK    3  A    between atoms: C_7  and  C_21
REMARK    4  A    between atoms: C_10  and  C_12
REMARK    5  A    between atoms: C_15  and  C_20
REMARK    6  A    between atoms: C_21  and  N_23
REMARK    7  A    between atoms: C_21  and  C_33
REMARK    8  A    between atoms: N_24  and  C_28
REMARK                            x       y       z     vdW  Elec       q    Type
REMARK                         _______ _______ _______ _____ _____    ______ ____
ROOT
ATOM      1  O   UNL     1      35.782 -25.891 -13.704  0.00  0.00    -0.273 OA
ATOM      2  N   UNL     1      36.608 -23.815 -14.307  0.00  0.00    -0.278 N 
ATOM      3  C   UNL     1      37.554 -24.295 -15.315  0.00  0.00    +0.100 C 
ATOM      4  C   UNL     1      37.955 -23.040 -16.099  0.00  0.00    +0.092 C 
ATOM      5  C   UNL     1      37.799 -21.917 -15.072  0.00  0.00    +0.043 C 
ATOM      6  C   UNL     1      36.601 -22.356 -14.238  0.00  0.00    +0.095 C 
ATOM      7  C   UNL     1      35.750 -24.662 -13.624  0.00  0.00    +0.244 C 
ENDROOT
BRANCH   4   9
ATOM      8  O   UNL     1      37.316 -20.523 -17.411  0.00  0.00    -0.275 OA
ATOM      9  N   UNL     1      37.084 -22.833 -17.234  0.00  0.00    -0.304 N 
ATOM     10  C   UNL     1      36.843 -21.589 -17.787  0.00  0.00    +0.222 C 
ATOM     11  H   UNL     1      36.640 -23.617 -17.631  0.00  0.00    +0.149 HD
BRANCH  10  12
ATOM     12  C   UNL     1      35.913 -21.611 -18.954  0.00  0.00    +0.077 C 
ATOM     13  C   UNL     1      36.473 -21.811 -20.332  0.00  0.00    +0.010 C 
ATOM     14  C   UNL     1      35.935 -20.470 -19.927  0.00  0.00    +0.010 C 
ENDBRANCH  10  12
ENDBRANCH   4   9
BRANCH   3  15
ATOM     15  C   UNL     1      38.750 -24.885 -14.569  0.00  0.00    +0.077 C 
ATOM     16  C   UNL     1      40.100 -24.503 -15.211  0.00  0.00    +0.009 C 
ATOM     17  C   UNL     1      39.050 -26.340 -14.985  0.00  0.00    +0.009 C 
ATOM     18  C   UNL     1      40.546 -25.958 -14.956  0.00  0.00    +0.001 C 
BRANCH  15  20
ATOM     19  O   UNL     1      39.314 -23.846 -12.386  0.00  0.00    -0.288 OA
ATOM     20  C   UNL     1      38.626 -24.625 -13.045  0.00  0.00    +0.208 C 
ENDBRANCH  15  20
ENDBRANCH   3  15
BRANCH   7  21
ATOM     21  C   UNL     1      34.737 -23.984 -12.735  0.00  0.00    +0.150 C 
BRANCH  21  23
ATOM     22  O   UNL     1      32.164 -22.765 -13.132  0.00  0.00    -0.253 OA
ATOM     23  N   UNL     1      33.519 -24.649 -13.104  0.00  0.00    -0.283 N 
ATOM     24  N   UNL     1      31.285 -24.855 -13.632  0.00  0.00    -0.291 N 
ATOM     25  C   UNL     1      32.306 -23.979 -13.277  0.00  0.00    +0.301 C 
ATOM     26  H   UNL     1      33.539 -25.625 -13.241  0.00  0.00    +0.151 HD
ATOM     27  H   UNL     1      31.498 -25.812 -13.723  0.00  0.00    +0.151 HD
BRANCH  24  28
ATOM     28  C   UNL     1      29.928 -24.428 -13.873  0.00  0.00    +0.073 C 
ATOM     29  C   UNL     1      29.200 -25.377 -14.818  0.00  0.00    +0.020 C 
ATOM     30  C   UNL     1      29.874 -23.100 -14.619  0.00  0.00    +0.020 C 
ATOM     31  C   UNL     1      29.641 -24.942 -16.213  0.00  0.00    +0.002 C 
ATOM     32  C   UNL     1      30.034 -23.469 -16.093  0.00  0.00    +0.002 C 
ENDBRANCH  24  28
ENDBRANCH  21  23
BRANCH  21  33
ATOM     33  C   UNL     1      35.088 -24.141 -11.251  0.00  0.00    +0.027 C 
ATOM     34  C   UNL     1      36.185 -23.153 -10.842  0.00  0.00    +0.002 C 
ATOM     35  C   UNL     1      35.551 -25.568 -10.938  0.00  0.00    +0.002 C 
ENDBRANCH  21  33
ENDBRANCH   7  21
TORSDOF 8
ENDMDL
MODEL 5
REMARK VINA RESULT:      -4.9      8.640     14.434
REMARK  Name = 5287977
REMARK  8 active torsions:
REMARK  status: ('A' for Active; 'I' for Inactive)
REMARK    1  A    between atoms: C_3  and  C_15
REMARK    2  A    between atoms: C_4  and  N_9
REMARK    3  A    between atoms: C_7  and  C_21
REMARK    4  A    between atoms: C_10  and  C_12
REMARK    5  A    between atoms: C_15  and  C_20
REMARK    6  A    between atoms: C_21  and  N_23
REMARK    7  A    between atoms: C_21  and  C_33
REMARK    8  A    between atoms: N_24  and  C_28
REMARK                            x       y       z     vdW  Elec       q    Type
REMARK                         _______ _______ _______ _____ _____    ______ ____
ROOT
ATOM      1  O   UNL     1      33.228 -20.151 -21.937  0.00  0.00    -0.273 OA
ATOM      2  N   UNL     1      34.399 -18.170 -21.689  0.00  0.00    -0.278 N 
ATOM      3  C   UNL     1      33.811 -17.480 -22.838  0.00  0.00    +0.100 C 
ATOM      4  C   UNL     1      34.190 -16.007 -22.642  0.00  0.00    +0.092 C 
ATOM      5  C   UNL     1      35.502 -16.082 -21.859  0.00  0.00    +0.043 C 
ATOM      6  C   UNL     1      35.316 -17.298 -20.960  0.00  0.00    +0.095 C 
ATOM      7  C   UNL     1      34.005 -19.440 -21.298  0.00  0.00    +0.244 C 
ENDROOT
BRANCH   4   9
ATOM      8  O   UNL     1      33.473 -13.194 -22.833  0.00  0.00    -0.275 OA
ATOM      9  N   UNL     1      33.175 -15.303 -21.892  0.00  0.00    -0.304 N 
ATOM     10  C   UNL     1      32.910 -13.957 -22.057  0.00  0.00    +0.222 C 
ATOM     11  H   UNL     1      32.647 -15.808 -21.232  0.00  0.00    +0.149 HD
BRANCH  10  12
ATOM     12  C   UNL     1      31.818 -13.439 -21.180  0.00  0.00    +0.077 C 
ATOM     13  C   UNL     1      31.392 -12.006 -21.311  0.00  0.00    +0.010 C 
ATOM     14  C   UNL     1      32.154 -12.455 -20.099  0.00  0.00    +0.010 C 
ENDBRANCH  10  12
ENDBRANCH   4   9
BRANCH   3  15
ATOM     15  C   UNL     1      34.464 -18.055 -24.094  0.00  0.00    +0.077 C 
ATOM     16  C   UNL     1      33.675 -19.240 -24.687  0.00  0.00    +0.009 C 
ATOM     17  C   UNL     1      35.588 -19.063 -23.771  0.00  0.00    +0.009 C 
ATOM     18  C   UNL     1      35.036 -19.929 -24.924  0.00  0.00    +0.001 C 
BRANCH  15  20
ATOM     19  O   UNL     1      34.150 -16.542 -26.038  0.00  0.00    -0.288 OA
ATOM     20  C   UNL     1      34.833 -16.922 -25.087  0.00  0.00    +0.208 C 
ENDBRANCH  15  20
ENDBRANCH   3  15
BRANCH   7  21
ATOM     21  C   UNL     1      34.602 -19.937 -20.005  0.00  0.00    +0.150 C 
BRANCH  21  23
ATOM     22  O   UNL     1      34.846 -22.242 -18.305  0.00  0.00    -0.253 OA
ATOM     23  N   UNL     1      33.528 -20.718 -19.458  0.00  0.00    -0.283 N 
ATOM     24  N   UNL     1      32.530 -22.404 -18.244  0.00  0.00    -0.291 N 
ATOM     25  C   UNL     1      33.735 -21.828 -18.636  0.00  0.00    +0.301 C 
ATOM     26  H   UNL     1      32.602 -20.459 -19.672  0.00  0.00    +0.151 HD
ATOM     27  H   UNL     1      31.691 -21.999 -18.563  0.00  0.00    +0.151 HD
BRANCH  24  28
ATOM     28  C   UNL     1      32.452 -23.565 -17.392  0.00  0.00    +0.073 C 
ATOM     29  C   UNL     1      31.048 -23.755 -16.828  0.00  0.00    +0.020 C 
ATOM     30  C   UNL     1      33.301 -23.408 -16.136  0.00  0.00    +0.020 C 
ATOM     31  C   UNL     1      30.983 -22.807 -15.633  0.00  0.00    +0.002 C 
ATOM     32  C   UNL     1      32.426 -22.618 -15.164  0.00  0.00    +0.002 C 
ENDBRANCH  24  28
ENDBRANCH  21  23
BRANCH  21  33
ATOM     33  C   UNL     1      35.880 -20.748 -20.244  0.00  0.00    +0.027 C 
ATOM     34  C   UNL     1      37.093 -19.824 -20.397  0.00  0.00    +0.002 C 
ATOM     35  C   UNL     1      35.755 -21.627 -21.493  0.00  0.00    +0.002 C 
ENDBRANCH  21  33
ENDBRANCH   7  21
TORSDOF 8
ENDMDL
MODEL 6
REMARK VINA RESULT:      -4.6      3.046      6.718
REMARK  Name = 5287977
REMARK  8 active torsions:
REMARK  status: ('A' for Active; 'I' for Inactive)
REMARK    1  A    between atoms: C_3  and  C_15
REMARK    2  A    between atoms: C_4  and  N_9
REMARK    3  A    between atoms: C_7  and  C_21
REMARK    4  A    between atoms: C_10  and  C_12
REMARK    5  A    between atoms: C_15  and  C_20
REMARK    6  A    between atoms: C_21  and  N_23
REMARK    7  A    between atoms: C_21  and  C_33
REMARK    8  A    between atoms: N_24  and  C_28
REMARK                            x       y       z     vdW  Elec       q    Type
REMARK                         _______ _______ _______ _____ _____    ______ ____
ROOT
ATOM      1  O   UNL     1      34.923 -13.301 -23.363  0.00  0.00    -0.273 OA
ATOM      2  N   UNL     1      32.880 -12.748 -22.429  0.00  0.00    -0.278 N 
ATOM      3  C   UNL     1      33.259 -12.989 -21.036  0.00  0.00    +0.100 C 
ATOM      4  C   UNL     1      32.145 -12.332 -20.211  0.00  0.00    +0.092 C 
ATOM      5  C   UNL     1      30.926 -12.421 -21.132  0.00  0.00    +0.043 C 
ATOM      6  C   UNL     1      31.514 -12.240 -22.525  0.00  0.00    +0.095 C 
ATOM      7  C   UNL     1      33.776 -12.868 -23.479  0.00  0.00    +0.244 C 
ENDROOT
BRANCH   4   9
ATOM      8  O   UNL     1      30.356 -10.278 -19.190  0.00  0.00    -0.275 OA
ATOM      9  N   UNL     1      32.467 -10.958 -19.902  0.00  0.00    -0.304 N 
ATOM     10  C   UNL     1      31.539 -10.054 -19.419  0.00  0.00    +0.222 C 
ATOM     11  H   UNL     1      33.391 -10.650 -20.043  0.00  0.00    +0.149 HD
BRANCH  10  12
ATOM     12  C   UNL     1      32.092  -8.690 -19.167  0.00  0.00    +0.077 C 
ATOM     13  C   UNL     1      31.575  -7.532 -19.969  0.00  0.00    +0.010 C 
ATOM     14  C   UNL     1      32.962  -8.052 -20.208  0.00  0.00    +0.010 C 
ENDBRANCH  10  12
ENDBRANCH   4   9
BRANCH   3  15
ATOM     15  C   UNL     1      33.280 -14.503 -20.828  0.00  0.00    +0.077 C 
ATOM     16  C   UNL     1      32.469 -15.262 -21.898  0.00  0.00    +0.009 C 
ATOM     17  C   UNL     1      32.227 -14.976 -19.804  0.00  0.00    +0.009 C 
ATOM     18  C   UNL     1      31.946 -16.159 -20.756  0.00  0.00    +0.001 C 
BRANCH  15  20
ATOM     19  O   UNL     1      35.051 -16.082 -20.099  0.00  0.00    -0.288 OA
ATOM     20  C   UNL     1      34.729 -15.002 -20.593  0.00  0.00    +0.208 C 
ENDBRANCH  15  20
ENDBRANCH   3  15
BRANCH   7  21
ATOM     21  C   UNL     1      33.259 -12.434 -24.828  0.00  0.00    +0.150 C 
BRANCH  21  23
ATOM     22  O   UNL     1      33.110 -10.101 -23.156  0.00  0.00    -0.253 OA
ATOM     23  N   UNL     1      33.946 -11.189 -25.028  0.00  0.00    -0.283 N 
ATOM     24  N   UNL     1      34.587  -9.020 -24.584  0.00  0.00    -0.291 N 
ATOM     25  C   UNL     1      33.817 -10.100 -24.163  0.00  0.00    +0.301 C 
ATOM     26  H   UNL     1      34.536 -11.098 -25.812  0.00  0.00    +0.151 HD
ATOM     27  H   UNL     1      35.121  -9.116 -25.406  0.00  0.00    +0.151 HD
BRANCH  24  28
ATOM     28  C   UNL     1      34.641  -7.765 -23.875  0.00  0.00    +0.073 C 
ATOM     29  C   UNL     1      33.261  -7.332 -23.393  0.00  0.00    +0.020 C 
ATOM     30  C   UNL     1      35.057  -6.615 -24.784  0.00  0.00    +0.020 C 
ATOM     31  C   UNL     1      32.617  -6.677 -24.612  0.00  0.00    +0.002 C 
ATOM     32  C   UNL     1      33.771  -6.179 -25.484  0.00  0.00    +0.002 C 
ENDBRANCH  24  28
ENDBRANCH  21  23
BRANCH  21  33
ATOM     33  C   UNL     1      33.560 -13.473 -25.914  0.00  0.00    +0.027 C 
ATOM     34  C   UNL     1      33.120 -12.966 -27.291  0.00  0.00    +0.002 C 
ATOM     35  C   UNL     1      32.860 -14.804 -25.619  0.00  0.00    +0.002 C 
ENDBRANCH  21  33
ENDBRANCH   7  21
TORSDOF 8
ENDMDL
MODEL 7
REMARK VINA RESULT:      -4.5     13.850     17.948
REMARK  Name = 5287977
REMARK  8 active torsions:
REMARK  status: ('A' for Active; 'I' for Inactive)
REMARK    1  A    between atoms: C_3  and  C_15
REMARK    2  A    between atoms: C_4  and  N_9
REMARK    3  A    between atoms: C_7  and  C_21
REMARK    4  A    between atoms: C_10  and  C_12
REMARK    5  A    between atoms: C_15  and  C_20
REMARK    6  A    between atoms: C_21  and  N_23
REMARK    7  A    between atoms: C_21  and  C_33
REMARK    8  A    between atoms: N_24  and  C_28
REMARK                            x       y       z     vdW  Elec       q    Type
REMARK                         _______ _______ _______ _____ _____    ______ ____
ROOT
ATOM      1  O   UNL     1      36.279 -21.727 -14.703  0.00  0.00    -0.273 OA
ATOM      2  N   UNL     1      34.934 -23.601 -14.898  0.00  0.00    -0.278 N 
ATOM      3  C   UNL     1      34.358 -23.536 -13.554  0.00  0.00    +0.100 C 
ATOM      4  C   UNL     1      33.158 -24.490 -13.599  0.00  0.00    +0.092 C 
ATOM      5  C   UNL     1      33.565 -25.518 -14.658  0.00  0.00    +0.043 C 
ATOM      6  C   UNL     1      34.357 -24.698 -15.669  0.00  0.00    +0.095 C 
ATOM      7  C   UNL     1      35.810 -22.642 -15.382  0.00  0.00    +0.244 C 
ENDROOT
BRANCH   4   9
ATOM      8  O   UNL     1      30.630 -25.654 -14.447  0.00  0.00    -0.275 OA
ATOM      9  N   UNL     1      31.952 -23.793 -13.986  0.00  0.00    -0.304 N 
ATOM     10  C   UNL     1      30.796 -24.442 -14.376  0.00  0.00    +0.222 C 
ATOM     11  H   UNL     1      31.955 -22.809 -13.971  0.00  0.00    +0.149 HD
BRANCH  10  12
ATOM     12  C   UNL     1      29.672 -23.525 -14.729  0.00  0.00    +0.077 C 
ATOM     13  C   UNL     1      28.669 -23.959 -15.757  0.00  0.00    +0.010 C 
ATOM     14  C   UNL     1      29.656 -22.877 -16.082  0.00  0.00    +0.010 C 
ENDBRANCH  10  12
ENDBRANCH   4   9
BRANCH   3  15
ATOM     15  C   UNL     1      35.423 -24.036 -12.579  0.00  0.00    +0.077 C 
ATOM     16  C   UNL     1      36.521 -22.987 -12.309  0.00  0.00    +0.009 C 
ATOM     17  C   UNL     1      36.510 -24.884 -13.272  0.00  0.00    +0.009 C 
ATOM     18  C   UNL     1      37.540 -24.144 -12.391  0.00  0.00    +0.001 C 
BRANCH  15  20
ATOM     19  O   UNL     1      35.349 -25.023 -10.303  0.00  0.00    -0.288 OA
ATOM     20  C   UNL     1      34.764 -24.668 -11.326  0.00  0.00    +0.208 C 
ENDBRANCH  15  20
ENDBRANCH   3  15
BRANCH   7  21
ATOM     21  C   UNL     1      36.185 -22.781 -16.836  0.00  0.00    +0.150 C 
BRANCH  21  23
ATOM     22  O   UNL     1      35.518 -22.708 -19.632  0.00  0.00    -0.253 OA
ATOM     23  N   UNL     1      35.250 -21.896 -17.474  0.00  0.00    -0.283 N 
ATOM     24  N   UNL     1      34.041 -20.968 -19.203  0.00  0.00    -0.291 N 
ATOM     25  C   UNL     1      34.983 -21.927 -18.845  0.00  0.00    +0.301 C 
ATOM     26  H   UNL     1      34.775 -21.236 -16.919  0.00  0.00    +0.151 HD
ATOM     27  H   UNL     1      33.670 -20.389 -18.499  0.00  0.00    +0.151 HD
BRANCH  24  28
ATOM     28  C   UNL     1      33.581 -20.782 -20.558  0.00  0.00    +0.073 C 
ATOM     29  C   UNL     1      34.688 -20.247 -21.459  0.00  0.00    +0.020 C 
ATOM     30  C   UNL     1      32.514 -19.698 -20.652  0.00  0.00    +0.020 C 
ATOM     31  C   UNL     1      34.699 -18.743 -21.199  0.00  0.00    +0.002 C 
ATOM     32  C   UNL     1      33.291 -18.385 -20.722  0.00  0.00    +0.002 C 
ENDBRANCH  24  28
ENDBRANCH  21  23
BRANCH  21  33
ATOM     33  C   UNL     1      37.648 -22.397 -17.086  0.00  0.00    +0.027 C 
ATOM     34  C   UNL     1      38.578 -23.128 -16.112  0.00  0.00    +0.002 C 
ATOM     35  C   UNL     1      37.857 -20.885 -16.945  0.00  0.00    +0.002 C 
ENDBRANCH  21  33
ENDBRANCH   7  21
TORSDOF 8
ENDMDL
MODEL 8
REMARK VINA RESULT:      -4.4     13.374     17.329
REMARK  Name = 5287977
REMARK  8 active torsions:
REMARK  status: ('A' for Active; 'I' for Inactive)
REMARK    1  A    between atoms: C_3  and  C_15
REMARK    2  A    between atoms: C_4  and  N_9
REMARK    3  A    between atoms: C_7  and  C_21
REMARK    4  A    between atoms: C_10  and  C_12
REMARK    5  A    between atoms: C_15  and  C_20
REMARK    6  A    between atoms: C_21  and  N_23
REMARK    7  A    between atoms: C_21  and  C_33
REMARK    8  A    between atoms: N_24  and  C_28
REMARK                            x       y       z     vdW  Elec       q    Type
REMARK                         _______ _______ _______ _____ _____    ______ ____
ROOT
ATOM      1  O   UNL     1      33.794 -24.123 -18.057  0.00  0.00    -0.273 OA
ATOM      2  N   UNL     1      34.402 -23.344 -15.964  0.00  0.00    -0.278 N 
ATOM      3  C   UNL     1      33.557 -24.256 -15.191  0.00  0.00    +0.100 C 
ATOM      4  C   UNL     1      34.082 -24.149 -13.755  0.00  0.00    +0.092 C 
ATOM      5  C   UNL     1      34.645 -22.727 -13.691  0.00  0.00    +0.043 C 
ATOM      6  C   UNL     1      35.211 -22.501 -15.087  0.00  0.00    +0.095 C 
ATOM      7  C   UNL     1      34.493 -23.400 -17.346  0.00  0.00    +0.244 C 
ENDROOT
BRANCH   4   9
ATOM      8  O   UNL     1      36.242 -23.991 -11.812  0.00  0.00    -0.275 OA
ATOM      9  N   UNL     1      35.113 -25.129 -13.501  0.00  0.00    -0.304 N 
ATOM     10  C   UNL     1      36.101 -24.959 -12.550  0.00  0.00    +0.222 C 
ATOM     11  H   UNL     1      35.110 -25.959 -14.031  0.00  0.00    +0.149 HD
BRANCH  10  12
ATOM     12  C   UNL     1      37.059 -26.101 -12.457  0.00  0.00    +0.077 C 
ATOM     13  C   UNL     1      38.474 -25.908 -12.918  0.00  0.00    +0.010 C 
ATOM     14  C   UNL     1      37.533 -26.761 -13.717  0.00  0.00    +0.010 C 
ENDBRANCH  10  12
ENDBRANCH   4   9
BRANCH   3  15
ATOM     15  C   UNL     1      32.122 -23.742 -15.294  0.00  0.00    +0.077 C 
ATOM     16  C   UNL     1      31.621 -23.108 -13.981  0.00  0.00    +0.009 C 
ATOM     17  C   UNL     1      31.075 -24.853 -15.068  0.00  0.00    +0.009 C 
ATOM     18  C   UNL     1      30.278 -23.825 -14.235  0.00  0.00    +0.001 C 
BRANCH  15  20
ATOM     19  O   UNL     1      30.865 -22.552 -17.074  0.00  0.00    -0.288 OA
ATOM     20  C   UNL     1      31.939 -22.886 -16.575  0.00  0.00    +0.208 C 
ENDBRANCH  15  20
ENDBRANCH   3  15
BRANCH   7  21
ATOM     21  C   UNL     1      35.524 -22.490 -17.966  0.00  0.00    +0.150 C 
BRANCH  21  23
ATOM     22  O   UNL     1      35.784 -21.462 -20.638  0.00  0.00    -0.253 OA
ATOM     23  N   UNL     1      34.706 -21.483 -18.582  0.00  0.00    -0.283 N 
ATOM     24  N   UNL     1      33.974 -20.062 -20.242  0.00  0.00    -0.291 N 
ATOM     25  C   UNL     1      34.901 -21.039 -19.892  0.00  0.00    +0.301 C 
ATOM     26  H   UNL     1      33.973 -21.087 -18.057  0.00  0.00    +0.151 HD
ATOM     27  H   UNL     1      33.305 -19.789 -19.574  0.00  0.00    +0.151 HD
BRANCH  24  28
ATOM     28  C   UNL     1      33.947 -19.429 -21.538  0.00  0.00    +0.073 C 
ATOM     29  C   UNL     1      35.341 -19.341 -22.150  0.00  0.00    +0.020 C 
ATOM     30  C   UNL     1      33.524 -17.968 -21.449  0.00  0.00    +0.020 C 
ATOM     31  C   UNL     1      35.966 -18.109 -21.503  0.00  0.00    +0.002 C 
ATOM     32  C   UNL     1      34.801 -17.209 -21.091  0.00  0.00    +0.002 C 
ENDBRANCH  24  28
ENDBRANCH  21  23
BRANCH  21  33
ATOM     33  C   UNL     1      36.490 -21.927 -16.918  0.00  0.00    +0.027 C 
ATOM     34  C   UNL     1      37.230 -20.700 -17.460  0.00  0.00    +0.002 C 
ATOM     35  C   UNL     1      37.514 -22.982 -16.482  0.00  0.00    +0.002 C 
ENDBRANCH  21  33
ENDBRANCH   7  21
TORSDOF 8
ENDMDL
MODEL 9
REMARK VINA RESULT:      -4.4      2.535      5.935
REMARK  Name = 5287977
REMARK  8 active torsions:
REMARK  status: ('A' for Active; 'I' for Inactive)
REMARK    1  A    between atoms: C_3  and  C_15
REMARK    2  A    between atoms: C_4  and  N_9
REMARK    3  A    between atoms: C_7  and  C_21
REMARK    4  A    between atoms: C_10  and  C_12
REMARK    5  A    between atoms: C_15  and  C_20
REMARK    6  A    between atoms: C_21  and  N_23
REMARK    7  A    between atoms: C_21  and  C_33
REMARK    8  A    between atoms: N_24  and  C_28
REMARK                            x       y       z     vdW  Elec       q    Type
REMARK                         _______ _______ _______ _____ _____    ______ ____
ROOT
ATOM      1  O   UNL     1      34.971  -7.353 -22.917  0.00  0.00    -0.273 OA
ATOM      2  N   UNL     1      32.806  -6.965 -23.639  0.00  0.00    -0.278 N 
ATOM      3  C   UNL     1      32.391  -6.149 -22.497  0.00  0.00    +0.100 C 
ATOM      4  C   UNL     1      31.086  -5.483 -22.950  0.00  0.00    +0.092 C 
ATOM      5  C   UNL     1      30.509  -6.484 -23.954  0.00  0.00    +0.043 C 
ATOM      6  C   UNL     1      31.743  -7.061 -24.636  0.00  0.00    +0.095 C 
ATOM      7  C   UNL     1      34.097  -7.451 -23.780  0.00  0.00    +0.244 C 
ENDROOT
BRANCH   4   9
ATOM      8  O   UNL     1      29.969  -2.896 -22.228  0.00  0.00    -0.275 OA
ATOM      9  N   UNL     1      31.342  -4.206 -23.577  0.00  0.00    -0.304 N 
ATOM     10  C   UNL     1      30.758  -3.026 -23.157  0.00  0.00    +0.222 C 
ATOM     11  H   UNL     1      31.963  -4.176 -24.340  0.00  0.00    +0.149 HD
BRANCH  10  12
ATOM     12  C   UNL     1      31.168  -1.828 -23.947  0.00  0.00    +0.077 C 
ATOM     13  C   UNL     1      30.872  -1.786 -25.418  0.00  0.00    +0.010 C 
ATOM     14  C   UNL     1      32.285  -1.957 -24.941  0.00  0.00    +0.010 C 
ENDBRANCH  10  12
ENDBRANCH   4   9
BRANCH   3  15
ATOM     15  C   UNL     1      32.147  -7.099 -21.325  0.00  0.00    +0.077 C 
ATOM     16  C   UNL     1      31.197  -6.506 -20.265  0.00  0.00    +0.009 C 
ATOM     17  C   UNL     1      33.261  -7.025 -20.259  0.00  0.00    +0.009 C 
ATOM     18  C   UNL     1      32.142  -7.098 -19.198  0.00  0.00    +0.001 C 
BRANCH  15  20
ATOM     19  O   UNL     1      32.218  -9.580 -21.385  0.00  0.00    -0.288 OA
ATOM     20  C   UNL     1      31.790  -8.519 -21.838  0.00  0.00    +0.208 C 
ENDBRANCH  15  20
ENDBRANCH   3  15
BRANCH   7  21
ATOM     21  C   UNL     1      34.392  -8.142 -25.088  0.00  0.00    +0.150 C 
BRANCH  21  23
ATOM     22  O   UNL     1      33.587  -5.702 -26.378  0.00  0.00    -0.253 OA
ATOM     23  N   UNL     1      35.248  -7.193 -25.743  0.00  0.00    -0.283 N 
ATOM     24  N   UNL     1      35.809  -5.284 -26.908  0.00  0.00    -0.291 N 
ATOM     25  C   UNL     1      34.774  -6.027 -26.347  0.00  0.00    +0.301 C 
ATOM     26  H   UNL     1      36.217  -7.373 -25.767  0.00  0.00    +0.151 HD
ATOM     27  H   UNL     1      36.728  -5.629 -26.831  0.00  0.00    +0.151 HD
BRANCH  24  28
ATOM     28  C   UNL     1      35.600  -4.034 -27.595  0.00  0.00    +0.073 C 
ATOM     29  C   UNL     1      35.096  -4.251 -29.017  0.00  0.00    +0.020 C 
ATOM     30  C   UNL     1      36.906  -3.279 -27.811  0.00  0.00    +0.020 C 
ATOM     31  C   UNL     1      36.354  -4.549 -29.828  0.00  0.00    +0.002 C 
ATOM     32  C   UNL     1      37.509  -3.888 -29.076  0.00  0.00    +0.002 C 
ENDBRANCH  24  28
ENDBRANCH  21  23
BRANCH  21  33
ATOM     33  C   UNL     1      35.053  -9.507 -24.874  0.00  0.00    +0.027 C 
ATOM     34  C   UNL     1      35.591 -10.067 -26.195  0.00  0.00    +0.002 C 
ATOM     35  C   UNL     1      34.069 -10.512 -24.264  0.00  0.00    +0.002 C 
ENDBRANCH  21  33
ENDBRANCH   7  21
TORSDOF 8
ENDMDL
