MODEL 1
REMARK VINA RESULT:      -6.1      0.000      0.000
REMARK  Name = 7151
REMARK  2 active torsions:
REMARK  status: ('A' for Active; 'I' for Inactive)
REMARK    1  A    between atoms: C_2  and  C_8
REMARK    2  A    between atoms: C_8  and  O_9
REMARK                            x       y       z     vdW  Elec       q    Type
REMARK                         _______ _______ _______ _____ _____    ______ ____
ROOT
ATOM      1  N   UNL     1      35.902 -19.856 -20.384  0.00  0.00    -0.242 NA
ATOM      2  C   UNL     1      34.064 -21.311 -19.798  0.00  0.00    +0.095 C 
ATOM      3  C   UNL     1      33.169 -20.435 -20.402  0.00  0.00    +0.010 C 
ATOM      4  C   UNL     1      35.408 -20.978 -19.815  0.00  0.00    +0.105 C 
ATOM      5  C   UNL     1      33.638 -19.270 -20.998  0.00  0.00    +0.021 C 
ATOM      6  C   UNL     1      35.003 -19.028 -20.961  0.00  0.00    +0.099 C 
ENDROOT
BRANCH   2   8
ATOM      7  O   UNL     1      34.102 -23.654 -19.357  0.00  0.00    -0.245 OA
ATOM      8  C   UNL     1      33.603 -22.536 -19.168  0.00  0.00    +0.343 C 
BRANCH   8   9
ATOM      9  O   UNL     1      32.544 -22.306 -18.331  0.00  0.00    -0.441 OA
ATOM     10  C   UNL     1      32.500 -23.065 -17.118  0.00  0.00    +0.256 C 
ENDBRANCH   8   9
ENDBRANCH   2   8
TORSDOF 2
ENDMDL
MODEL 2
REMARK VINA RESULT:      -6.1      2.954      4.487
REMARK  Name = 7151
REMARK  2 active torsions:
REMARK  status: ('A' for Active; 'I' for Inactive)
REMARK    1  A    between atoms: C_2  and  C_8
REMARK    2  A    between atoms: C_8  and  O_9
REMARK                            x       y       z     vdW  Elec       q    Type
REMARK                         _______ _______ _______ _____ _____    ______ ____
ROOT
ATOM      1  N   UNL     1      32.840 -21.599 -19.488  0.00  0.00    -0.242 NA
ATOM      2  C   UNL     1      34.465 -20.163 -20.555  0.00  0.00    +0.095 C 
ATOM      3  C   UNL     1      35.498 -20.881 -19.964  0.00  0.00    +0.010 C 
ATOM      4  C   UNL     1      33.165 -20.558 -20.287  0.00  0.00    +0.105 C 
ATOM      5  C   UNL     1      35.205 -21.958 -19.136  0.00  0.00    +0.021 C 
ATOM      6  C   UNL     1      33.871 -22.274 -18.931  0.00  0.00    +0.099 C 
ENDROOT
BRANCH   2   8
ATOM      7  O   UNL     1      34.481 -18.999 -22.637  0.00  0.00    -0.245 OA
ATOM      8  C   UNL     1      34.740 -19.032 -21.425  0.00  0.00    +0.343 C 
BRANCH   8   9
ATOM      9  O   UNL     1      35.322 -17.999 -20.741  0.00  0.00    -0.441 OA
ATOM     10  C   UNL     1      34.906 -16.675 -21.090  0.00  0.00    +0.256 C 
ENDBRANCH   8   9
ENDBRANCH   2   8
TORSDOF 2
ENDMDL
MODEL 3
REMARK VINA RESULT:      -5.9      2.895      4.235
REMARK  Name = 7151
REMARK  2 active torsions:
REMARK  status: ('A' for Active; 'I' for Inactive)
REMARK    1  A    between atoms: C_2  and  C_8
REMARK    2  A    between atoms: C_8  and  O_9
REMARK                            x       y       z     vdW  Elec       q    Type
REMARK                         _______ _______ _______ _____ _____    ______ ____
ROOT
ATOM      1  N   UNL     1      35.711 -21.969 -19.158  0.00  0.00    -0.242 NA
ATOM      2  C   UNL     1      34.834 -20.184 -20.530  0.00  0.00    +0.095 C 
ATOM      3  C   UNL     1      33.536 -20.560 -20.203  0.00  0.00    +0.010 C 
ATOM      4  C   UNL     1      35.878 -20.914 -19.987  0.00  0.00    +0.105 C 
ATOM      5  C   UNL     1      33.324 -21.639 -19.353  0.00  0.00    +0.021 C 
ATOM      6  C   UNL     1      34.436 -22.306 -18.862  0.00  0.00    +0.099 C 
ENDROOT
BRANCH   2   8
ATOM      7  O   UNL     1      34.946 -19.090 -22.647  0.00  0.00    -0.245 OA
ATOM      8  C   UNL     1      35.087 -19.060 -21.416  0.00  0.00    +0.343 C 
BRANCH   8   9
ATOM      9  O   UNL     1      35.502 -17.955 -20.723  0.00  0.00    -0.441 OA
ATOM     10  C   UNL     1      34.878 -16.710 -21.055  0.00  0.00    +0.256 C 
ENDBRANCH   8   9
ENDBRANCH   2   8
TORSDOF 2
ENDMDL
MODEL 4
REMARK VINA RESULT:      -5.6      3.671      4.705
REMARK  Name = 7151
REMARK  2 active torsions:
REMARK  status: ('A' for Active; 'I' for Inactive)
REMARK    1  A    between atoms: C_2  and  C_8
REMARK    2  A    between atoms: C_8  and  O_9
REMARK                            x       y       z     vdW  Elec       q    Type
REMARK                         _______ _______ _______ _____ _____    ______ ____
ROOT
ATOM      1  N   UNL     1      34.804 -16.058 -23.808  0.00  0.00    -0.242 NA
ATOM      2  C   UNL     1      34.967 -18.181 -22.664  0.00  0.00    +0.095 C 
ATOM      3  C   UNL     1      34.733 -18.851 -23.859  0.00  0.00    +0.010 C 
ATOM      4  C   UNL     1      34.992 -16.796 -22.691  0.00  0.00    +0.105 C 
ATOM      5  C   UNL     1      34.535 -18.127 -25.029  0.00  0.00    +0.021 C 
ATOM      6  C   UNL     1      34.579 -16.744 -24.951  0.00  0.00    +0.099 C 
ENDROOT
BRANCH   2   8
ATOM      7  O   UNL     1      35.969 -18.568 -20.534  0.00  0.00    -0.245 OA
ATOM      8  C   UNL     1      35.177 -18.910 -21.425  0.00  0.00    +0.343 C 
BRANCH   8   9
ATOM      9  O   UNL     1      34.389 -20.027 -21.356  0.00  0.00    -0.441 OA
ATOM     10  C   UNL     1      33.118 -19.884 -20.713  0.00  0.00    +0.256 C 
ENDBRANCH   8   9
ENDBRANCH   2   8
TORSDOF 2
ENDMDL
MODEL 5
REMARK VINA RESULT:      -5.6      1.631      2.083
REMARK  Name = 7151
REMARK  2 active torsions:
REMARK  status: ('A' for Active; 'I' for Inactive)
REMARK    1  A    between atoms: C_2  and  C_8
REMARK    2  A    between atoms: C_8  and  O_9
REMARK                            x       y       z     vdW  Elec       q    Type
REMARK                         _______ _______ _______ _____ _____    ______ ____
ROOT
ATOM      1  N   UNL     1      32.890 -19.897 -20.746  0.00  0.00    -0.242 NA
ATOM      2  C   UNL     1      34.329 -21.431 -19.556  0.00  0.00    +0.095 C 
ATOM      3  C   UNL     1      35.450 -20.788 -20.068  0.00  0.00    +0.010 C 
ATOM      4  C   UNL     1      33.083 -20.952 -19.923  0.00  0.00    +0.105 C 
ATOM      5  C   UNL     1      35.293 -19.698 -20.917  0.00  0.00    +0.021 C 
ATOM      6  C   UNL     1      34.003 -19.296 -21.223  0.00  0.00    +0.099 C 
ENDROOT
BRANCH   2   8
ATOM      7  O   UNL     1      33.717 -23.564 -18.680  0.00  0.00    -0.245 OA
ATOM      8  C   UNL     1      34.461 -22.572 -18.666  0.00  0.00    +0.343 C 
BRANCH   8   9
ATOM      9  O   UNL     1      35.514 -22.422 -17.805  0.00  0.00    -0.441 OA
ATOM     10  C   UNL     1      35.314 -22.853 -16.455  0.00  0.00    +0.256 C 
ENDBRANCH   8   9
ENDBRANCH   2   8
TORSDOF 2
ENDMDL
MODEL 6
REMARK VINA RESULT:      -5.6      6.215      7.265
REMARK  Name = 7151
REMARK  2 active torsions:
REMARK  status: ('A' for Active; 'I' for Inactive)
REMARK    1  A    between atoms: C_2  and  C_8
REMARK    2  A    between atoms: C_8  and  O_9
REMARK                            x       y       z     vdW  Elec       q    Type
REMARK                         _______ _______ _______ _____ _____    ______ ____
ROOT
ATOM      1  N   UNL     1      31.256 -22.937 -14.938  0.00  0.00    -0.242 NA
ATOM      2  C   UNL     1      29.187 -23.576 -16.012  0.00  0.00    +0.095 C 
ATOM      3  C   UNL     1      29.167 -24.760 -15.283  0.00  0.00    +0.010 C 
ATOM      4  C   UNL     1      30.245 -22.706 -15.805  0.00  0.00    +0.105 C 
ATOM      5  C   UNL     1      30.189 -25.034 -14.382  0.00  0.00    +0.021 C 
ATOM      6  C   UNL     1      31.202 -24.098 -14.248  0.00  0.00    +0.099 C 
ENDROOT
BRANCH   2   8
ATOM      7  O   UNL     1      27.578 -24.094 -17.695  0.00  0.00    -0.245 OA
ATOM      8  C   UNL     1      28.133 -23.262 -16.961  0.00  0.00    +0.343 C 
BRANCH   8   9
ATOM      9  O   UNL     1      27.823 -21.930 -16.949  0.00  0.00    -0.441 OA
ATOM     10  C   UNL     1      26.537 -21.559 -17.458  0.00  0.00    +0.256 C 
ENDBRANCH   8   9
ENDBRANCH   2   8
TORSDOF 2
ENDMDL
MODEL 7
REMARK VINA RESULT:      -5.6      5.580      7.050
REMARK  Name = 7151
REMARK  2 active torsions:
REMARK  status: ('A' for Active; 'I' for Inactive)
REMARK    1  A    between atoms: C_2  and  C_8
REMARK    2  A    between atoms: C_8  and  O_9
REMARK                            x       y       z     vdW  Elec       q    Type
REMARK                         _______ _______ _______ _____ _____    ______ ____
ROOT
ATOM      1  N   UNL     1      35.001 -16.749 -21.165  0.00  0.00    -0.242 NA
ATOM      2  C   UNL     1      34.752 -16.973 -23.559  0.00  0.00    +0.095 C 
ATOM      3  C   UNL     1      35.201 -18.287 -23.490  0.00  0.00    +0.010 C 
ATOM      4  C   UNL     1      34.672 -16.252 -22.379  0.00  0.00    +0.105 C 
ATOM      5  C   UNL     1      35.549 -18.834 -22.260  0.00  0.00    +0.021 C 
ATOM      6  C   UNL     1      35.433 -18.030 -21.137  0.00  0.00    +0.099 C 
ENDROOT
BRANCH   2   8
ATOM      7  O   UNL     1      34.819 -16.736 -25.931  0.00  0.00    -0.245 OA
ATOM      8  C   UNL     1      34.381 -16.374 -24.829  0.00  0.00    +0.343 C 
BRANCH   8   9
ATOM      9  O   UNL     1      33.482 -15.355 -24.664  0.00  0.00    -0.441 OA
ATOM     10  C   UNL     1      33.030 -14.691 -25.849  0.00  0.00    +0.256 C 
ENDBRANCH   8   9
ENDBRANCH   2   8
TORSDOF 2
ENDMDL
MODEL 8
REMARK VINA RESULT:      -5.5      3.951      5.060
REMARK  Name = 7151
REMARK  2 active torsions:
REMARK  status: ('A' for Active; 'I' for Inactive)
REMARK    1  A    between atoms: C_2  and  C_8
REMARK    2  A    between atoms: C_8  and  O_9
REMARK                            x       y       z     vdW  Elec       q    Type
REMARK                         _______ _______ _______ _____ _____    ______ ____
ROOT
ATOM      1  N   UNL     1      34.825 -15.306 -23.454  0.00  0.00    -0.242 NA
ATOM      2  C   UNL     1      34.898 -16.931 -21.667  0.00  0.00    +0.095 C 
ATOM      3  C   UNL     1      34.512 -15.955 -20.754  0.00  0.00    +0.010 C 
ATOM      4  C   UNL     1      35.041 -16.558 -22.993  0.00  0.00    +0.105 C 
ATOM      5  C   UNL     1      34.281 -14.656 -21.190  0.00  0.00    +0.021 C 
ATOM      6  C   UNL     1      34.451 -14.384 -22.539  0.00  0.00    +0.099 C 
ENDROOT
BRANCH   2   8
ATOM      7  O   UNL     1      36.079 -18.645 -20.501  0.00  0.00    -0.245 OA
ATOM      8  C   UNL     1      35.147 -18.297 -21.242  0.00  0.00    +0.343 C 
BRANCH   8   9
ATOM      9  O   UNL     1      34.222 -19.164 -21.758  0.00  0.00    -0.441 OA
ATOM     10  C   UNL     1      33.561 -20.034 -20.833  0.00  0.00    +0.256 C 
ENDBRANCH   8   9
ENDBRANCH   2   8
TORSDOF 2
ENDMDL
MODEL 9
REMARK VINA RESULT:      -5.5      3.628      4.672
REMARK  Name = 7151
REMARK  2 active torsions:
REMARK  status: ('A' for Active; 'I' for Inactive)
REMARK    1  A    between atoms: C_2  and  C_8
REMARK    2  A    between atoms: C_8  and  O_9
REMARK                            x       y       z     vdW  Elec       q    Type
REMARK                         _______ _______ _______ _____ _____    ______ ____
ROOT
ATOM      1  N   UNL     1      34.517 -18.366 -25.062  0.00  0.00    -0.242 NA
ATOM      2  C   UNL     1      34.947 -18.267 -22.686  0.00  0.00    +0.095 C 
ATOM      3  C   UNL     1      35.012 -16.879 -22.748  0.00  0.00    +0.010 C 
ATOM      4  C   UNL     1      34.700 -18.958 -23.860  0.00  0.00    +0.105 C 
ATOM      5  C   UNL     1      34.830 -16.234 -23.966  0.00  0.00    +0.021 C 
ATOM      6  C   UNL     1      34.588 -17.016 -25.084  0.00  0.00    +0.099 C 
ENDROOT
BRANCH   2   8
ATOM      7  O   UNL     1      35.956 -18.647 -20.558  0.00  0.00    -0.245 OA
ATOM      8  C   UNL     1      35.134 -18.969 -21.428  0.00  0.00    +0.343 C 
BRANCH   8   9
ATOM      9  O   UNL     1      34.286 -20.038 -21.316  0.00  0.00    -0.441 OA
ATOM     10  C   UNL     1      33.030 -19.804 -20.669  0.00  0.00    +0.256 C 
ENDBRANCH   8   9
ENDBRANCH   2   8
TORSDOF 2
ENDMDL
