MODEL 1
REMARK VINA RESULT:      -8.5      0.000      0.000
REMARK  Name = 3447
REMARK  12 active torsions:
REMARK  status: ('A' for Active; 'I' for Inactive)
REMARK    1  A    between atoms: C_2  and  O_3
REMARK    2  A    between atoms: C_2  and  C_15
REMARK    3  A    between atoms: O_3  and  C_4
REMARK    4  A    between atoms: C_7  and  C_11
REMARK    5  A    between atoms: C_11  and  O_12
REMARK    6  A    between atoms: O_12  and  C_13
REMARK    7  A    between atoms: C_15  and  C_16
REMARK    8  A    between atoms: C_16  and  C_17
REMARK    9  A    between atoms: C_17  and  C_18
REMARK   10  A    between atoms: C_18  and  C_19
REMARK   11  A    between atoms: C_19  and  N_20
REMARK   12  A    between atoms: N_20  and  C_23
REMARK                            x       y       z     vdW  Elec       q    Type
REMARK                         _______ _______ _______ _____ _____    ______ ____
ROOT
ATOM      1  O   UNL     1      34.447 -23.360 -16.601  0.00  0.00    -0.250 OA
ATOM      2  C   UNL     1      33.568 -23.216 -17.441  0.00  0.00    +0.321 C 
ENDROOT
BRANCH   2   3
ATOM      3  O   UNL     1      33.716 -23.321 -18.822  0.00  0.00    -0.424 OA
BRANCH   3   4
ATOM      4  C   UNL     1      34.130 -22.128 -19.417  0.00  0.00    +0.148 C 
ATOM      5  C   UNL     1      35.490 -21.840 -19.530  0.00  0.00    +0.038 C 
ATOM      6  C   UNL     1      33.184 -21.223 -19.898  0.00  0.00    +0.038 C 
ATOM      7  C   UNL     1      34.958 -19.741 -20.603  0.00  0.00    +0.076 C 
ATOM      8  C   UNL     1      35.905 -20.647 -20.122  0.00  0.00    +0.010 C 
ATOM      9  C   UNL     1      33.598 -20.030 -20.491  0.00  0.00    +0.010 C 
BRANCH   7  11
ATOM     10  O   UNL     1      35.220 -17.375 -20.727  0.00  0.00    -0.245 OA
ATOM     11  C   UNL     1      35.390 -18.498 -21.220  0.00  0.00    +0.341 C 
BRANCH  11  12
ATOM     12  O   UNL     1      36.015 -18.722 -22.417  0.00  0.00    -0.445 OA
BRANCH  12  13
ATOM     13  C   UNL     1      35.453 -18.083 -23.569  0.00  0.00    +0.209 C 
ATOM     14  C   UNL     1      34.569 -19.071 -24.298  0.00  0.00    +0.051 C 
ENDBRANCH  12  13
ENDBRANCH  11  12
ENDBRANCH   7  11
ENDBRANCH   3   4
ENDBRANCH   2   3
BRANCH   2  15
ATOM     15  C   UNL     1      32.127 -22.854 -17.146  0.00  0.00    +0.110 C 
BRANCH  15  16
ATOM     16  C   UNL     1      31.506 -23.717 -16.048  0.00  0.00    +0.012 C 
BRANCH  16  17
ATOM     17  C   UNL     1      30.992 -22.883 -14.870  0.00  0.00    +0.003 C 
BRANCH  17  18
ATOM     18  C   UNL     1      31.735 -23.235 -13.577  0.00  0.00    +0.026 C 
BRANCH  18  19
ATOM     19  C   UNL     1      32.577 -24.498 -13.714  0.00  0.00    +0.129 C 
BRANCH  19  20
ATOM     20  N   UNL     1      33.801 -24.368 -12.921  0.00  0.00    -0.240 NA
BRANCH  20  23
ATOM     21  N   UNL     1      35.495 -25.352 -14.311  0.00  0.00    -0.370 N 
ATOM     22  N   UNL     1      35.688 -23.199 -13.589  0.00  0.00    -0.370 N 
ATOM     23  C   UNL     1      34.920 -24.340 -13.576  0.00  0.00    +0.189 C 
ATOM     24  H   UNL     1      35.046 -26.225 -14.381  0.00  0.00    +0.159 HD
ATOM     25  H   UNL     1      36.356 -25.204 -14.764  0.00  0.00    +0.159 HD
ATOM     26  H   UNL     1      35.388 -22.398 -13.102  0.00  0.00    +0.159 HD
ATOM     27  H   UNL     1      36.536 -23.183 -14.088  0.00  0.00    +0.159 HD
ENDBRANCH  20  23
ENDBRANCH  19  20
ENDBRANCH  18  19
ENDBRANCH  17  18
ENDBRANCH  16  17
ENDBRANCH  15  16
ENDBRANCH   2  15
TORSDOF 12
ENDMDL
MODEL 2
REMARK VINA RESULT:      -8.4      5.246      9.334
REMARK  Name = 3447
REMARK  12 active torsions:
REMARK  status: ('A' for Active; 'I' for Inactive)
REMARK    1  A    between atoms: C_2  and  O_3
REMARK    2  A    between atoms: C_2  and  C_15
REMARK    3  A    between atoms: O_3  and  C_4
REMARK    4  A    between atoms: C_7  and  C_11
REMARK    5  A    between atoms: C_11  and  O_12
REMARK    6  A    between atoms: O_12  and  C_13
REMARK    7  A    between atoms: C_15  and  C_16
REMARK    8  A    between atoms: C_16  and  C_17
REMARK    9  A    between atoms: C_17  and  C_18
REMARK   10  A    between atoms: C_18  and  C_19
REMARK   11  A    between atoms: C_19  and  N_20
REMARK   12  A    between atoms: N_20  and  C_23
REMARK                            x       y       z     vdW  Elec       q    Type
REMARK                         _______ _______ _______ _____ _____    ______ ____
ROOT
ATOM      1  O   UNL     1      35.152 -16.421 -20.126  0.00  0.00    -0.250 OA
ATOM      2  C   UNL     1      34.548 -16.670 -21.162  0.00  0.00    +0.321 C 
ENDROOT
BRANCH   2   3
ATOM      3  O   UNL     1      34.687 -17.811 -21.949  0.00  0.00    -0.424 OA
BRANCH   3   4
ATOM      4  C   UNL     1      34.608 -18.994 -21.210  0.00  0.00    +0.148 C 
ATOM      5  C   UNL     1      35.774 -19.663 -20.837  0.00  0.00    +0.038 C 
ATOM      6  C   UNL     1      33.362 -19.507 -20.846  0.00  0.00    +0.038 C 
ATOM      7  C   UNL     1      34.449 -21.359 -19.738  0.00  0.00    +0.076 C 
ATOM      8  C   UNL     1      35.695 -20.845 -20.102  0.00  0.00    +0.010 C 
ATOM      9  C   UNL     1      33.284 -20.689 -20.110  0.00  0.00    +0.010 C 
BRANCH   7  11
ATOM     10  O   UNL     1      33.789 -23.617 -19.353  0.00  0.00    -0.245 OA
ATOM     11  C   UNL     1      34.368 -22.591 -18.972  0.00  0.00    +0.341 C 
BRANCH  11  12
ATOM     12  O   UNL     1      35.016 -22.481 -17.771  0.00  0.00    -0.445 OA
BRANCH  12  13
ATOM     13  C   UNL     1      34.415 -23.136 -16.649  0.00  0.00    +0.209 C 
ATOM     14  C   UNL     1      35.277 -22.905 -15.425  0.00  0.00    +0.051 C 
ENDBRANCH  12  13
ENDBRANCH  11  12
ENDBRANCH   7  11
ENDBRANCH   3   4
ENDBRANCH   2   3
BRANCH   2  15
ATOM     15  C   UNL     1      33.539 -15.757 -21.826  0.00  0.00    +0.110 C 
BRANCH  15  16
ATOM     16  C   UNL     1      34.017 -14.310 -21.929  0.00  0.00    +0.012 C 
BRANCH  16  17
ATOM     17  C   UNL     1      33.969 -13.779 -23.365  0.00  0.00    +0.003 C 
BRANCH  17  18
ATOM     18  C   UNL     1      33.004 -14.599 -24.226  0.00  0.00    +0.026 C 
BRANCH  18  19
ATOM     19  C   UNL     1      33.578 -14.920 -25.602  0.00  0.00    +0.129 C 
BRANCH  19  20
ATOM     20  N   UNL     1      33.502 -16.361 -25.848  0.00  0.00    -0.240 NA
BRANCH  20  23
ATOM     21  N   UNL     1      35.512 -16.745 -24.591  0.00  0.00    -0.370 N 
ATOM     22  N   UNL     1      34.056 -18.448 -25.006  0.00  0.00    -0.370 N 
ATOM     23  C   UNL     1      34.325 -17.111 -25.185  0.00  0.00    +0.189 C 
ATOM     24  H   UNL     1      35.822 -15.812 -24.647  0.00  0.00    +0.159 HD
ATOM     25  H   UNL     1      36.051 -17.415 -24.112  0.00  0.00    +0.159 HD
ATOM     26  H   UNL     1      33.234 -18.839 -25.382  0.00  0.00    +0.159 HD
ATOM     27  H   UNL     1      34.684 -19.014 -24.502  0.00  0.00    +0.159 HD
ENDBRANCH  20  23
ENDBRANCH  19  20
ENDBRANCH  18  19
ENDBRANCH  17  18
ENDBRANCH  16  17
ENDBRANCH  15  16
ENDBRANCH   2  15
TORSDOF 12
ENDMDL
MODEL 3
REMARK VINA RESULT:      -8.3      3.479      4.350
REMARK  Name = 3447
REMARK  12 active torsions:
REMARK  status: ('A' for Active; 'I' for Inactive)
REMARK    1  A    between atoms: C_2  and  O_3
REMARK    2  A    between atoms: C_2  and  C_15
REMARK    3  A    between atoms: O_3  and  C_4
REMARK    4  A    between atoms: C_7  and  C_11
REMARK    5  A    between atoms: C_11  and  O_12
REMARK    6  A    between atoms: O_12  and  C_13
REMARK    7  A    between atoms: C_15  and  C_16
REMARK    8  A    between atoms: C_16  and  C_17
REMARK    9  A    between atoms: C_17  and  C_18
REMARK   10  A    between atoms: C_18  and  C_19
REMARK   11  A    between atoms: C_19  and  N_20
REMARK   12  A    between atoms: N_20  and  C_23
REMARK                            x       y       z     vdW  Elec       q    Type
REMARK                         _______ _______ _______ _____ _____    ______ ____
ROOT
ATOM      1  O   UNL     1      34.853 -23.145 -16.696  0.00  0.00    -0.250 OA
ATOM      2  C   UNL     1      33.895 -23.141 -17.458  0.00  0.00    +0.321 C 
ENDROOT
BRANCH   2   3
ATOM      3  O   UNL     1      33.938 -23.270 -18.844  0.00  0.00    -0.424 OA
BRANCH   3   4
ATOM      4  C   UNL     1      34.251 -22.073 -19.492  0.00  0.00    +0.148 C 
ATOM      5  C   UNL     1      35.584 -21.703 -19.670  0.00  0.00    +0.038 C 
ATOM      6  C   UNL     1      33.229 -21.247 -19.961  0.00  0.00    +0.038 C 
ATOM      7  C   UNL     1      34.875 -19.680 -20.784  0.00  0.00    +0.076 C 
ATOM      8  C   UNL     1      35.897 -20.506 -20.315  0.00  0.00    +0.010 C 
ATOM      9  C   UNL     1      33.542 -20.050 -20.607  0.00  0.00    +0.010 C 
BRANCH   7  11
ATOM     10  O   UNL     1      35.426 -18.328 -22.668  0.00  0.00    -0.245 OA
ATOM     11  C   UNL     1      35.201 -18.432 -21.455  0.00  0.00    +0.341 C 
BRANCH  11  12
ATOM     12  O   UNL     1      35.227 -17.381 -20.579  0.00  0.00    -0.445 OA
BRANCH  12  13
ATOM     13  C   UNL     1      34.810 -16.108 -21.083  0.00  0.00    +0.209 C 
ATOM     14  C   UNL     1      33.301 -16.014 -20.994  0.00  0.00    +0.051 C 
ENDBRANCH  12  13
ENDBRANCH  11  12
ENDBRANCH   7  11
ENDBRANCH   3   4
ENDBRANCH   2   3
BRANCH   2  15
ATOM     15  C   UNL     1      32.450 -22.957 -17.045  0.00  0.00    +0.110 C 
BRANCH  15  16
ATOM     16  C   UNL     1      32.152 -23.502 -15.649  0.00  0.00    +0.012 C 
BRANCH  16  17
ATOM     17  C   UNL     1      30.694 -23.281 -15.234  0.00  0.00    +0.003 C 
BRANCH  17  18
ATOM     18  C   UNL     1      29.845 -22.815 -16.421  0.00  0.00    +0.026 C 
BRANCH  18  19
ATOM     19  C   UNL     1      28.604 -23.678 -16.626  0.00  0.00    +0.129 C 
BRANCH  19  20
ATOM     20  N   UNL     1      27.750 -23.083 -17.655  0.00  0.00    -0.240 NA
BRANCH  20  23
ATOM     21  N   UNL     1      26.437 -21.994 -15.964  0.00  0.00    -0.370 N 
ATOM     22  N   UNL     1      26.202 -21.435 -18.161  0.00  0.00    -0.370 N 
ATOM     23  C   UNL     1      26.857 -22.234 -17.254  0.00  0.00    +0.189 C 
ATOM     24  H   UNL     1      26.828 -22.502 -15.218  0.00  0.00    +0.159 HD
ATOM     25  H   UNL     1      25.745 -21.316 -15.790  0.00  0.00    +0.159 HD
ATOM     26  H   UNL     1      26.411 -21.506 -19.121  0.00  0.00    +0.159 HD
ATOM     27  H   UNL     1      25.525 -20.791 -17.852  0.00  0.00    +0.159 HD
ENDBRANCH  20  23
ENDBRANCH  19  20
ENDBRANCH  18  19
ENDBRANCH  17  18
ENDBRANCH  16  17
ENDBRANCH  15  16
ENDBRANCH   2  15
TORSDOF 12
ENDMDL
MODEL 4
REMARK VINA RESULT:      -8.3      2.759      3.623
REMARK  Name = 3447
REMARK  12 active torsions:
REMARK  status: ('A' for Active; 'I' for Inactive)
REMARK    1  A    between atoms: C_2  and  O_3
REMARK    2  A    between atoms: C_2  and  C_15
REMARK    3  A    between atoms: O_3  and  C_4
REMARK    4  A    between atoms: C_7  and  C_11
REMARK    5  A    between atoms: C_11  and  O_12
REMARK    6  A    between atoms: O_12  and  C_13
REMARK    7  A    between atoms: C_15  and  C_16
REMARK    8  A    between atoms: C_16  and  C_17
REMARK    9  A    between atoms: C_17  and  C_18
REMARK   10  A    between atoms: C_18  and  C_19
REMARK   11  A    between atoms: C_19  and  N_20
REMARK   12  A    between atoms: N_20  and  C_23
REMARK                            x       y       z     vdW  Elec       q    Type
REMARK                         _______ _______ _______ _____ _____    ______ ____
ROOT
ATOM      1  O   UNL     1      31.746 -22.393 -17.551  0.00  0.00    -0.250 OA
ATOM      2  C   UNL     1      32.861 -22.892 -17.645  0.00  0.00    +0.321 C 
ENDROOT
BRANCH   2   3
ATOM      3  O   UNL     1      33.545 -23.175 -18.824  0.00  0.00    -0.424 OA
BRANCH   3   4
ATOM      4  C   UNL     1      34.076 -22.035 -19.432  0.00  0.00    +0.148 C 
ATOM      5  C   UNL     1      35.456 -21.833 -19.451  0.00  0.00    +0.038 C 
ATOM      6  C   UNL     1      33.226 -21.098 -20.020  0.00  0.00    +0.038 C 
ATOM      7  C   UNL     1      35.136 -19.756 -20.644  0.00  0.00    +0.076 C 
ATOM      8  C   UNL     1      35.987 -20.694 -20.057  0.00  0.00    +0.010 C 
ATOM      9  C   UNL     1      33.756 -19.959 -20.625  0.00  0.00    +0.010 C 
BRANCH   7  11
ATOM     10  O   UNL     1      36.421 -18.581 -22.271  0.00  0.00    -0.245 OA
ATOM     11  C   UNL     1      35.689 -18.568 -21.273  0.00  0.00    +0.341 C 
BRANCH  11  12
ATOM     12  O   UNL     1      35.297 -17.427 -20.626  0.00  0.00    -0.445 OA
BRANCH  12  13
ATOM     13  C   UNL     1      34.626 -16.436 -21.412  0.00  0.00    +0.209 C 
ATOM     14  C   UNL     1      34.458 -15.181 -20.581  0.00  0.00    +0.051 C 
ENDBRANCH  12  13
ENDBRANCH  11  12
ENDBRANCH   7  11
ENDBRANCH   3   4
ENDBRANCH   2   3
BRANCH   2  15
ATOM     15  C   UNL     1      33.718 -23.342 -16.481  0.00  0.00    +0.110 C 
BRANCH  15  16
ATOM     16  C   UNL     1      33.072 -23.072 -15.122  0.00  0.00    +0.012 C 
BRANCH  16  17
ATOM     17  C   UNL     1      32.393 -24.316 -14.541  0.00  0.00    +0.003 C 
BRANCH  17  18
ATOM     18  C   UNL     1      30.890 -24.087 -14.350  0.00  0.00    +0.026 C 
BRANCH  18  19
ATOM     19  C   UNL     1      30.064 -24.653 -15.500  0.00  0.00    +0.129 C 
BRANCH  19  20
ATOM     20  N   UNL     1      28.661 -24.265 -15.341  0.00  0.00    -0.240 NA
BRANCH  20  23
ATOM     21  N   UNL     1      27.223 -22.373 -15.688  0.00  0.00    -0.370 N 
ATOM     22  N   UNL     1      28.917 -22.830 -17.142  0.00  0.00    -0.370 N 
ATOM     23  C   UNL     1      28.267 -23.217 -15.993  0.00  0.00    +0.189 C 
ATOM     24  H   UNL     1      26.674 -22.540 -14.888  0.00  0.00    +0.159 HD
ATOM     25  H   UNL     1      27.024 -21.604 -16.270  0.00  0.00    +0.159 HD
ATOM     26  H   UNL     1      29.685 -23.349 -17.472  0.00  0.00    +0.159 HD
ATOM     27  H   UNL     1      28.615 -22.033 -17.634  0.00  0.00    +0.159 HD
ENDBRANCH  20  23
ENDBRANCH  19  20
ENDBRANCH  18  19
ENDBRANCH  17  18
ENDBRANCH  16  17
ENDBRANCH  15  16
ENDBRANCH   2  15
TORSDOF 12
ENDMDL
MODEL 5
REMARK VINA RESULT:      -8.3      2.712      3.310
REMARK  Name = 3447
REMARK  12 active torsions:
REMARK  status: ('A' for Active; 'I' for Inactive)
REMARK    1  A    between atoms: C_2  and  O_3
REMARK    2  A    between atoms: C_2  and  C_15
REMARK    3  A    between atoms: O_3  and  C_4
REMARK    4  A    between atoms: C_7  and  C_11
REMARK    5  A    between atoms: C_11  and  O_12
REMARK    6  A    between atoms: O_12  and  C_13
REMARK    7  A    between atoms: C_15  and  C_16
REMARK    8  A    between atoms: C_16  and  C_17
REMARK    9  A    between atoms: C_17  and  C_18
REMARK   10  A    between atoms: C_18  and  C_19
REMARK   11  A    between atoms: C_19  and  N_20
REMARK   12  A    between atoms: N_20  and  C_23
REMARK                            x       y       z     vdW  Elec       q    Type
REMARK                         _______ _______ _______ _____ _____    ______ ____
ROOT
ATOM      1  O   UNL     1      34.931 -23.201 -16.841  0.00  0.00    -0.250 OA
ATOM      2  C   UNL     1      33.882 -23.214 -17.473  0.00  0.00    +0.321 C 
ENDROOT
BRANCH   2   3
ATOM      3  O   UNL     1      33.750 -23.248 -18.859  0.00  0.00    -0.424 OA
BRANCH   3   4
ATOM      4  C   UNL     1      34.138 -22.055 -19.472  0.00  0.00    +0.148 C 
ATOM      5  C   UNL     1      35.492 -21.777 -19.663  0.00  0.00    +0.038 C 
ATOM      6  C   UNL     1      33.172 -21.141 -19.893  0.00  0.00    +0.038 C 
ATOM      7  C   UNL     1      34.913 -19.670 -20.694  0.00  0.00    +0.076 C 
ATOM      8  C   UNL     1      35.880 -20.584 -20.273  0.00  0.00    +0.010 C 
ATOM      9  C   UNL     1      33.560 -19.948 -20.503  0.00  0.00    +0.010 C 
BRANCH   7  11
ATOM     10  O   UNL     1      35.162 -17.303 -20.834  0.00  0.00    -0.245 OA
ATOM     11  C   UNL     1      35.319 -18.426 -21.329  0.00  0.00    +0.341 C 
BRANCH  11  12
ATOM     12  O   UNL     1      35.901 -18.651 -22.548  0.00  0.00    -0.445 OA
BRANCH  12  13
ATOM     13  C   UNL     1      35.022 -18.780 -23.671  0.00  0.00    +0.209 C 
ATOM     14  C   UNL     1      34.913 -17.441 -24.367  0.00  0.00    +0.051 C 
ENDBRANCH  12  13
ENDBRANCH  11  12
ENDBRANCH   7  11
ENDBRANCH   3   4
ENDBRANCH   2   3
BRANCH   2  15
ATOM     15  C   UNL     1      32.496 -23.159 -16.867  0.00  0.00    +0.110 C 
BRANCH  15  16
ATOM     16  C   UNL     1      32.465 -23.586 -15.400  0.00  0.00    +0.012 C 
BRANCH  16  17
ATOM     17  C   UNL     1      31.382 -22.856 -14.600  0.00  0.00    +0.003 C 
BRANCH  17  18
ATOM     18  C   UNL     1      30.352 -23.840 -14.037  0.00  0.00    +0.026 C 
BRANCH  18  19
ATOM     19  C   UNL     1      29.616 -24.605 -15.131  0.00  0.00    +0.129 C 
BRANCH  19  20
ATOM     20  N   UNL     1      28.243 -24.109 -15.247  0.00  0.00    -0.240 NA
BRANCH  20  23
ATOM     21  N   UNL     1      28.789 -22.779 -17.172  0.00  0.00    -0.370 N 
ATOM     22  N   UNL     1      26.991 -22.261 -15.870  0.00  0.00    -0.370 N 
ATOM     23  C   UNL     1      28.047 -23.121 -16.063  0.00  0.00    +0.189 C 
ATOM     24  H   UNL     1      29.576 -23.316 -17.421  0.00  0.00    +0.159 HD
ATOM     25  H   UNL     1      28.534 -21.998 -17.714  0.00  0.00    +0.159 HD
ATOM     26  H   UNL     1      26.380 -22.394 -15.111  0.00  0.00    +0.159 HD
ATOM     27  H   UNL     1      26.846 -21.512 -16.493  0.00  0.00    +0.159 HD
ENDBRANCH  20  23
ENDBRANCH  19  20
ENDBRANCH  18  19
ENDBRANCH  17  18
ENDBRANCH  16  17
ENDBRANCH  15  16
ENDBRANCH   2  15
TORSDOF 12
ENDMDL
MODEL 6
REMARK VINA RESULT:      -8.3      1.845      2.878
REMARK  Name = 3447
REMARK  12 active torsions:
REMARK  status: ('A' for Active; 'I' for Inactive)
REMARK    1  A    between atoms: C_2  and  O_3
REMARK    2  A    between atoms: C_2  and  C_15
REMARK    3  A    between atoms: O_3  and  C_4
REMARK    4  A    between atoms: C_7  and  C_11
REMARK    5  A    between atoms: C_11  and  O_12
REMARK    6  A    between atoms: O_12  and  C_13
REMARK    7  A    between atoms: C_15  and  C_16
REMARK    8  A    between atoms: C_16  and  C_17
REMARK    9  A    between atoms: C_17  and  C_18
REMARK   10  A    between atoms: C_18  and  C_19
REMARK   11  A    between atoms: C_19  and  N_20
REMARK   12  A    between atoms: N_20  and  C_23
REMARK                            x       y       z     vdW  Elec       q    Type
REMARK                         _______ _______ _______ _____ _____    ______ ____
ROOT
ATOM      1  O   UNL     1      31.826 -22.482 -17.534  0.00  0.00    -0.250 OA
ATOM      2  C   UNL     1      32.972 -22.839 -17.779  0.00  0.00    +0.321 C 
ENDROOT
BRANCH   2   3
ATOM      3  O   UNL     1      33.521 -23.053 -19.041  0.00  0.00    -0.424 OA
BRANCH   3   4
ATOM      4  C   UNL     1      34.060 -21.895 -19.603  0.00  0.00    +0.148 C 
ATOM      5  C   UNL     1      33.218 -20.919 -20.136  0.00  0.00    +0.038 C 
ATOM      6  C   UNL     1      35.444 -21.713 -19.632  0.00  0.00    +0.038 C 
ATOM      7  C   UNL     1      35.140 -19.581 -20.729  0.00  0.00    +0.076 C 
ATOM      8  C   UNL     1      33.757 -19.763 -20.699  0.00  0.00    +0.010 C 
ATOM      9  C   UNL     1      35.983 -20.556 -20.196  0.00  0.00    +0.010 C 
BRANCH   7  11
ATOM     10  O   UNL     1      36.491 -18.364 -22.271  0.00  0.00    -0.245 OA
ATOM     11  C   UNL     1      35.701 -18.376 -21.317  0.00  0.00    +0.341 C 
BRANCH  11  12
ATOM     12  O   UNL     1      35.246 -17.250 -20.686  0.00  0.00    -0.445 OA
BRANCH  12  13
ATOM     13  C   UNL     1      34.789 -16.180 -21.521  0.00  0.00    +0.209 C 
ATOM     14  C   UNL     1      33.605 -15.510 -20.858  0.00  0.00    +0.051 C 
ENDBRANCH  12  13
ENDBRANCH  11  12
ENDBRANCH   7  11
ENDBRANCH   3   4
ENDBRANCH   2   3
BRANCH   2  15
ATOM     15  C   UNL     1      34.028 -23.159 -16.742  0.00  0.00    +0.110 C 
BRANCH  15  16
ATOM     16  C   UNL     1      33.440 -23.503 -15.374  0.00  0.00    +0.012 C 
BRANCH  16  17
ATOM     17  C   UNL     1      34.518 -23.654 -14.296  0.00  0.00    +0.003 C 
BRANCH  17  18
ATOM     18  C   UNL     1      35.828 -22.985 -14.725  0.00  0.00    +0.026 C 
BRANCH  18  19
ATOM     19  C   UNL     1      37.051 -23.837 -14.403  0.00  0.00    +0.129 C 
BRANCH  19  20
ATOM     20  N   UNL     1      37.155 -24.939 -15.361  0.00  0.00    -0.240 NA
BRANCH  20  23
ATOM     21  N   UNL     1      37.825 -26.716 -13.890  0.00  0.00    -0.370 N 
ATOM     22  N   UNL     1      36.111 -27.009 -15.365  0.00  0.00    -0.370 N 
ATOM     23  C   UNL     1      37.061 -26.140 -14.881  0.00  0.00    +0.189 C 
ATOM     24  H   UNL     1      38.543 -26.199 -13.460  0.00  0.00    +0.159 HD
ATOM     25  H   UNL     1      37.653 -27.645 -13.613  0.00  0.00    +0.159 HD
ATOM     26  H   UNL     1      35.498 -26.720 -16.078  0.00  0.00    +0.159 HD
ATOM     27  H   UNL     1      36.044 -27.919 -14.997  0.00  0.00    +0.159 HD
ENDBRANCH  20  23
ENDBRANCH  19  20
ENDBRANCH  18  19
ENDBRANCH  17  18
ENDBRANCH  16  17
ENDBRANCH  15  16
ENDBRANCH   2  15
TORSDOF 12
ENDMDL
MODEL 7
REMARK VINA RESULT:      -8.3      1.812      2.725
REMARK  Name = 3447
REMARK  12 active torsions:
REMARK  status: ('A' for Active; 'I' for Inactive)
REMARK    1  A    between atoms: C_2  and  O_3
REMARK    2  A    between atoms: C_2  and  C_15
REMARK    3  A    between atoms: O_3  and  C_4
REMARK    4  A    between atoms: C_7  and  C_11
REMARK    5  A    between atoms: C_11  and  O_12
REMARK    6  A    between atoms: O_12  and  C_13
REMARK    7  A    between atoms: C_15  and  C_16
REMARK    8  A    between atoms: C_16  and  C_17
REMARK    9  A    between atoms: C_17  and  C_18
REMARK   10  A    between atoms: C_18  and  C_19
REMARK   11  A    between atoms: C_19  and  N_20
REMARK   12  A    between atoms: N_20  and  C_23
REMARK                            x       y       z     vdW  Elec       q    Type
REMARK                         _______ _______ _______ _____ _____    ______ ____
ROOT
ATOM      1  O   UNL     1      31.941 -22.781 -17.397  0.00  0.00    -0.250 OA
ATOM      2  C   UNL     1      33.120 -23.051 -17.584  0.00  0.00    +0.321 C 
ENDROOT
BRANCH   2   3
ATOM      3  O   UNL     1      33.736 -23.268 -18.814  0.00  0.00    -0.424 OA
BRANCH   3   4
ATOM      4  C   UNL     1      34.143 -22.086 -19.435  0.00  0.00    +0.148 C 
ATOM      5  C   UNL     1      33.191 -21.187 -19.917  0.00  0.00    +0.038 C 
ATOM      6  C   UNL     1      35.502 -21.803 -19.573  0.00  0.00    +0.038 C 
ATOM      7  C   UNL     1      34.957 -19.724 -20.678  0.00  0.00    +0.076 C 
ATOM      8  C   UNL     1      33.597 -20.007 -20.539  0.00  0.00    +0.010 C 
ATOM      9  C   UNL     1      35.908 -20.622 -20.195  0.00  0.00    +0.010 C 
BRANCH   7  11
ATOM     10  O   UNL     1      35.396 -17.383 -20.781  0.00  0.00    -0.245 OA
ATOM     11  C   UNL     1      35.380 -18.494 -21.327  0.00  0.00    +0.341 C 
BRANCH  11  12
ATOM     12  O   UNL     1      35.762 -18.715 -22.623  0.00  0.00    -0.445 OA
BRANCH  12  13
ATOM     13  C   UNL     1      35.106 -17.940 -23.633  0.00  0.00    +0.209 C 
ATOM     14  C   UNL     1      34.466 -18.877 -24.635  0.00  0.00    +0.051 C 
ENDBRANCH  12  13
ENDBRANCH  11  12
ENDBRANCH   7  11
ENDBRANCH   3   4
ENDBRANCH   2   3
BRANCH   2  15
ATOM     15  C   UNL     1      34.156 -23.243 -16.496  0.00  0.00    +0.110 C 
BRANCH  15  16
ATOM     16  C   UNL     1      33.541 -23.463 -15.115  0.00  0.00    +0.012 C 
BRANCH  16  17
ATOM     17  C   UNL     1      34.410 -24.354 -14.222  0.00  0.00    +0.003 C 
BRANCH  17  18
ATOM     18  C   UNL     1      35.840 -24.454 -14.765  0.00  0.00    +0.026 C 
BRANCH  18  19
ATOM     19  C   UNL     1      36.889 -24.143 -13.704  0.00  0.00    +0.129 C 
BRANCH  19  20
ATOM     20  N   UNL     1      38.202 -23.988 -14.334  0.00  0.00    -0.240 NA
BRANCH  20  23
ATOM     21  N   UNL     1      39.811 -25.377 -15.453  0.00  0.00    -0.370 N 
ATOM     22  N   UNL     1      38.859 -26.044 -13.492  0.00  0.00    -0.370 N 
ATOM     23  C   UNL     1      38.925 -25.058 -14.448  0.00  0.00    +0.189 C 
ATOM     24  H   UNL     1      39.950 -24.754 -16.201  0.00  0.00    +0.159 HD
ATOM     25  H   UNL     1      40.303 -26.229 -15.423  0.00  0.00    +0.159 HD
ATOM     26  H   UNL     1      38.262 -25.939 -12.716  0.00  0.00    +0.159 HD
ATOM     27  H   UNL     1      39.410 -26.855 -13.582  0.00  0.00    +0.159 HD
ENDBRANCH  20  23
ENDBRANCH  19  20
ENDBRANCH  18  19
ENDBRANCH  17  18
ENDBRANCH  16  17
ENDBRANCH  15  16
ENDBRANCH   2  15
TORSDOF 12
ENDMDL
MODEL 8
REMARK VINA RESULT:      -8.2      2.204      3.149
REMARK  Name = 3447
REMARK  12 active torsions:
REMARK  status: ('A' for Active; 'I' for Inactive)
REMARK    1  A    between atoms: C_2  and  O_3
REMARK    2  A    between atoms: C_2  and  C_15
REMARK    3  A    between atoms: O_3  and  C_4
REMARK    4  A    between atoms: C_7  and  C_11
REMARK    5  A    between atoms: C_11  and  O_12
REMARK    6  A    between atoms: O_12  and  C_13
REMARK    7  A    between atoms: C_15  and  C_16
REMARK    8  A    between atoms: C_16  and  C_17
REMARK    9  A    between atoms: C_17  and  C_18
REMARK   10  A    between atoms: C_18  and  C_19
REMARK   11  A    between atoms: C_19  and  N_20
REMARK   12  A    between atoms: N_20  and  C_23
REMARK                            x       y       z     vdW  Elec       q    Type
REMARK                         _______ _______ _______ _____ _____    ______ ____
ROOT
ATOM      1  O   UNL     1      32.117 -22.810 -17.353  0.00  0.00    -0.250 OA
ATOM      2  C   UNL     1      33.285 -23.058 -17.626  0.00  0.00    +0.321 C 
ENDROOT
BRANCH   2   3
ATOM      3  O   UNL     1      33.812 -23.266 -18.898  0.00  0.00    -0.424 OA
BRANCH   3   4
ATOM      4  C   UNL     1      34.270 -22.091 -19.497  0.00  0.00    +0.148 C 
ATOM      5  C   UNL     1      35.640 -21.846 -19.596  0.00  0.00    +0.038 C 
ATOM      6  C   UNL     1      33.357 -21.161 -19.995  0.00  0.00    +0.038 C 
ATOM      7  C   UNL     1      35.184 -19.740 -20.690  0.00  0.00    +0.076 C 
ATOM      8  C   UNL     1      36.098 -20.671 -20.192  0.00  0.00    +0.010 C 
ATOM      9  C   UNL     1      33.815 -19.986 -20.592  0.00  0.00    +0.010 C 
BRANCH   7  11
ATOM     10  O   UNL     1      36.357 -18.474 -22.334  0.00  0.00    -0.245 OA
ATOM     11  C   UNL     1      35.662 -18.516 -21.311  0.00  0.00    +0.341 C 
BRANCH  11  12
ATOM     12  O   UNL     1      35.244 -17.408 -20.623  0.00  0.00    -0.445 OA
BRANCH  12  13
ATOM     13  C   UNL     1      34.548 -16.406 -21.373  0.00  0.00    +0.209 C 
ATOM     14  C   UNL     1      34.481 -15.136 -20.552  0.00  0.00    +0.051 C 
ENDBRANCH  12  13
ENDBRANCH  11  12
ENDBRANCH   7  11
ENDBRANCH   3   4
ENDBRANCH   2   3
BRANCH   2  15
ATOM     15  C   UNL     1      34.401 -23.224 -16.618  0.00  0.00    +0.110 C 
BRANCH  15  16
ATOM     16  C   UNL     1      33.939 -23.871 -15.313  0.00  0.00    +0.012 C 
BRANCH  16  17
ATOM     17  C   UNL     1      35.110 -24.264 -14.407  0.00  0.00    +0.003 C 
BRANCH  17  18
ATOM     18  C   UNL     1      35.920 -25.412 -15.017  0.00  0.00    +0.026 C 
BRANCH  18  19
ATOM     19  C   UNL     1      36.923 -26.005 -14.034  0.00  0.00    +0.129 C 
BRANCH  19  20
ATOM     20  N   UNL     1      38.059 -26.571 -14.764  0.00  0.00    -0.240 NA
BRANCH  20  23
ATOM     21  N   UNL     1      39.484 -24.757 -15.435  0.00  0.00    -0.370 N 
ATOM     22  N   UNL     1      40.203 -26.304 -13.925  0.00  0.00    -0.370 N 
ATOM     23  C   UNL     1      39.167 -25.898 -14.732  0.00  0.00    +0.189 C 
ATOM     24  H   UNL     1      38.827 -24.361 -16.052  0.00  0.00    +0.159 HD
ATOM     25  H   UNL     1      40.368 -24.338 -15.322  0.00  0.00    +0.159 HD
ATOM     26  H   UNL     1      40.106 -27.109 -13.366  0.00  0.00    +0.159 HD
ATOM     27  H   UNL     1      41.042 -25.790 -13.904  0.00  0.00    +0.159 HD
ENDBRANCH  20  23
ENDBRANCH  19  20
ENDBRANCH  18  19
ENDBRANCH  17  18
ENDBRANCH  16  17
ENDBRANCH  15  16
ENDBRANCH   2  15
TORSDOF 12
ENDMDL
MODEL 9
REMARK VINA RESULT:      -8.2      1.719      2.409
REMARK  Name = 3447
REMARK  12 active torsions:
REMARK  status: ('A' for Active; 'I' for Inactive)
REMARK    1  A    between atoms: C_2  and  O_3
REMARK    2  A    between atoms: C_2  and  C_15
REMARK    3  A    between atoms: O_3  and  C_4
REMARK    4  A    between atoms: C_7  and  C_11
REMARK    5  A    between atoms: C_11  and  O_12
REMARK    6  A    between atoms: O_12  and  C_13
REMARK    7  A    between atoms: C_15  and  C_16
REMARK    8  A    between atoms: C_16  and  C_17
REMARK    9  A    between atoms: C_17  and  C_18
REMARK   10  A    between atoms: C_18  and  C_19
REMARK   11  A    between atoms: C_19  and  N_20
REMARK   12  A    between atoms: N_20  and  C_23
REMARK                            x       y       z     vdW  Elec       q    Type
REMARK                         _______ _______ _______ _____ _____    ______ ____
ROOT
ATOM      1  O   UNL     1      32.421 -23.184 -16.864  0.00  0.00    -0.250 OA
ATOM      2  C   UNL     1      33.612 -23.229 -17.146  0.00  0.00    +0.321 C 
ENDROOT
BRANCH   2   3
ATOM      3  O   UNL     1      34.157 -23.438 -18.410  0.00  0.00    -0.424 OA
BRANCH   3   4
ATOM      4  C   UNL     1      34.331 -22.255 -19.130  0.00  0.00    +0.148 C 
ATOM      5  C   UNL     1      35.615 -21.823 -19.464  0.00  0.00    +0.038 C 
ATOM      6  C   UNL     1      33.221 -21.503 -19.515  0.00  0.00    +0.038 C 
ATOM      7  C   UNL     1      34.678 -19.888 -20.566  0.00  0.00    +0.076 C 
ATOM      8  C   UNL     1      35.789 -20.640 -20.182  0.00  0.00    +0.010 C 
ATOM      9  C   UNL     1      33.395 -20.320 -20.233  0.00  0.00    +0.010 C 
BRANCH   7  11
ATOM     10  O   UNL     1      35.376 -17.626 -20.854  0.00  0.00    -0.245 OA
ATOM     11  C   UNL     1      34.860 -18.654 -21.313  0.00  0.00    +0.341 C 
BRANCH  11  12
ATOM     12  O   UNL     1      34.393 -18.769 -22.595  0.00  0.00    -0.445 OA
BRANCH  12  13
ATOM     13  C   UNL     1      35.351 -18.624 -23.649  0.00  0.00    +0.209 C 
ATOM     14  C   UNL     1      34.820 -17.635 -24.664  0.00  0.00    +0.051 C 
ENDBRANCH  12  13
ENDBRANCH  11  12
ENDBRANCH   7  11
ENDBRANCH   3   4
ENDBRANCH   2   3
BRANCH   2  15
ATOM     15  C   UNL     1      34.749 -23.100 -16.155  0.00  0.00    +0.110 C 
BRANCH  15  16
ATOM     16  C   UNL     1      34.837 -24.278 -15.186  0.00  0.00    +0.012 C 
BRANCH  16  17
ATOM     17  C   UNL     1      34.793 -23.834 -13.720  0.00  0.00    +0.003 C 
BRANCH  17  18
ATOM     18  C   UNL     1      36.193 -23.485 -13.205  0.00  0.00    +0.026 C 
BRANCH  18  19
ATOM     19  C   UNL     1      36.480 -24.096 -11.838  0.00  0.00    +0.129 C 
BRANCH  19  20
ATOM     20  N   UNL     1      36.449 -25.556 -11.930  0.00  0.00    -0.240 NA
BRANCH  20  23
ATOM     21  N   UNL     1      38.635 -25.922 -12.856  0.00  0.00    -0.370 N 
ATOM     22  N   UNL     1      36.814 -26.993 -13.712  0.00  0.00    -0.370 N 
ATOM     23  C   UNL     1      37.273 -26.106 -12.766  0.00  0.00    +0.189 C 
ATOM     24  H   UNL     1      39.090 -25.309 -12.235  0.00  0.00    +0.159 HD
ATOM     25  H   UNL     1      39.153 -26.403 -13.542  0.00  0.00    +0.159 HD
ATOM     26  H   UNL     1      35.856 -27.214 -13.755  0.00  0.00    +0.159 HD
ATOM     27  H   UNL     1      37.443 -27.408 -14.344  0.00  0.00    +0.159 HD
ENDBRANCH  20  23
ENDBRANCH  19  20
ENDBRANCH  18  19
ENDBRANCH  17  18
ENDBRANCH  16  17
ENDBRANCH  15  16
ENDBRANCH   2  15
TORSDOF 12
ENDMDL
