MODEL 1
REMARK VINA RESULT:      -6.2      0.000      0.000
REMARK  Name = 7259
REMARK  1 active torsions:
REMARK  status: ('A' for Active; 'I' for Inactive)
REMARK    1  A    between atoms: C_2  and  N_9
REMARK                            x       y       z     vdW  Elec       q    Type
REMARK                         _______ _______ _______ _____ _____    ______ ____
ROOT
ATOM      1  C   UNL     1      34.035 -21.353 -19.547  0.00  0.00    -0.009 C 
ATOM      2  C   UNL     1      35.375 -21.022 -19.748  0.00  0.00    +0.037 C 
ATOM      3  C   UNL     1      34.717 -19.320 -21.332  0.00  0.00    -0.021 C 
ATOM      4  C   UNL     1      35.716 -20.006 -20.640  0.00  0.00    +0.010 C 
ATOM      5  C   UNL     1      33.036 -20.668 -20.239  0.00  0.00    -0.003 C 
ATOM      6  C   UNL     1      33.377 -19.651 -21.131  0.00  0.00    -0.004 C 
ATOM      7  C   UNL     1      33.641 -22.438 -18.597  0.00  0.00    +0.032 C 
ATOM      8  C   UNL     1      35.081 -18.233 -22.286  0.00  0.00    +0.031 C 
ENDROOT
BRANCH   2   9
ATOM      9  N   UNL     1      36.400 -21.705 -19.056  0.00  0.00    -0.357 N 
ATOM     10  H   UNL     1      36.670 -21.408 -18.158  0.00  0.00    +0.142 HD
ATOM     11  H   UNL     1      36.843 -22.479 -19.472  0.00  0.00    +0.142 HD
ENDBRANCH   2   9
TORSDOF 1
ENDMDL
MODEL 2
REMARK VINA RESULT:      -6.2      1.624      2.352
REMARK  Name = 7259
REMARK  1 active torsions:
REMARK  status: ('A' for Active; 'I' for Inactive)
REMARK    1  A    between atoms: C_2  and  N_9
REMARK                            x       y       z     vdW  Elec       q    Type
REMARK                         _______ _______ _______ _____ _____    ______ ____
ROOT
ATOM      1  C   UNL     1      35.113 -20.827 -19.974  0.00  0.00    -0.009 C 
ATOM      2  C   UNL     1      33.929 -20.246 -20.426  0.00  0.00    +0.037 C 
ATOM      3  C   UNL     1      35.199 -18.485 -21.488  0.00  0.00    -0.021 C 
ATOM      4  C   UNL     1      33.972 -19.076 -21.183  0.00  0.00    +0.010 C 
ATOM      5  C   UNL     1      36.341 -20.237 -20.278  0.00  0.00    -0.003 C 
ATOM      6  C   UNL     1      36.383 -19.066 -21.036  0.00  0.00    -0.004 C 
ATOM      7  C   UNL     1      35.098 -22.081 -19.161  0.00  0.00    +0.032 C 
ATOM      8  C   UNL     1      35.245 -17.233 -22.298  0.00  0.00    +0.031 C 
ENDROOT
BRANCH   2   9
ATOM      9  N   UNL     1      32.678 -20.829 -20.128  0.00  0.00    -0.357 N 
ATOM     10  H   UNL     1      32.551 -21.316 -19.282  0.00  0.00    +0.142 HD
ATOM     11  H   UNL     1      31.932 -20.748 -20.765  0.00  0.00    +0.142 HD
ENDBRANCH   2   9
TORSDOF 1
ENDMDL
MODEL 3
REMARK VINA RESULT:      -6.2      0.970      3.295
REMARK  Name = 7259
REMARK  1 active torsions:
REMARK  status: ('A' for Active; 'I' for Inactive)
REMARK    1  A    between atoms: C_2  and  N_9
REMARK                            x       y       z     vdW  Elec       q    Type
REMARK                         _______ _______ _______ _____ _____    ______ ____
ROOT
ATOM      1  C   UNL     1      34.607 -19.229 -21.089  0.00  0.00    -0.009 C 
ATOM      2  C   UNL     1      35.666 -19.933 -20.516  0.00  0.00    +0.037 C 
ATOM      3  C   UNL     1      34.100 -21.488 -19.532  0.00  0.00    -0.021 C 
ATOM      4  C   UNL     1      35.412 -21.062 -19.737  0.00  0.00    +0.010 C 
ATOM      5  C   UNL     1      33.294 -19.655 -20.884  0.00  0.00    -0.003 C 
ATOM      6  C   UNL     1      33.041 -20.784 -20.105  0.00  0.00    -0.004 C 
ATOM      7  C   UNL     1      34.848 -18.016 -21.927  0.00  0.00    +0.032 C 
ATOM      8  C   UNL     1      33.828 -22.695 -18.699  0.00  0.00    +0.031 C 
ENDROOT
BRANCH   2   9
ATOM      9  N   UNL     1      37.001 -19.516 -20.712  0.00  0.00    -0.357 N 
ATOM     10  H   UNL     1      37.675 -20.159 -21.029  0.00  0.00    +0.142 HD
ATOM     11  H   UNL     1      37.257 -18.583 -20.534  0.00  0.00    +0.142 HD
ENDBRANCH   2   9
TORSDOF 1
ENDMDL
MODEL 4
REMARK VINA RESULT:      -5.9      1.779      3.949
REMARK  Name = 7259
REMARK  1 active torsions:
REMARK  status: ('A' for Active; 'I' for Inactive)
REMARK    1  A    between atoms: C_2  and  N_9
REMARK                            x       y       z     vdW  Elec       q    Type
REMARK                         _______ _______ _______ _____ _____    ______ ____
ROOT
ATOM      1  C   UNL     1      35.669 -19.906 -20.601  0.00  0.00    -0.009 C 
ATOM      2  C   UNL     1      34.275 -19.949 -20.609  0.00  0.00    +0.037 C 
ATOM      3  C   UNL     1      34.327 -21.885 -19.164  0.00  0.00    -0.021 C 
ATOM      4  C   UNL     1      33.605 -20.938 -19.890  0.00  0.00    +0.010 C 
ATOM      5  C   UNL     1      36.392 -20.852 -19.875  0.00  0.00    -0.003 C 
ATOM      6  C   UNL     1      35.721 -21.842 -19.156  0.00  0.00    -0.004 C 
ATOM      7  C   UNL     1      36.414 -18.857 -21.362  0.00  0.00    +0.032 C 
ATOM      8  C   UNL     1      33.611 -22.943 -18.395  0.00  0.00    +0.031 C 
ENDROOT
BRANCH   2   9
ATOM      9  N   UNL     1      33.526 -18.999 -21.338  0.00  0.00    -0.357 N 
ATOM     10  H   UNL     1      32.653 -19.248 -21.718  0.00  0.00    +0.142 HD
ATOM     11  H   UNL     1      33.877 -18.089 -21.466  0.00  0.00    +0.142 HD
ENDBRANCH   2   9
TORSDOF 1
ENDMDL
MODEL 5
REMARK VINA RESULT:      -5.8      3.890      4.984
REMARK  Name = 7259
REMARK  1 active torsions:
REMARK  status: ('A' for Active; 'I' for Inactive)
REMARK    1  A    between atoms: C_2  and  N_9
REMARK                            x       y       z     vdW  Elec       q    Type
REMARK                         _______ _______ _______ _____ _____    ______ ____
ROOT
ATOM      1  C   UNL     1      34.822 -18.394 -23.435  0.00  0.00    -0.009 C 
ATOM      2  C   UNL     1      34.886 -17.059 -23.833  0.00  0.00    +0.037 C 
ATOM      3  C   UNL     1      34.647 -16.362 -21.532  0.00  0.00    -0.021 C 
ATOM      4  C   UNL     1      34.799 -16.043 -22.882  0.00  0.00    +0.010 C 
ATOM      5  C   UNL     1      34.671 -18.713 -22.085  0.00  0.00    -0.003 C 
ATOM      6  C   UNL     1      34.583 -17.697 -21.134  0.00  0.00    -0.004 C 
ATOM      7  C   UNL     1      34.913 -19.504 -24.432  0.00  0.00    +0.032 C 
ATOM      8  C   UNL     1      34.554 -15.275 -20.514  0.00  0.00    +0.031 C 
ENDROOT
BRANCH   2   9
ATOM      9  N   UNL     1      35.040 -16.718 -25.195  0.00  0.00    -0.357 N 
ATOM     10  H   UNL     1      34.957 -17.411 -25.888  0.00  0.00    +0.142 HD
ATOM     11  H   UNL     1      35.228 -15.787 -25.451  0.00  0.00    +0.142 HD
ENDBRANCH   2   9
TORSDOF 1
ENDMDL
MODEL 6
REMARK VINA RESULT:      -5.8      2.676      4.096
REMARK  Name = 7259
REMARK  1 active torsions:
REMARK  status: ('A' for Active; 'I' for Inactive)
REMARK    1  A    between atoms: C_2  and  N_9
REMARK                            x       y       z     vdW  Elec       q    Type
REMARK                         _______ _______ _______ _____ _____    ______ ____
ROOT
ATOM      1  C   UNL     1      35.050 -18.838 -22.156  0.00  0.00    -0.009 C 
ATOM      2  C   UNL     1      34.950 -17.464 -21.940  0.00  0.00    +0.037 C 
ATOM      3  C   UNL     1      34.519 -17.126 -24.294  0.00  0.00    -0.021 C 
ATOM      4  C   UNL     1      34.685 -16.608 -23.010  0.00  0.00    +0.010 C 
ATOM      5  C   UNL     1      34.884 -19.357 -23.441  0.00  0.00    -0.003 C 
ATOM      6  C   UNL     1      34.619 -18.500 -24.510  0.00  0.00    -0.004 C 
ATOM      7  C   UNL     1      35.334 -19.779 -21.030  0.00  0.00    +0.032 C 
ATOM      8  C   UNL     1      34.235 -16.211 -25.438  0.00  0.00    +0.031 C 
ENDROOT
BRANCH   2   9
ATOM      9  N   UNL     1      35.115 -16.921 -20.647  0.00  0.00    -0.357 N 
ATOM     10  H   UNL     1      35.107 -17.513 -19.861  0.00  0.00    +0.142 HD
ATOM     11  H   UNL     1      35.239 -15.952 -20.532  0.00  0.00    +0.142 HD
ENDBRANCH   2   9
TORSDOF 1
ENDMDL
MODEL 7
REMARK VINA RESULT:      -5.7      3.968      5.083
REMARK  Name = 7259
REMARK  1 active torsions:
REMARK  status: ('A' for Active; 'I' for Inactive)
REMARK    1  A    between atoms: C_2  and  N_9
REMARK                            x       y       z     vdW  Elec       q    Type
REMARK                         _______ _______ _______ _____ _____    ______ ____
ROOT
ATOM      1  C   UNL     1      34.658 -16.515 -21.575  0.00  0.00    -0.009 C 
ATOM      2  C   UNL     1      34.644 -16.152 -22.922  0.00  0.00    +0.037 C 
ATOM      3  C   UNL     1      34.791 -18.481 -23.550  0.00  0.00    -0.021 C 
ATOM      4  C   UNL     1      34.711 -17.136 -23.909  0.00  0.00    +0.010 C 
ATOM      5  C   UNL     1      34.738 -17.861 -21.215  0.00  0.00    -0.003 C 
ATOM      6  C   UNL     1      34.804 -18.844 -22.203  0.00  0.00    -0.004 C 
ATOM      7  C   UNL     1      34.588 -15.483 -20.496  0.00  0.00    +0.032 C 
ATOM      8  C   UNL     1      34.861 -19.533 -24.605  0.00  0.00    +0.031 C 
ENDROOT
BRANCH   2   9
ATOM      9  N   UNL     1      34.564 -14.795 -23.304  0.00  0.00    -0.357 N 
ATOM     10  H   UNL     1      34.847 -14.090 -22.678  0.00  0.00    +0.142 HD
ATOM     11  H   UNL     1      34.226 -14.554 -24.196  0.00  0.00    +0.142 HD
ENDBRANCH   2   9
TORSDOF 1
ENDMDL
MODEL 8
REMARK VINA RESULT:      -5.7      3.580      5.249
REMARK  Name = 7259
REMARK  1 active torsions:
REMARK  status: ('A' for Active; 'I' for Inactive)
REMARK    1  A    between atoms: C_2  and  N_9
REMARK                            x       y       z     vdW  Elec       q    Type
REMARK                         _______ _______ _______ _____ _____    ______ ____
ROOT
ATOM      1  C   UNL     1      35.099 -17.034 -21.673  0.00  0.00    -0.009 C 
ATOM      2  C   UNL     1      35.108 -16.849 -23.056  0.00  0.00    +0.037 C 
ATOM      3  C   UNL     1      34.258 -14.606 -22.761  0.00  0.00    -0.021 C 
ATOM      4  C   UNL     1      34.687 -15.635 -23.599  0.00  0.00    +0.010 C 
ATOM      5  C   UNL     1      34.669 -16.004 -20.835  0.00  0.00    -0.003 C 
ATOM      6  C   UNL     1      34.248 -14.791 -21.379  0.00  0.00    -0.004 C 
ATOM      7  C   UNL     1      35.543 -18.323 -21.063  0.00  0.00    +0.032 C 
ATOM      8  C   UNL     1      33.808 -13.308 -23.342  0.00  0.00    +0.031 C 
ENDROOT
BRANCH   2   9
ATOM      9  N   UNL     1      35.540 -17.879 -23.920  0.00  0.00    -0.357 N 
ATOM     10  H   UNL     1      34.966 -18.663 -24.076  0.00  0.00    +0.142 HD
ATOM     11  H   UNL     1      36.414 -17.813 -24.366  0.00  0.00    +0.142 HD
ENDBRANCH   2   9
TORSDOF 1
ENDMDL
MODEL 9
REMARK VINA RESULT:      -5.6      3.551      5.569
REMARK  Name = 7259
REMARK  1 active torsions:
REMARK  status: ('A' for Active; 'I' for Inactive)
REMARK    1  A    between atoms: C_2  and  N_9
REMARK                            x       y       z     vdW  Elec       q    Type
REMARK                         _______ _______ _______ _____ _____    ______ ____
ROOT
ATOM      1  C   UNL     1      34.466 -16.922 -24.363  0.00  0.00    -0.009 C 
ATOM      2  C   UNL     1      34.742 -16.347 -23.123  0.00  0.00    +0.037 C 
ATOM      3  C   UNL     1      35.264 -18.529 -22.227  0.00  0.00    -0.021 C 
ATOM      4  C   UNL     1      35.141 -17.151 -22.055  0.00  0.00    +0.010 C 
ATOM      5  C   UNL     1      34.589 -18.301 -24.536  0.00  0.00    -0.003 C 
ATOM      6  C   UNL     1      34.988 -19.105 -23.467  0.00  0.00    -0.004 C 
ATOM      7  C   UNL     1      34.037 -16.085 -25.525  0.00  0.00    +0.032 C 
ATOM      8  C   UNL     1      35.690 -19.390 -21.086  0.00  0.00    +0.031 C 
ENDROOT
BRANCH   2   9
ATOM      9  N   UNL     1      34.624 -14.953 -22.930  0.00  0.00    -0.357 N 
ATOM     10  H   UNL     1      34.019 -14.427 -23.501  0.00  0.00    +0.142 HD
ATOM     11  H   UNL     1      35.145 -14.507 -22.225  0.00  0.00    +0.142 HD
ENDBRANCH   2   9
TORSDOF 1
ENDMDL
