MODEL 1
REMARK VINA RESULT:     -10.7      0.000      0.000
REMARK  Name = 49867930
REMARK  6 active torsions:
REMARK  status: ('A' for Active; 'I' for Inactive)
REMARK    1  A    between atoms: N_2  and  C_7
REMARK    2  A    between atoms: C_3  and  C_22
REMARK    3  A    between atoms: C_22  and  C_27
REMARK    4  A    between atoms: N_26  and  C_29
REMARK    5  A    between atoms: C_29  and  C_32
REMARK    6  A    between atoms: C_32  and  C_36
REMARK                            x       y       z     vdW  Elec       q    Type
REMARK                         _______ _______ _______ _____ _____    ______ ____
ROOT
ATOM      1  O   UNL     1      35.349 -15.160 -22.913  0.00  0.00    -0.275 OA
ATOM      2  N   UNL     1      33.381 -14.214 -22.147  0.00  0.00    -0.295 N 
ATOM      3  C   UNL     1      34.352 -15.206 -22.194  0.00  0.00    +0.230 C 
ATOM      4  H   UNL     1      32.613 -14.331 -21.542  0.00  0.00    +0.150 HD
ENDROOT
BRANCH   2   7
ATOM      5  O   UNL     1      31.367 -12.488 -21.860  0.00  0.00    -0.273 OA
ATOM      6  N   UNL     1      32.468 -10.761 -22.862  0.00  0.00    -0.282 N 
ATOM      7  C   UNL     1      33.454 -13.018 -22.950  0.00  0.00    +0.172 C 
ATOM      8  C   UNL     1      33.387 -13.249 -24.437  0.00  0.00    +0.004 C 
ATOM      9  C   UNL     1      33.673 -12.171 -25.303  0.00  0.00    -0.001 C 
ATOM     10  C   UNL     1      32.332 -12.091 -22.516  0.00  0.00    +0.248 C 
ATOM     11  C   UNL     1      34.061 -10.824 -24.801  0.00  0.00    +0.013 C 
ATOM     12  C   UNL     1      33.424 -10.169 -23.720  0.00  0.00    +0.050 C 
ATOM     13  C   UNL     1      33.010 -14.497 -24.974  0.00  0.00    -0.002 C 
ATOM     14  C   UNL     1      33.558 -12.395 -26.693  0.00  0.00    -0.000 C 
ATOM     15  C   UNL     1      35.062 -10.101 -25.491  0.00  0.00    +0.001 C 
ATOM     16  C   UNL     1      32.919 -14.690 -26.350  0.00  0.00    -0.000 C 
ATOM     17  C   UNL     1      33.708  -8.816 -23.449  0.00  0.00    +0.015 C 
ATOM     18  C   UNL     1      33.192 -13.638 -27.212  0.00  0.00    -0.000 C 
ATOM     19  C   UNL     1      35.370  -8.775 -25.179  0.00  0.00    +0.000 C 
ATOM     20  C   UNL     1      34.678  -8.126 -24.169  0.00  0.00    +0.001 C 
ATOM     21  H   UNL     1      31.816 -10.144 -22.458  0.00  0.00    +0.155 HD
ENDBRANCH   2   7
BRANCH   3  22
ATOM     22  C   UNL     1      34.057 -16.396 -21.260  0.00  0.00    +0.137 C 
ATOM     23  C   UNL     1      32.552 -16.449 -20.935  0.00  0.00    +0.018 C 
ATOM     24  C   UNL     1      34.821 -16.178 -19.939  0.00  0.00    +0.018 C 
BRANCH  22  27
ATOM     25  O   UNL     1      34.430 -17.952 -23.098  0.00  0.00    -0.275 OA
ATOM     26  N   UNL     1      34.891 -18.680 -20.951  0.00  0.00    -0.299 N 
ATOM     27  C   UNL     1      34.467 -17.745 -21.885  0.00  0.00    +0.230 C 
ATOM     28  H   UNL     1      34.889 -18.434 -19.998  0.00  0.00    +0.150 HD
BRANCH  26  29
ATOM     29  C   UNL     1      35.333 -20.000 -21.329  0.00  0.00    +0.166 C 
BRANCH  29  32
ATOM     30  F   UNL     1      37.057 -21.469 -20.699  0.00  0.00    -0.193 F 
ATOM     31  F   UNL     1      36.662 -19.758 -19.405  0.00  0.00    -0.193 F 
ATOM     32  C   UNL     1      36.067 -20.690 -20.193  0.00  0.00    +0.367 C 
BRANCH  32  36
ATOM     33  F   UNL     1      35.048 -22.784 -19.859  0.00  0.00    -0.165 F 
ATOM     34  F   UNL     1      33.926 -21.013 -19.254  0.00  0.00    -0.165 F 
ATOM     35  F   UNL     1      35.649 -21.665 -18.085  0.00  0.00    -0.165 F 
ATOM     36  C   UNL     1      35.165 -21.543 -19.339  0.00  0.00    +0.456 C 
ENDBRANCH  32  36
ENDBRANCH  29  32
ENDBRANCH  26  29
ENDBRANCH  22  27
ENDBRANCH   3  22
TORSDOF 6
ENDMDL
MODEL 2
REMARK VINA RESULT:     -10.2      3.897      6.788
REMARK  Name = 49867930
REMARK  6 active torsions:
REMARK  status: ('A' for Active; 'I' for Inactive)
REMARK    1  A    between atoms: N_2  and  C_7
REMARK    2  A    between atoms: C_3  and  C_22
REMARK    3  A    between atoms: C_22  and  C_27
REMARK    4  A    between atoms: N_26  and  C_29
REMARK    5  A    between atoms: C_29  and  C_32
REMARK    6  A    between atoms: C_32  and  C_36
REMARK                            x       y       z     vdW  Elec       q    Type
REMARK                         _______ _______ _______ _____ _____    ______ ____
ROOT
ATOM      1  O   UNL     1      30.516  -9.185 -23.441  0.00  0.00    -0.275 OA
ATOM      2  N   UNL     1      32.694  -8.754 -22.789  0.00  0.00    -0.295 N 
ATOM      3  C   UNL     1      31.507  -9.475 -22.774  0.00  0.00    +0.230 C 
ATOM      4  H   UNL     1      33.440  -9.058 -22.222  0.00  0.00    +0.150 HD
ENDROOT
BRANCH   2   7
ATOM      5  O   UNL     1      35.160  -7.737 -22.839  0.00  0.00    -0.273 OA
ATOM      6  N   UNL     1      34.782  -6.444 -24.677  0.00  0.00    -0.282 N 
ATOM      7  C   UNL     1      32.876  -7.577 -23.603  0.00  0.00    +0.172 C 
ATOM      8  C   UNL     1      32.105  -6.366 -23.144  0.00  0.00    +0.004 C 
ATOM      9  C   UNL     1      32.045  -5.241 -23.996  0.00  0.00    -0.001 C 
ATOM     10  C   UNL     1      34.361  -7.263 -23.648  0.00  0.00    +0.248 C 
ATOM     11  C   UNL     1      32.693  -5.218 -25.337  0.00  0.00    +0.013 C 
ATOM     12  C   UNL     1      33.994  -5.709 -25.595  0.00  0.00    +0.050 C 
ATOM     13  C   UNL     1      31.485  -6.320 -21.880  0.00  0.00    -0.002 C 
ATOM     14  C   UNL     1      31.359  -4.098 -23.528  0.00  0.00    -0.000 C 
ATOM     15  C   UNL     1      32.019  -4.586 -26.408  0.00  0.00    +0.001 C 
ATOM     16  C   UNL     1      30.803  -5.183 -21.453  0.00  0.00    -0.000 C 
ATOM     17  C   UNL     1      34.611  -5.454 -26.835  0.00  0.00    +0.015 C 
ATOM     18  C   UNL     1      30.741  -4.069 -22.277  0.00  0.00    -0.000 C 
ATOM     19  C   UNL     1      32.624  -4.386 -27.651  0.00  0.00    +0.000 C 
ATOM     20  C   UNL     1      33.929  -4.803 -27.858  0.00  0.00    +0.001 C 
ATOM     21  H   UNL     1      35.756  -6.360 -24.787  0.00  0.00    +0.155 HD
ENDBRANCH   2   7
BRANCH   3  22
ATOM     22  C   UNL     1      31.538 -10.687 -21.821  0.00  0.00    +0.137 C 
ATOM     23  C   UNL     1      30.101 -11.131 -21.490  0.00  0.00    +0.018 C 
ATOM     24  C   UNL     1      32.215 -10.253 -20.506  0.00  0.00    +0.018 C 
BRANCH  22  27
ATOM     25  O   UNL     1      33.091 -11.769 -23.354  0.00  0.00    -0.275 OA
ATOM     26  N   UNL     1      31.988 -13.096 -21.813  0.00  0.00    -0.299 N 
ATOM     27  C   UNL     1      32.291 -11.888 -22.427  0.00  0.00    +0.230 C 
ATOM     28  H   UNL     1      31.335 -13.104 -21.077  0.00  0.00    +0.150 HD
BRANCH  26  29
ATOM     29  C   UNL     1      32.597 -14.339 -22.219  0.00  0.00    +0.166 C 
BRANCH  29  32
ATOM     30  F   UNL     1      32.713 -14.554 -19.881  0.00  0.00    -0.193 F 
ATOM     31  F   UNL     1      31.865 -16.217 -21.009  0.00  0.00    -0.193 F 
ATOM     32  C   UNL     1      32.828 -15.260 -21.034  0.00  0.00    +0.367 C 
BRANCH  32  36
ATOM     33  F   UNL     1      34.899 -15.596 -19.970  0.00  0.00    -0.165 F 
ATOM     34  F   UNL     1      34.885 -15.564 -22.152  0.00  0.00    -0.165 F 
ATOM     35  F   UNL     1      34.056 -17.275 -21.080  0.00  0.00    -0.165 F 
ATOM     36  C   UNL     1      34.178 -15.931 -21.062  0.00  0.00    +0.456 C 
ENDBRANCH  32  36
ENDBRANCH  29  32
ENDBRANCH  26  29
ENDBRANCH  22  27
ENDBRANCH   3  22
TORSDOF 6
ENDMDL
MODEL 3
REMARK VINA RESULT:     -10.1      2.800      5.053
REMARK  Name = 49867930
REMARK  6 active torsions:
REMARK  status: ('A' for Active; 'I' for Inactive)
REMARK    1  A    between atoms: N_2  and  C_7
REMARK    2  A    between atoms: C_3  and  C_22
REMARK    3  A    between atoms: C_22  and  C_27
REMARK    4  A    between atoms: N_26  and  C_29
REMARK    5  A    between atoms: C_29  and  C_32
REMARK    6  A    between atoms: C_32  and  C_36
REMARK                            x       y       z     vdW  Elec       q    Type
REMARK                         _______ _______ _______ _____ _____    ______ ____
ROOT
ATOM      1  O   UNL     1      33.793 -11.637 -25.577  0.00  0.00    -0.275 OA
ATOM      2  N   UNL     1      32.964 -11.009 -23.510  0.00  0.00    -0.295 N 
ATOM      3  C   UNL     1      33.306 -11.934 -24.488  0.00  0.00    +0.230 C 
ATOM      4  H   UNL     1      32.578 -11.335 -22.665  0.00  0.00    +0.150 HD
ENDROOT
BRANCH   2   7
ATOM      5  O   UNL     1      35.490 -10.191 -23.770  0.00  0.00    -0.273 OA
ATOM      6  N   UNL     1      34.928  -8.138 -24.586  0.00  0.00    -0.282 N 
ATOM      7  C   UNL     1      33.153  -9.590 -23.685  0.00  0.00    +0.172 C 
ATOM      8  C   UNL     1      32.727  -8.746 -22.511  0.00  0.00    +0.004 C 
ATOM      9  C   UNL     1      32.667  -7.344 -22.673  0.00  0.00    -0.001 C 
ATOM     10  C   UNL     1      34.620  -9.347 -23.995  0.00  0.00    +0.248 C 
ATOM     11  C   UNL     1      32.985  -6.674 -23.964  0.00  0.00    +0.013 C 
ATOM     12  C   UNL     1      34.090  -7.015 -24.782  0.00  0.00    +0.050 C 
ATOM     13  C   UNL     1      32.429  -9.320 -21.259  0.00  0.00    -0.002 C 
ATOM     14  C   UNL     1      32.312  -6.568 -21.548  0.00  0.00    -0.000 C 
ATOM     15  C   UNL     1      32.203  -5.568 -24.369  0.00  0.00    +0.001 C 
ATOM     16  C   UNL     1      32.068  -8.527 -20.172  0.00  0.00    -0.000 C 
ATOM     17  C   UNL     1      34.441  -6.194 -25.870  0.00  0.00    +0.015 C 
ATOM     18  C   UNL     1      32.011  -7.149 -20.315  0.00  0.00    -0.000 C 
ATOM     19  C   UNL     1      32.532  -4.792 -25.483  0.00  0.00    +0.000 C 
ATOM     20  C   UNL     1      33.664  -5.094 -26.223  0.00  0.00    +0.001 C 
ATOM     21  H   UNL     1      35.852  -8.043 -24.914  0.00  0.00    +0.155 HD
ENDBRANCH   2   7
BRANCH   3  22
ATOM     22  C   UNL     1      33.003 -13.391 -24.086  0.00  0.00    +0.137 C 
ATOM     23  C   UNL     1      32.721 -14.235 -25.345  0.00  0.00    +0.018 C 
ATOM     24  C   UNL     1      31.732 -13.401 -23.215  0.00  0.00    +0.018 C 
BRANCH  22  27
ATOM     25  O   UNL     1      34.916 -13.398 -22.578  0.00  0.00    -0.275 OA
ATOM     26  N   UNL     1      34.279 -15.408 -23.531  0.00  0.00    -0.299 N 
ATOM     27  C   UNL     1      34.171 -14.040 -23.317  0.00  0.00    +0.230 C 
ATOM     28  H   UNL     1      33.642 -15.847 -24.139  0.00  0.00    +0.150 HD
BRANCH  26  29
ATOM     29  C   UNL     1      35.296 -16.208 -22.891  0.00  0.00    +0.166 C 
BRANCH  29  32
ATOM     30  F   UNL     1      35.258 -16.359 -20.546  0.00  0.00    -0.193 F 
ATOM     31  F   UNL     1      33.405 -16.779 -21.617  0.00  0.00    -0.193 F 
ATOM     32  C   UNL     1      34.753 -16.928 -21.670  0.00  0.00    +0.367 C 
BRANCH  32  36
ATOM     33  F   UNL     1      36.412 -18.593 -21.558  0.00  0.00    -0.165 F 
ATOM     34  F   UNL     1      34.660 -19.003 -22.792  0.00  0.00    -0.165 F 
ATOM     35  F   UNL     1      34.492 -19.024 -20.616  0.00  0.00    -0.165 F 
ATOM     36  C   UNL     1      35.079 -18.400 -21.659  0.00  0.00    +0.456 C 
ENDBRANCH  32  36
ENDBRANCH  29  32
ENDBRANCH  26  29
ENDBRANCH  22  27
ENDBRANCH   3  22
TORSDOF 6
ENDMDL
MODEL 4
REMARK VINA RESULT:     -10.0      1.615      2.226
REMARK  Name = 49867930
REMARK  6 active torsions:
REMARK  status: ('A' for Active; 'I' for Inactive)
REMARK    1  A    between atoms: N_2  and  C_7
REMARK    2  A    between atoms: C_3  and  C_22
REMARK    3  A    between atoms: C_22  and  C_27
REMARK    4  A    between atoms: N_26  and  C_29
REMARK    5  A    between atoms: C_29  and  C_32
REMARK    6  A    between atoms: C_32  and  C_36
REMARK                            x       y       z     vdW  Elec       q    Type
REMARK                         _______ _______ _______ _____ _____    ______ ____
ROOT
ATOM      1  O   UNL     1      34.980 -15.674 -20.774  0.00  0.00    -0.275 OA
ATOM      2  N   UNL     1      34.157 -16.067 -22.901  0.00  0.00    -0.295 N 
ATOM      3  C   UNL     1      34.760 -16.444 -21.708  0.00  0.00    +0.230 C 
ATOM      4  H   UNL     1      34.018 -16.749 -23.597  0.00  0.00    +0.150 HD
ENDROOT
BRANCH   2   7
ATOM      5  O   UNL     1      31.799 -15.375 -21.862  0.00  0.00    -0.273 OA
ATOM      6  N   UNL     1      32.136 -13.136 -22.131  0.00  0.00    -0.282 N 
ATOM      7  C   UNL     1      33.725 -14.715 -23.158  0.00  0.00    +0.172 C 
ATOM      8  C   UNL     1      33.472 -14.397 -24.610  0.00  0.00    +0.004 C 
ATOM      9  C   UNL     1      33.264 -13.051 -24.981  0.00  0.00    -0.001 C 
ATOM     10  C   UNL     1      32.469 -14.459 -22.343  0.00  0.00    +0.248 C 
ATOM     11  C   UNL     1      33.309 -11.934 -23.996  0.00  0.00    +0.013 C 
ATOM     12  C   UNL     1      32.704 -11.981 -22.718  0.00  0.00    +0.050 C 
ATOM     13  C   UNL     1      33.401 -15.412 -25.585  0.00  0.00    -0.002 C 
ATOM     14  C   UNL     1      32.981 -12.780 -26.338  0.00  0.00    -0.000 C 
ATOM     15  C   UNL     1      33.908 -10.712 -24.380  0.00  0.00    +0.001 C 
ATOM     16  C   UNL     1      33.134 -15.110 -26.919  0.00  0.00    -0.000 C 
ATOM     17  C   UNL     1      32.609 -10.812 -21.940  0.00  0.00    +0.015 C 
ATOM     18  C   UNL     1      32.921 -13.792 -27.296  0.00  0.00    -0.000 C 
ATOM     19  C   UNL     1      33.853  -9.572 -23.575  0.00  0.00    +0.000 C 
ATOM     20  C   UNL     1      33.185  -9.617 -22.362  0.00  0.00    +0.001 C 
ATOM     21  H   UNL     1      31.409 -12.975 -21.487  0.00  0.00    +0.155 HD
ENDBRANCH   2   7
BRANCH   3  22
ATOM     22  C   UNL     1      35.147 -17.935 -21.661  0.00  0.00    +0.137 C 
ATOM     23  C   UNL     1      36.466 -18.111 -20.884  0.00  0.00    +0.018 C 
ATOM     24  C   UNL     1      35.380 -18.422 -23.104  0.00  0.00    +0.018 C 
BRANCH  22  27
ATOM     25  O   UNL     1      32.890 -18.443 -20.898  0.00  0.00    -0.275 OA
ATOM     26  N   UNL     1      34.546 -20.010 -20.505  0.00  0.00    -0.299 N 
ATOM     27  C   UNL     1      34.065 -18.799 -20.984  0.00  0.00    +0.230 C 
ATOM     28  H   UNL     1      35.501 -20.219 -20.613  0.00  0.00    +0.150 HD
BRANCH  26  29
ATOM     29  C   UNL     1      33.692 -20.973 -19.852  0.00  0.00    +0.166 C 
BRANCH  29  32
ATOM     30  F   UNL     1      35.003 -22.917 -20.027  0.00  0.00    -0.193 F 
ATOM     31  F   UNL     1      35.561 -21.454 -18.509  0.00  0.00    -0.193 F 
ATOM     32  C   UNL     1      34.501 -22.034 -19.127  0.00  0.00    +0.367 C 
BRANCH  32  36
ATOM     33  F   UNL     1      33.555 -24.084 -18.463  0.00  0.00    -0.165 F 
ATOM     34  F   UNL     1      32.460 -22.264 -17.961  0.00  0.00    -0.165 F 
ATOM     35  F   UNL     1      34.296 -22.764 -16.891  0.00  0.00    -0.165 F 
ATOM     36  C   UNL     1      33.696 -22.790 -18.100  0.00  0.00    +0.456 C 
ENDBRANCH  32  36
ENDBRANCH  29  32
ENDBRANCH  26  29
ENDBRANCH  22  27
ENDBRANCH   3  22
TORSDOF 6
ENDMDL
MODEL 5
REMARK VINA RESULT:      -9.8      3.546      5.779
REMARK  Name = 49867930
REMARK  6 active torsions:
REMARK  status: ('A' for Active; 'I' for Inactive)
REMARK    1  A    between atoms: N_2  and  C_7
REMARK    2  A    between atoms: C_3  and  C_22
REMARK    3  A    between atoms: C_22  and  C_27
REMARK    4  A    between atoms: N_26  and  C_29
REMARK    5  A    between atoms: C_29  and  C_32
REMARK    6  A    between atoms: C_32  and  C_36
REMARK                            x       y       z     vdW  Elec       q    Type
REMARK                         _______ _______ _______ _____ _____    ______ ____
ROOT
ATOM      1  O   UNL     1      33.582 -11.268 -25.455  0.00  0.00    -0.275 OA
ATOM      2  N   UNL     1      33.073 -10.583 -23.304  0.00  0.00    -0.295 N 
ATOM      3  C   UNL     1      33.310 -11.537 -24.286  0.00  0.00    +0.230 C 
ATOM      4  H   UNL     1      32.861 -10.887 -22.391  0.00  0.00    +0.150 HD
ENDROOT
BRANCH   2   7
ATOM      5  O   UNL     1      35.498  -9.573 -23.769  0.00  0.00    -0.273 OA
ATOM      6  N   UNL     1      34.713  -7.628 -24.660  0.00  0.00    -0.282 N 
ATOM      7  C   UNL     1      33.127  -9.167 -23.569  0.00  0.00    +0.172 C 
ATOM      8  C   UNL     1      32.698  -8.291 -22.420  0.00  0.00    +0.004 C 
ATOM      9  C   UNL     1      32.506  -6.912 -22.656  0.00  0.00    -0.001 C 
ATOM     10  C   UNL     1      34.547  -8.821 -23.985  0.00  0.00    +0.248 C 
ATOM     11  C   UNL     1      32.689  -6.298 -24.000  0.00  0.00    +0.013 C 
ATOM     12  C   UNL     1      33.769  -6.594 -24.865  0.00  0.00    +0.050 C 
ATOM     13  C   UNL     1      32.525  -8.810 -21.121  0.00  0.00    -0.002 C 
ATOM     14  C   UNL     1      32.151  -6.101 -21.555  0.00  0.00    -0.000 C 
ATOM     15  C   UNL     1      31.791  -5.288 -24.415  0.00  0.00    +0.001 C 
ATOM     16  C   UNL     1      32.160  -7.986 -20.059  0.00  0.00    -0.000 C 
ATOM     17  C   UNL     1      33.983  -5.814 -26.018  0.00  0.00    +0.015 C 
ATOM     18  C   UNL     1      31.974  -6.629 -20.275  0.00  0.00    -0.000 C 
ATOM     19  C   UNL     1      31.985  -4.556 -25.589  0.00  0.00    +0.000 C 
ATOM     20  C   UNL     1      33.094  -4.807 -26.381  0.00  0.00    +0.001 C 
ATOM     21  H   UNL     1      35.604  -7.477 -25.051  0.00  0.00    +0.155 HD
ENDBRANCH   2   7
BRANCH   3  22
ATOM     22  C   UNL     1      33.185 -12.986 -23.776  0.00  0.00    +0.137 C 
ATOM     23  C   UNL     1      31.948 -13.119 -22.868  0.00  0.00    +0.018 C 
ATOM     24  C   UNL     1      34.431 -13.312 -22.930  0.00  0.00    +0.018 C 
BRANCH  22  27
ATOM     25  O   UNL     1      32.585 -13.701 -26.027  0.00  0.00    -0.275 OA
ATOM     26  N   UNL     1      33.527 -15.266 -24.607  0.00  0.00    -0.299 N 
ATOM     27  C   UNL     1      33.053 -14.002 -24.929  0.00  0.00    +0.230 C 
ATOM     28  H   UNL     1      33.885 -15.424 -23.704  0.00  0.00    +0.150 HD
BRANCH  26  29
ATOM     29  C   UNL     1      33.510 -16.358 -25.550  0.00  0.00    +0.166 C 
BRANCH  29  32
ATOM     30  F   UNL     1      33.591 -18.634 -24.968  0.00  0.00    -0.193 F 
ATOM     31  F   UNL     1      35.320 -17.791 -25.995  0.00  0.00    -0.193 F 
ATOM     32  C   UNL     1      34.360 -17.521 -25.073  0.00  0.00    +0.367 C 
BRANCH  32  36
ATOM     33  F   UNL     1      35.732 -16.112 -23.782  0.00  0.00    -0.165 F 
ATOM     34  F   UNL     1      35.874 -18.258 -23.418  0.00  0.00    -0.165 F 
ATOM     35  F   UNL     1      34.113 -17.152 -22.755  0.00  0.00    -0.165 F 
ATOM     36  C   UNL     1      35.024 -17.261 -23.745  0.00  0.00    +0.456 C 
ENDBRANCH  32  36
ENDBRANCH  29  32
ENDBRANCH  26  29
ENDBRANCH  22  27
ENDBRANCH   3  22
TORSDOF 6
ENDMDL
MODEL 6
REMARK VINA RESULT:      -9.7      2.473      3.084
REMARK  Name = 49867930
REMARK  6 active torsions:
REMARK  status: ('A' for Active; 'I' for Inactive)
REMARK    1  A    between atoms: N_2  and  C_7
REMARK    2  A    between atoms: C_3  and  C_22
REMARK    3  A    between atoms: C_22  and  C_27
REMARK    4  A    between atoms: N_26  and  C_29
REMARK    5  A    between atoms: C_29  and  C_32
REMARK    6  A    between atoms: C_32  and  C_36
REMARK                            x       y       z     vdW  Elec       q    Type
REMARK                         _______ _______ _______ _____ _____    ______ ____
ROOT
ATOM      1  O   UNL     1      35.230 -14.474 -22.087  0.00  0.00    -0.275 OA
ATOM      2  N   UNL     1      33.047 -13.749 -21.825  0.00  0.00    -0.295 N 
ATOM      3  C   UNL     1      34.105 -14.624 -21.613  0.00  0.00    +0.230 C 
ATOM      4  H   UNL     1      32.178 -13.946 -21.406  0.00  0.00    +0.150 HD
ENDROOT
BRANCH   2   7
ATOM      5  O   UNL     1      30.968 -12.077 -21.782  0.00  0.00    -0.273 OA
ATOM      6  N   UNL     1      32.123 -10.333 -22.688  0.00  0.00    -0.282 N 
ATOM      7  C   UNL     1      33.174 -12.562 -22.635  0.00  0.00    +0.172 C 
ATOM      8  C   UNL     1      33.272 -12.815 -24.117  0.00  0.00    +0.004 C 
ATOM      9  C   UNL     1      33.620 -11.740 -24.965  0.00  0.00    -0.001 C 
ATOM     10  C   UNL     1      31.987 -11.662 -22.338  0.00  0.00    +0.248 C 
ATOM     11  C   UNL     1      33.915 -10.376 -24.446  0.00  0.00    +0.013 C 
ATOM     12  C   UNL     1      33.149  -9.725 -23.450  0.00  0.00    +0.050 C 
ATOM     13  C   UNL     1      32.988 -14.079 -24.671  0.00  0.00    -0.002 C 
ATOM     14  C   UNL     1      33.659 -11.986 -26.355  0.00  0.00    -0.000 C 
ATOM     15  C   UNL     1      34.963  -9.634 -25.037  0.00  0.00    +0.001 C 
ATOM     16  C   UNL     1      33.050 -14.294 -26.045  0.00  0.00    -0.000 C 
ATOM     17  C   UNL     1      33.365  -8.362 -23.172  0.00  0.00    +0.015 C 
ATOM     18  C   UNL     1      33.384 -13.245 -26.890  0.00  0.00    -0.000 C 
ATOM     19  C   UNL     1      35.201  -8.295 -24.716  0.00  0.00    +0.000 C 
ATOM     20  C   UNL     1      34.387  -7.653 -23.796  0.00  0.00    +0.001 C 
ATOM     21  H   UNL     1      31.415  -9.730 -22.366  0.00  0.00    +0.155 HD
ENDBRANCH   2   7
BRANCH   3  22
ATOM     22  C   UNL     1      33.734 -15.829 -20.726  0.00  0.00    +0.137 C 
ATOM     23  C   UNL     1      32.215 -16.078 -20.787  0.00  0.00    +0.018 C 
ATOM     24  C   UNL     1      34.100 -15.490 -19.268  0.00  0.00    +0.018 C 
BRANCH  22  27
ATOM     25  O   UNL     1      35.503 -17.502 -20.638  0.00  0.00    -0.275 OA
ATOM     26  N   UNL     1      33.802 -17.802 -22.178  0.00  0.00    -0.299 N 
ATOM     27  C   UNL     1      34.457 -17.120 -21.161  0.00  0.00    +0.230 C 
ATOM     28  H   UNL     1      32.969 -17.427 -22.542  0.00  0.00    +0.150 HD
BRANCH  26  29
ATOM     29  C   UNL     1      34.303 -19.042 -22.719  0.00  0.00    +0.166 C 
BRANCH  29  32
ATOM     30  F   UNL     1      36.477 -18.637 -23.519  0.00  0.00    -0.193 F 
ATOM     31  F   UNL     1      35.173 -19.901 -24.727  0.00  0.00    -0.193 F 
ATOM     32  C   UNL     1      35.193 -18.805 -23.926  0.00  0.00    +0.367 C 
BRANCH  32  36
ATOM     33  F   UNL     1      35.092 -17.776 -26.040  0.00  0.00    -0.165 F 
ATOM     34  F   UNL     1      35.399 -16.484 -24.309  0.00  0.00    -0.165 F 
ATOM     35  F   UNL     1      33.447 -17.395 -24.659  0.00  0.00    -0.165 F 
ATOM     36  C   UNL     1      34.778 -17.604 -24.738  0.00  0.00    +0.456 C 
ENDBRANCH  32  36
ENDBRANCH  29  32
ENDBRANCH  26  29
ENDBRANCH  22  27
ENDBRANCH   3  22
TORSDOF 6
ENDMDL
MODEL 7
REMARK VINA RESULT:      -9.6      3.999      5.900
REMARK  Name = 49867930
REMARK  6 active torsions:
REMARK  status: ('A' for Active; 'I' for Inactive)
REMARK    1  A    between atoms: N_2  and  C_7
REMARK    2  A    between atoms: C_3  and  C_22
REMARK    3  A    between atoms: C_22  and  C_27
REMARK    4  A    between atoms: N_26  and  C_29
REMARK    5  A    between atoms: C_29  and  C_32
REMARK    6  A    between atoms: C_32  and  C_36
REMARK                            x       y       z     vdW  Elec       q    Type
REMARK                         _______ _______ _______ _____ _____    ______ ____
ROOT
ATOM      1  O   UNL     1      36.652 -19.292 -19.973  0.00  0.00    -0.275 OA
ATOM      2  N   UNL     1      34.483 -19.895 -20.511  0.00  0.00    -0.295 N 
ATOM      3  C   UNL     1      35.757 -20.135 -20.013  0.00  0.00    +0.230 C 
ATOM      4  H   UNL     1      33.826 -20.629 -20.505  0.00  0.00    +0.150 HD
ENDROOT
BRANCH   2   7
ATOM      5  O   UNL     1      31.869 -19.365 -20.440  0.00  0.00    -0.273 OA
ATOM      6  N   UNL     1      32.132 -17.127 -20.788  0.00  0.00    -0.282 N 
ATOM      7  C   UNL     1      34.084 -18.611 -21.033  0.00  0.00    +0.172 C 
ATOM      8  C   UNL     1      34.348 -18.417 -22.504  0.00  0.00    +0.004 C 
ATOM      9  C   UNL     1      34.198 -17.124 -23.053  0.00  0.00    -0.001 C 
ATOM     10  C   UNL     1      32.605 -18.423 -20.740  0.00  0.00    +0.248 C 
ATOM     11  C   UNL     1      33.813 -15.945 -22.229  0.00  0.00    +0.013 C 
ATOM     12  C   UNL     1      32.794 -15.964 -21.247  0.00  0.00    +0.050 C 
ATOM     13  C   UNL     1      34.698 -19.496 -23.340  0.00  0.00    -0.002 C 
ATOM     14  C   UNL     1      34.403 -16.972 -24.442  0.00  0.00    -0.000 C 
ATOM     15  C   UNL     1      34.428 -14.699 -22.493  0.00  0.00    +0.001 C 
ATOM     16  C   UNL     1      34.908 -19.311 -24.704  0.00  0.00    -0.000 C 
ATOM     17  C   UNL     1      32.349 -14.760 -20.668  0.00  0.00    +0.015 C 
ATOM     18  C   UNL     1      34.758 -18.048 -25.258  0.00  0.00    -0.000 C 
ATOM     19  C   UNL     1      34.012 -13.519 -21.873  0.00  0.00    +0.000 C 
ATOM     20  C   UNL     1      32.958 -13.547 -20.974  0.00  0.00    +0.001 C 
ATOM     21  H   UNL     1      31.213 -16.994 -20.459  0.00  0.00    +0.155 HD
ENDBRANCH   2   7
BRANCH   3  22
ATOM     22  C   UNL     1      35.960 -21.582 -19.521  0.00  0.00    +0.137 C 
ATOM     23  C   UNL     1      36.904 -21.594 -18.303  0.00  0.00    +0.018 C 
ATOM     24  C   UNL     1      36.631 -22.390 -20.648  0.00  0.00    +0.018 C 
BRANCH  22  27
ATOM     25  O   UNL     1      33.742 -22.506 -19.925  0.00  0.00    -0.275 OA
ATOM     26  N   UNL     1      34.557 -22.549 -17.760  0.00  0.00    -0.299 N 
ATOM     27  C   UNL     1      34.632 -22.252 -19.114  0.00  0.00    +0.230 C 
ATOM     28  H   UNL     1      35.314 -22.311 -17.178  0.00  0.00    +0.150 HD
BRANCH  26  29
ATOM     29  C   UNL     1      33.404 -23.193 -17.177  0.00  0.00    +0.166 C 
BRANCH  29  32
ATOM     30  F   UNL     1      34.335 -24.613 -15.551  0.00  0.00    -0.193 F 
ATOM     31  F   UNL     1      34.337 -22.471 -15.143  0.00  0.00    -0.193 F 
ATOM     32  C   UNL     1      33.611 -23.475 -15.699  0.00  0.00    +0.367 C 
BRANCH  32  36
ATOM     33  F   UNL     1      31.310 -23.960 -15.771  0.00  0.00    -0.165 F 
ATOM     34  F   UNL     1      31.976 -22.460 -14.332  0.00  0.00    -0.165 F 
ATOM     35  F   UNL     1      32.410 -24.571 -13.989  0.00  0.00    -0.165 F 
ATOM     36  C   UNL     1      32.317 -23.617 -14.939  0.00  0.00    +0.456 C 
ENDBRANCH  32  36
ENDBRANCH  29  32
ENDBRANCH  26  29
ENDBRANCH  22  27
ENDBRANCH   3  22
TORSDOF 6
ENDMDL
MODEL 8
REMARK VINA RESULT:      -9.6      4.638      7.242
REMARK  Name = 49867930
REMARK  6 active torsions:
REMARK  status: ('A' for Active; 'I' for Inactive)
REMARK    1  A    between atoms: N_2  and  C_7
REMARK    2  A    between atoms: C_3  and  C_22
REMARK    3  A    between atoms: C_22  and  C_27
REMARK    4  A    between atoms: N_26  and  C_29
REMARK    5  A    between atoms: C_29  and  C_32
REMARK    6  A    between atoms: C_32  and  C_36
REMARK                            x       y       z     vdW  Elec       q    Type
REMARK                         _______ _______ _______ _____ _____    ______ ____
ROOT
ATOM      1  O   UNL     1      32.831 -10.464 -23.626  0.00  0.00    -0.275 OA
ATOM      2  N   UNL     1      31.944  -8.765 -22.329  0.00  0.00    -0.295 N 
ATOM      3  C   UNL     1      32.202 -10.095 -22.636  0.00  0.00    +0.230 C 
ATOM      4  H   UNL     1      31.432  -8.558 -21.515  0.00  0.00    +0.150 HD
ENDROOT
BRANCH   2   7
ATOM      5  O   UNL     1      34.487  -8.028 -21.997  0.00  0.00    -0.273 OA
ATOM      6  N   UNL     1      34.582  -6.835 -23.937  0.00  0.00    -0.282 N 
ATOM      7  C   UNL     1      32.400  -7.676 -23.158  0.00  0.00    +0.172 C 
ATOM      8  C   UNL     1      31.714  -6.358 -22.905  0.00  0.00    +0.004 C 
ATOM      9  C   UNL     1      31.933  -5.297 -23.810  0.00  0.00    -0.001 C 
ATOM     10  C   UNL     1      33.899  -7.529 -22.957  0.00  0.00    +0.248 C 
ATOM     11  C   UNL     1      32.796  -5.439 -25.015  0.00  0.00    +0.013 C 
ATOM     12  C   UNL     1      34.055  -6.087 -25.015  0.00  0.00    +0.050 C 
ATOM     13  C   UNL     1      30.899  -6.156 -21.773  0.00  0.00    -0.002 C 
ATOM     14  C   UNL     1      31.319  -4.056 -23.529  0.00  0.00    -0.000 C 
ATOM     15  C   UNL     1      32.394  -4.816 -26.219  0.00  0.00    +0.001 C 
ATOM     16  C   UNL     1      30.295  -4.924 -21.532  0.00  0.00    -0.000 C 
ATOM     17  C   UNL     1      34.898  -5.989 -26.139  0.00  0.00    +0.015 C 
ATOM     18  C   UNL     1      30.507  -3.871 -22.409  0.00  0.00    -0.000 C 
ATOM     19  C   UNL     1      33.219  -4.771 -27.345  0.00  0.00    +0.000 C 
ATOM     20  C   UNL     1      34.481  -5.342 -27.298  0.00  0.00    +0.001 C 
ATOM     21  H   UNL     1      35.564  -6.866 -23.878  0.00  0.00    +0.155 HD
ENDBRANCH   2   7
BRANCH   3  22
ATOM     22  C   UNL     1      31.607 -11.085 -21.615  0.00  0.00    +0.137 C 
ATOM     23  C   UNL     1      30.084 -11.195 -21.817  0.00  0.00    +0.018 C 
ATOM     24  C   UNL     1      31.860 -10.534 -20.199  0.00  0.00    +0.018 C 
BRANCH  22  27
ATOM     25  O   UNL     1      32.777 -13.064 -20.809  0.00  0.00    -0.275 OA
ATOM     26  N   UNL     1      32.056 -13.052 -23.007  0.00  0.00    -0.299 N 
ATOM     27  C   UNL     1      32.218 -12.495 -21.745  0.00  0.00    +0.230 C 
ATOM     28  H   UNL     1      31.596 -12.529 -23.702  0.00  0.00    +0.150 HD
BRANCH  26  29
ATOM     29  C   UNL     1      32.540 -14.372 -23.333  0.00  0.00    +0.166 C 
BRANCH  29  32
ATOM     30  F   UNL     1      34.304 -13.073 -24.188  0.00  0.00    -0.193 F 
ATOM     31  F   UNL     1      34.694 -15.185 -23.811  0.00  0.00    -0.193 F 
ATOM     32  C   UNL     1      33.751 -14.311 -24.247  0.00  0.00    +0.367 C 
BRANCH  32  36
ATOM     33  F   UNL     1      33.908 -13.675 -26.507  0.00  0.00    -0.165 F 
ATOM     34  F   UNL     1      32.089 -14.701 -25.877  0.00  0.00    -0.165 F 
ATOM     35  F   UNL     1      33.960 -15.809 -26.059  0.00  0.00    -0.165 F 
ATOM     36  C   UNL     1      33.423 -14.629 -25.684  0.00  0.00    +0.456 C 
ENDBRANCH  32  36
ENDBRANCH  29  32
ENDBRANCH  26  29
ENDBRANCH  22  27
ENDBRANCH   3  22
TORSDOF 6
ENDMDL
MODEL 9
REMARK VINA RESULT:      -9.5      3.867      5.933
REMARK  Name = 49867930
REMARK  6 active torsions:
REMARK  status: ('A' for Active; 'I' for Inactive)
REMARK    1  A    between atoms: N_2  and  C_7
REMARK    2  A    between atoms: C_3  and  C_22
REMARK    3  A    between atoms: C_22  and  C_27
REMARK    4  A    between atoms: N_26  and  C_29
REMARK    5  A    between atoms: C_29  and  C_32
REMARK    6  A    between atoms: C_32  and  C_36
REMARK                            x       y       z     vdW  Elec       q    Type
REMARK                         _______ _______ _______ _____ _____    ______ ____
ROOT
ATOM      1  O   UNL     1      36.829 -19.178 -20.270  0.00  0.00    -0.275 OA
ATOM      2  N   UNL     1      34.596 -19.745 -20.489  0.00  0.00    -0.295 N 
ATOM      3  C   UNL     1      35.917 -19.993 -20.139  0.00  0.00    +0.230 C 
ATOM      4  H   UNL     1      33.928 -20.456 -20.350  0.00  0.00    +0.150 HD
ENDROOT
BRANCH   2   7
ATOM      5  O   UNL     1      31.976 -19.254 -20.377  0.00  0.00    -0.273 OA
ATOM      6  N   UNL     1      32.194 -17.027 -20.810  0.00  0.00    -0.282 N 
ATOM      7  C   UNL     1      34.164 -18.487 -21.047  0.00  0.00    +0.172 C 
ATOM      8  C   UNL     1      34.392 -18.342 -22.529  0.00  0.00    +0.004 C 
ATOM      9  C   UNL     1      34.209 -17.072 -23.120  0.00  0.00    -0.001 C 
ATOM     10  C   UNL     1      32.690 -18.313 -20.727  0.00  0.00    +0.248 C 
ATOM     11  C   UNL     1      33.823 -15.871 -22.329  0.00  0.00    +0.013 C 
ATOM     12  C   UNL     1      32.827 -15.871 -21.324  0.00  0.00    +0.050 C 
ATOM     13  C   UNL     1      34.742 -19.444 -23.334  0.00  0.00    -0.002 C 
ATOM     14  C   UNL     1      34.381 -16.967 -24.518  0.00  0.00    -0.000 C 
ATOM     15  C   UNL     1      34.411 -14.625 -22.651  0.00  0.00    +0.001 C 
ATOM     16  C   UNL     1      34.918 -19.305 -24.709  0.00  0.00    -0.000 C 
ATOM     17  C   UNL     1      32.375 -14.654 -20.779  0.00  0.00    +0.015 C 
ATOM     18  C   UNL     1      34.735 -18.065 -25.303  0.00  0.00    -0.000 C 
ATOM     19  C   UNL     1      33.990 -13.430 -22.064  0.00  0.00    +0.000 C 
ATOM     20  C   UNL     1      32.957 -13.443 -21.141  0.00  0.00    +0.001 C 
ATOM     21  H   UNL     1      31.281 -16.897 -20.466  0.00  0.00    +0.155 HD
ENDBRANCH   2   7
BRANCH   3  22
ATOM     22  C   UNL     1      36.146 -21.409 -19.574  0.00  0.00    +0.137 C 
ATOM     23  C   UNL     1      37.263 -22.116 -20.366  0.00  0.00    +0.018 C 
ATOM     24  C   UNL     1      34.849 -22.221 -19.757  0.00  0.00    +0.018 C 
BRANCH  22  27
ATOM     25  O   UNL     1      37.288 -20.528 -17.611  0.00  0.00    -0.275 OA
ATOM     26  N   UNL     1      35.973 -22.413 -17.345  0.00  0.00    -0.299 N 
ATOM     27  C   UNL     1      36.545 -21.387 -18.085  0.00  0.00    +0.230 C 
ATOM     28  H   UNL     1      35.390 -23.061 -17.802  0.00  0.00    +0.150 HD
BRANCH  26  29
ATOM     29  C   UNL     1      36.205 -22.562 -15.929  0.00  0.00    +0.166 C 
BRANCH  29  32
ATOM     30  F   UNL     1      34.663 -23.190 -14.269  0.00  0.00    -0.193 F 
ATOM     31  F   UNL     1      34.431 -24.070 -16.251  0.00  0.00    -0.193 F 
ATOM     32  C   UNL     1      35.351 -23.669 -15.337  0.00  0.00    +0.367 C 
BRANCH  32  36
ATOM     33  F   UNL     1      37.440 -24.751 -15.304  0.00  0.00    -0.165 F 
ATOM     34  F   UNL     1      35.660 -26.007 -15.426  0.00  0.00    -0.165 F 
ATOM     35  F   UNL     1      36.155 -24.995 -13.557  0.00  0.00    -0.165 F 
ATOM     36  C   UNL     1      36.156 -24.867 -14.901  0.00  0.00    +0.456 C 
ENDBRANCH  32  36
ENDBRANCH  29  32
ENDBRANCH  26  29
ENDBRANCH  22  27
ENDBRANCH   3  22
TORSDOF 6
ENDMDL
