MODEL 1
REMARK VINA RESULT:     -11.1      0.000      0.000
REMARK  Name = 45102284
REMARK  5 active torsions:
REMARK  status: ('A' for Active; 'I' for Inactive)
REMARK    1  A    between atoms: P_1  and  O_28
REMARK    2  A    between atoms: C_10  and  N_13
REMARK    3  A    between atoms: C_21  and  O_25
REMARK    4  A    between atoms: O_25  and  C_26
REMARK    5  A    between atoms: O_28  and  C_29
REMARK                            x       y       z     vdW  Elec       q    Type
REMARK                         _______ _______ _______ _____ _____    ______ ____
ROOT
ATOM      1  P   UNL     1      33.653 -14.609 -22.992  0.00  0.00    +0.480 P 
ATOM      2  F   UNL     1      36.216 -18.014 -23.359  0.00  0.00    -0.233 F 
ATOM      3  O   UNL     1      35.436 -17.594 -20.441  0.00  0.00    -0.333 OA
ATOM      4  O   UNL     1      34.290 -16.039 -23.443  0.00  0.00    -0.270 OA
ATOM      5  O   UNL     1      34.458 -14.239 -21.628  0.00  0.00    -0.270 OA
ATOM      6  O   UNL     1      32.158 -14.588 -22.862  0.00  0.00    -0.227 OA
ATOM      7  C   UNL     1      35.043 -18.297 -22.709  0.00  0.00    +0.204 C 
ATOM      8  C   UNL     1      34.347 -16.992 -22.404  0.00  0.00    +0.189 C 
ATOM      9  C   UNL     1      35.234 -16.469 -21.294  0.00  0.00    +0.177 C 
ATOM     10  C   UNL     1      35.419 -18.783 -21.289  0.00  0.00    +0.229 C 
ATOM     11  C   UNL     1      34.600 -15.258 -20.634  0.00  0.00    +0.186 C 
ATOM     12  C   UNL     1      34.261 -19.235 -23.606  0.00  0.00    +0.042 C 
ENDROOT
BRANCH  10  13
ATOM     13  N   UNL     1      34.520 -19.828 -20.670  0.00  0.00    -0.236 N 
ATOM     14  N   UNL     1      32.677 -21.014 -20.264  0.00  0.00    -0.239 NA
ATOM     15  N   UNL     1      36.057 -20.905 -19.128  0.00  0.00    -0.311 NA
ATOM     16  N   UNL     1      34.960 -22.702 -17.894  0.00  0.00    -0.289 NA
ATOM     17  N   UNL     1      37.218 -22.180 -17.546  0.00  0.00    -0.283 N 
ATOM     18  C   UNL     1      34.861 -20.742 -19.714  0.00  0.00    +0.223 C 
ATOM     19  C   UNL     1      33.198 -20.032 -20.968  0.00  0.00    +0.224 C 
ATOM     20  C   UNL     1      33.705 -21.468 -19.476  0.00  0.00    +0.190 C 
ATOM     21  C   UNL     1      33.783 -22.481 -18.526  0.00  0.00    +0.311 C 
ATOM     22  C   UNL     1      36.010 -21.912 -18.229  0.00  0.00    +0.200 C 
ATOM     23  H   UNL     1      38.022 -21.645 -17.740  0.00  0.00    +0.156 HD
ATOM     24  H   UNL     1      37.256 -22.902 -16.878  0.00  0.00    +0.156 HD
BRANCH  21  25
ATOM     25  O   UNL     1      32.709 -23.270 -18.201  0.00  0.00    -0.450 OA
BRANCH  25  26
ATOM     26  C   UNL     1      32.424 -23.421 -16.817  0.00  0.00    +0.208 C 
ATOM     27  C   UNL     1      31.067 -22.817 -16.524  0.00  0.00    +0.051 C 
ENDBRANCH  25  26
ENDBRANCH  21  25
ENDBRANCH  10  13
BRANCH   1  28
ATOM     28  O   UNL     1      34.258 -13.570 -24.072  0.00  0.00    -0.276 OA
BRANCH  28  29
ATOM     29  C   UNL     1      33.362 -13.045 -25.036  0.00  0.00    +0.126 C 
ATOM     30  C   UNL     1      33.156 -14.072 -26.140  0.00  0.00    +0.033 C 
ATOM     31  C   UNL     1      33.918 -11.737 -25.576  0.00  0.00    +0.033 C 
ENDBRANCH  28  29
ENDBRANCH   1  28
TORSDOF 5
ENDMDL
MODEL 2
REMARK VINA RESULT:      -9.2      4.761      7.331
REMARK  Name = 45102284
REMARK  5 active torsions:
REMARK  status: ('A' for Active; 'I' for Inactive)
REMARK    1  A    between atoms: P_1  and  O_28
REMARK    2  A    between atoms: C_10  and  N_13
REMARK    3  A    between atoms: C_21  and  O_25
REMARK    4  A    between atoms: O_25  and  C_26
REMARK    5  A    between atoms: O_28  and  C_29
REMARK                            x       y       z     vdW  Elec       q    Type
REMARK                         _______ _______ _______ _____ _____    ______ ____
ROOT
ATOM      1  P   UNL     1      33.393  -7.932 -22.511  0.00  0.00    +0.480 P 
ATOM      2  F   UNL     1      30.422 -10.998 -22.759  0.00  0.00    -0.233 F 
ATOM      3  O   UNL     1      33.077 -12.013 -23.864  0.00  0.00    -0.333 OA
ATOM      4  O   UNL     1      32.229  -9.007 -22.136  0.00  0.00    -0.270 OA
ATOM      5  O   UNL     1      33.920  -8.422 -23.969  0.00  0.00    -0.270 OA
ATOM      6  O   UNL     1      34.470  -7.770 -21.478  0.00  0.00    -0.227 OA
ATOM      7  C   UNL     1      31.555 -11.405 -22.102  0.00  0.00    +0.204 C 
ATOM      8  C   UNL     1      32.619 -10.353 -22.304  0.00  0.00    +0.189 C 
ATOM      9  C   UNL     1      32.963 -10.595 -23.758  0.00  0.00    +0.177 C 
ATOM     10  C   UNL     1      32.140 -12.592 -22.904  0.00  0.00    +0.229 C 
ATOM     11  C   UNL     1      34.203  -9.813 -24.149  0.00  0.00    +0.186 C 
ATOM     12  C   UNL     1      31.162 -11.637 -20.657  0.00  0.00    +0.042 C 
ENDROOT
BRANCH  10  13
ATOM     13  N   UNL     1      32.839 -13.668 -22.107  0.00  0.00    -0.236 N 
ATOM     14  N   UNL     1      33.541 -14.825 -20.335  0.00  0.00    -0.239 NA
ATOM     15  N   UNL     1      33.852 -14.975 -23.886  0.00  0.00    -0.311 NA
ATOM     16  N   UNL     1      35.114 -16.863 -22.990  0.00  0.00    -0.289 NA
ATOM     17  N   UNL     1      34.972 -16.469 -25.296  0.00  0.00    -0.283 N 
ATOM     18  C   UNL     1      33.586 -14.700 -22.600  0.00  0.00    +0.223 C 
ATOM     19  C   UNL     1      32.842 -13.786 -20.742  0.00  0.00    +0.224 C 
ATOM     20  C   UNL     1      34.012 -15.405 -21.486  0.00  0.00    +0.190 C 
ATOM     21  C   UNL     1      34.804 -16.526 -21.716  0.00  0.00    +0.311 C 
ATOM     22  C   UNL     1      34.626 -16.078 -23.983  0.00  0.00    +0.200 C 
ATOM     23  H   UNL     1      34.652 -15.945 -26.066  0.00  0.00    +0.156 HD
ATOM     24  H   UNL     1      35.533 -17.266 -25.441  0.00  0.00    +0.156 HD
BRANCH  21  25
ATOM     25  O   UNL     1      35.288 -17.307 -20.698  0.00  0.00    -0.450 OA
BRANCH  25  26
ATOM     26  C   UNL     1      35.601 -18.656 -21.022  0.00  0.00    +0.208 C 
ATOM     27  C   UNL     1      34.347 -19.495 -20.906  0.00  0.00    +0.051 C 
ENDBRANCH  25  26
ENDBRANCH  21  25
ENDBRANCH  10  13
BRANCH   1  28
ATOM     28  O   UNL     1      32.568  -6.584 -22.849  0.00  0.00    -0.276 OA
BRANCH  28  29
ATOM     29  C   UNL     1      31.160  -6.697 -22.956  0.00  0.00    +0.126 C 
ATOM     30  C   UNL     1      30.772  -6.753 -24.426  0.00  0.00    +0.033 C 
ATOM     31  C   UNL     1      30.507  -5.525 -22.242  0.00  0.00    +0.033 C 
ENDBRANCH  28  29
ENDBRANCH   1  28
TORSDOF 5
ENDMDL
MODEL 3
REMARK VINA RESULT:      -8.3      2.368      3.637
REMARK  Name = 45102284
REMARK  5 active torsions:
REMARK  status: ('A' for Active; 'I' for Inactive)
REMARK    1  A    between atoms: P_1  and  O_28
REMARK    2  A    between atoms: C_10  and  N_13
REMARK    3  A    between atoms: C_21  and  O_25
REMARK    4  A    between atoms: O_25  and  C_26
REMARK    5  A    between atoms: O_28  and  C_29
REMARK                            x       y       z     vdW  Elec       q    Type
REMARK                         _______ _______ _______ _____ _____    ______ ____
ROOT
ATOM      1  P   UNL     1      34.533 -16.414 -21.676  0.00  0.00    +0.480 P 
ATOM      2  F   UNL     1      32.774 -20.310 -21.808  0.00  0.00    -0.233 F 
ATOM      3  O   UNL     1      35.780 -20.528 -21.339  0.00  0.00    -0.333 OA
ATOM      4  O   UNL     1      33.590 -17.709 -21.381  0.00  0.00    -0.270 OA
ATOM      5  O   UNL     1      35.786 -17.029 -22.511  0.00  0.00    -0.270 OA
ATOM      6  O   UNL     1      34.919 -15.615 -20.465  0.00  0.00    -0.227 OA
ATOM      7  C   UNL     1      33.509 -20.095 -20.671  0.00  0.00    +0.204 C 
ATOM      8  C   UNL     1      34.288 -18.814 -20.850  0.00  0.00    +0.189 C 
ATOM      9  C   UNL     1      35.331 -19.273 -21.847  0.00  0.00    +0.177 C 
ATOM     10  C   UNL     1      34.644 -21.147 -20.661  0.00  0.00    +0.229 C 
ATOM     11  C   UNL     1      36.408 -18.217 -22.012  0.00  0.00    +0.186 C 
ATOM     12  C   UNL     1      32.529 -20.082 -19.514  0.00  0.00    +0.042 C 
ENDROOT
BRANCH  10  13
ATOM     13  N   UNL     1      35.084 -21.654 -19.307  0.00  0.00    -0.236 N 
ATOM     14  N   UNL     1      36.431 -22.121 -17.594  0.00  0.00    -0.239 NA
ATOM     15  N   UNL     1      32.988 -22.522 -18.438  0.00  0.00    -0.311 NA
ATOM     16  N   UNL     1      33.278 -23.464 -16.204  0.00  0.00    -0.289 NA
ATOM     17  N   UNL     1      31.189 -23.456 -17.268  0.00  0.00    -0.283 N 
ATOM     18  C   UNL     1      34.301 -22.258 -18.364  0.00  0.00    +0.223 C 
ATOM     19  C   UNL     1      36.354 -21.596 -18.799  0.00  0.00    +0.224 C 
ATOM     20  C   UNL     1      35.155 -22.539 -17.310  0.00  0.00    +0.190 C 
ATOM     21  C   UNL     1      34.598 -23.166 -16.199  0.00  0.00    +0.311 C 
ATOM     22  C   UNL     1      32.564 -23.129 -17.307  0.00  0.00    +0.200 C 
ATOM     23  H   UNL     1      30.610 -23.241 -18.035  0.00  0.00    +0.156 HD
ATOM     24  H   UNL     1      30.811 -23.898 -16.473  0.00  0.00    +0.156 HD
BRANCH  21  25
ATOM     25  O   UNL     1      35.338 -23.497 -15.093  0.00  0.00    -0.450 OA
BRANCH  25  26
ATOM     26  C   UNL     1      35.887 -24.808 -15.061  0.00  0.00    +0.208 C 
ATOM     27  C   UNL     1      37.390 -24.710 -14.908  0.00  0.00    +0.051 C 
ENDBRANCH  25  26
ENDBRANCH  21  25
ENDBRANCH  10  13
BRANCH   1  28
ATOM     28  O   UNL     1      33.707 -15.594 -22.797  0.00  0.00    -0.276 OA
BRANCH  28  29
ATOM     29  C   UNL     1      33.626 -14.188 -22.642  0.00  0.00    +0.126 C 
ATOM     30  C   UNL     1      32.309 -13.834 -21.967  0.00  0.00    +0.033 C 
ATOM     31  C   UNL     1      33.761 -13.525 -24.003  0.00  0.00    +0.033 C 
ENDBRANCH  28  29
ENDBRANCH   1  28
TORSDOF 5
ENDMDL
MODEL 4
REMARK VINA RESULT:      -8.3      3.575      5.917
REMARK  Name = 45102284
REMARK  5 active torsions:
REMARK  status: ('A' for Active; 'I' for Inactive)
REMARK    1  A    between atoms: P_1  and  O_28
REMARK    2  A    between atoms: C_10  and  N_13
REMARK    3  A    between atoms: C_21  and  O_25
REMARK    4  A    between atoms: O_25  and  C_26
REMARK    5  A    between atoms: O_28  and  C_29
REMARK                            x       y       z     vdW  Elec       q    Type
REMARK                         _______ _______ _______ _____ _____    ______ ____
ROOT
ATOM      1  P   UNL     1      33.931  -9.999 -24.131  0.00  0.00    +0.480 P 
ATOM      2  F   UNL     1      31.092 -12.747 -22.494  0.00  0.00    -0.233 F 
ATOM      3  O   UNL     1      33.219 -14.251 -24.079  0.00  0.00    -0.333 OA
ATOM      4  O   UNL     1      32.978 -10.827 -23.102  0.00  0.00    -0.270 OA
ATOM      5  O   UNL     1      33.932 -10.912 -25.478  0.00  0.00    -0.270 OA
ATOM      6  O   UNL     1      35.294  -9.657 -23.606  0.00  0.00    -0.227 OA
ATOM      7  C   UNL     1      32.386 -13.056 -22.163  0.00  0.00    +0.204 C 
ATOM      8  C   UNL     1      33.304 -12.196 -22.998  0.00  0.00    +0.189 C 
ATOM      9  C   UNL     1      33.132 -12.854 -24.351  0.00  0.00    +0.177 C 
ATOM     10  C   UNL     1      32.675 -14.463 -22.740  0.00  0.00    +0.229 C 
ATOM     11  C   UNL     1      34.153 -12.318 -25.336  0.00  0.00    +0.186 C 
ATOM     12  C   UNL     1      32.515 -12.852 -20.668  0.00  0.00    +0.042 C 
ENDROOT
BRANCH  10  13
ATOM     13  N   UNL     1      33.618 -15.338 -21.948  0.00  0.00    -0.236 N 
ATOM     14  N   UNL     1      34.880 -16.037 -20.248  0.00  0.00    -0.239 NA
ATOM     15  N   UNL     1      34.031 -17.128 -23.537  0.00  0.00    -0.311 NA
ATOM     16  N   UNL     1      35.556 -18.797 -22.616  0.00  0.00    -0.289 NA
ATOM     17  N   UNL     1      34.668 -19.009 -24.775  0.00  0.00    -0.283 N 
ATOM     18  C   UNL     1      34.188 -16.510 -22.357  0.00  0.00    +0.223 C 
ATOM     19  C   UNL     1      34.064 -15.097 -20.675  0.00  0.00    +0.224 C 
ATOM     20  C   UNL     1      34.966 -16.928 -21.289  0.00  0.00    +0.190 C 
ATOM     21  C   UNL     1      35.667 -18.120 -21.449  0.00  0.00    +0.311 C 
ATOM     22  C   UNL     1      34.756 -18.267 -23.575  0.00  0.00    +0.200 C 
ATOM     23  H   UNL     1      34.105 -18.684 -25.514  0.00  0.00    +0.156 HD
ATOM     24  H   UNL     1      35.169 -19.851 -24.871  0.00  0.00    +0.156 HD
BRANCH  21  25
ATOM     25  O   UNL     1      36.471 -18.639 -20.467  0.00  0.00    -0.450 OA
BRANCH  25  26
ATOM     26  C   UNL     1      36.917 -19.977 -20.648  0.00  0.00    +0.208 C 
ATOM     27  C   UNL     1      36.430 -20.820 -19.488  0.00  0.00    +0.051 C 
ENDBRANCH  25  26
ENDBRANCH  21  25
ENDBRANCH  10  13
BRANCH   1  28
ATOM     28  O   UNL     1      33.023  -8.728 -24.546  0.00  0.00    -0.276 OA
BRANCH  28  29
ATOM     29  C   UNL     1      33.282  -7.504 -23.883  0.00  0.00    +0.126 C 
ATOM     30  C   UNL     1      31.961  -6.807 -23.584  0.00  0.00    +0.033 C 
ATOM     31  C   UNL     1      34.190  -6.646 -24.749  0.00  0.00    +0.033 C 
ENDBRANCH  28  29
ENDBRANCH   1  28
TORSDOF 5
ENDMDL
MODEL 5
REMARK VINA RESULT:      -8.1      5.830     10.178
REMARK  Name = 45102284
REMARK  5 active torsions:
REMARK  status: ('A' for Active; 'I' for Inactive)
REMARK    1  A    between atoms: P_1  and  O_28
REMARK    2  A    between atoms: C_10  and  N_13
REMARK    3  A    between atoms: C_21  and  O_25
REMARK    4  A    between atoms: O_25  and  C_26
REMARK    5  A    between atoms: O_28  and  C_29
REMARK                            x       y       z     vdW  Elec       q    Type
REMARK                         _______ _______ _______ _____ _____    ______ ____
ROOT
ATOM      1  P   UNL     1      34.429 -15.523 -21.451  0.00  0.00    +0.480 P 
ATOM      2  F   UNL     1      33.129 -13.377 -24.914  0.00  0.00    -0.233 F 
ATOM      3  O   UNL     1      31.409 -12.634 -22.509  0.00  0.00    -0.333 OA
ATOM      4  O   UNL     1      34.394 -14.573 -22.773  0.00  0.00    -0.270 OA
ATOM      5  O   UNL     1      32.860 -15.701 -21.059  0.00  0.00    -0.270 OA
ATOM      6  O   UNL     1      35.301 -15.032 -20.332  0.00  0.00    -0.227 OA
ATOM      7  C   UNL     1      33.405 -12.557 -23.851  0.00  0.00    +0.204 C 
ATOM      8  C   UNL     1      33.592 -13.421 -22.627  0.00  0.00    +0.189 C 
ATOM      9  C   UNL     1      32.159 -13.839 -22.372  0.00  0.00    +0.177 C 
ATOM     10  C   UNL     1      32.094 -11.812 -23.504  0.00  0.00    +0.229 C 
ATOM     11  C   UNL     1      32.039 -14.530 -21.027  0.00  0.00    +0.186 C 
ATOM     12  C   UNL     1      34.619 -11.736 -24.236  0.00  0.00    +0.042 C 
ENDROOT
BRANCH  10  13
ATOM     13  N   UNL     1      32.235 -10.402 -22.980  0.00  0.00    -0.236 N 
ATOM     14  N   UNL     1      32.607  -8.204 -22.986  0.00  0.00    -0.239 NA
ATOM     15  N   UNL     1      31.759 -10.738 -20.621  0.00  0.00    -0.311 NA
ATOM     16  N   UNL     1      31.893  -8.638 -19.383  0.00  0.00    -0.289 NA
ATOM     17  N   UNL     1      31.361 -10.657 -18.317  0.00  0.00    -0.283 N 
ATOM     18  C   UNL     1      32.076  -9.988 -21.688  0.00  0.00    +0.223 C 
ATOM     19  C   UNL     1      32.554  -9.295 -23.721  0.00  0.00    +0.224 C 
ATOM     20  C   UNL     1      32.310  -8.622 -21.713  0.00  0.00    +0.190 C 
ATOM     21  C   UNL     1      32.208  -7.944 -20.502  0.00  0.00    +0.311 C 
ATOM     22  C   UNL     1      31.691  -9.973 -19.510  0.00  0.00    +0.200 C 
ATOM     23  H   UNL     1      31.201 -11.628 -18.334  0.00  0.00    +0.156 HD
ATOM     24  H   UNL     1      31.292 -10.161 -17.469  0.00  0.00    +0.156 HD
BRANCH  21  25
ATOM     25  O   UNL     1      32.416  -6.593 -20.395  0.00  0.00    -0.450 OA
BRANCH  25  26
ATOM     26  C   UNL     1      32.006  -5.795 -21.498  0.00  0.00    +0.208 C 
ATOM     27  C   UNL     1      30.536  -5.463 -21.346  0.00  0.00    +0.051 C 
ENDBRANCH  25  26
ENDBRANCH  21  25
ENDBRANCH  10  13
BRANCH   1  28
ATOM     28  O   UNL     1      34.830 -16.974 -22.039  0.00  0.00    -0.276 OA
BRANCH  28  29
ATOM     29  C   UNL     1      35.065 -18.010 -21.103  0.00  0.00    +0.126 C 
ATOM     30  C   UNL     1      36.403 -18.668 -21.408  0.00  0.00    +0.033 C 
ATOM     31  C   UNL     1      33.918 -19.007 -21.160  0.00  0.00    +0.033 C 
ENDBRANCH  28  29
ENDBRANCH   1  28
TORSDOF 5
ENDMDL
