MODEL 1
REMARK VINA RESULT:     -10.2      0.000      0.000
REMARK  Name = 638024
REMARK  3 active torsions:
REMARK  status: ('A' for Active; 'I' for Inactive)
REMARK    1  A    between atoms: C_1  and  C_13
REMARK    2  A    between atoms: C_2  and  C_6
REMARK    3  A    between atoms: C_12  and  C_21
REMARK                            x       y       z     vdW  Elec       q    Type
REMARK                         _______ _______ _______ _____ _____    ______ ____
ROOT
ATOM      1  C   UNL     1      34.094 -20.195 -20.449  0.00  0.00    +0.000 C 
ATOM      2  C   UNL     1      35.095 -21.032 -20.132  0.00  0.00    +0.000 C 
ENDROOT
BRANCH   2   6
ATOM      3  O   UNL     1      37.661 -22.246 -16.133  0.00  0.00    -0.435 OA
ATOM      4  O   UNL     1      35.830 -23.514 -15.212  0.00  0.00    -0.435 OA
ATOM      5  C   UNL     1      36.565 -22.235 -16.941  0.00  0.00    +0.176 C 
ATOM      6  C   UNL     1      35.255 -21.703 -18.831  0.00  0.00    +0.003 C 
ATOM      7  C   UNL     1      35.520 -22.959 -16.415  0.00  0.00    +0.176 C 
ATOM      8  C   UNL     1      36.464 -21.590 -18.157  0.00  0.00    +0.040 C 
ATOM      9  C   UNL     1      34.185 -22.434 -18.309  0.00  0.00    +0.003 C 
ATOM     10  C   UNL     1      34.316 -23.078 -17.076  0.00  0.00    +0.040 C 
ATOM     11  C   UNL     1      37.187 -23.058 -15.040  0.00  0.00    +0.429 C 
ENDBRANCH   2   6
BRANCH   1  13
ATOM     12  C   UNL     1      35.043 -19.310 -22.506  0.00  0.00    +0.058 C 
ATOM     13  C   UNL     1      33.979 -19.568 -21.749  0.00  0.00    +0.005 C 
BRANCH  12  21
ATOM     14  O   UNL     1      34.611 -19.403 -24.782  0.00  0.00    -0.270 OA
ATOM     15  N   UNL     1      34.875 -17.276 -23.876  0.00  0.00    -0.276 N 
ATOM     16  C   UNL     1      33.887 -14.550 -23.954  0.00  0.00    +0.004 C 
ATOM     17  C   UNL     1      33.581 -15.542 -25.071  0.00  0.00    +0.022 C 
ATOM     18  C   UNL     1      34.105 -15.280 -22.631  0.00  0.00    +0.022 C 
ATOM     19  C   UNL     1      34.666 -16.610 -25.165  0.00  0.00    +0.094 C 
ATOM     20  C   UNL     1      35.171 -16.369 -22.757  0.00  0.00    +0.094 C 
ATOM     21  C   UNL     1      34.823 -18.668 -23.817  0.00  0.00    +0.249 C 
ENDBRANCH  12  21
ENDBRANCH   1  13
TORSDOF 3
ENDMDL
MODEL 2
REMARK VINA RESULT:     -10.2      1.220      1.774
REMARK  Name = 638024
REMARK  3 active torsions:
REMARK  status: ('A' for Active; 'I' for Inactive)
REMARK    1  A    between atoms: C_1  and  C_13
REMARK    2  A    between atoms: C_2  and  C_6
REMARK    3  A    between atoms: C_12  and  C_21
REMARK                            x       y       z     vdW  Elec       q    Type
REMARK                         _______ _______ _______ _____ _____    ______ ____
ROOT
ATOM      1  C   UNL     1      35.289 -21.271 -19.474  0.00  0.00    +0.000 C 
ATOM      2  C   UNL     1      36.263 -21.399 -18.558  0.00  0.00    +0.000 C 
ENDROOT
BRANCH   2   6
ATOM      3  O   UNL     1      38.147 -23.431 -14.512  0.00  0.00    -0.435 OA
ATOM      4  O   UNL     1      36.040 -24.430 -13.903  0.00  0.00    -0.435 OA
ATOM      5  C   UNL     1      37.161 -23.145 -15.407  0.00  0.00    +0.176 C 
ATOM      6  C   UNL     1      36.168 -22.208 -17.331  0.00  0.00    +0.003 C 
ATOM      7  C   UNL     1      35.959 -23.716 -15.059  0.00  0.00    +0.176 C 
ATOM      8  C   UNL     1      37.300 -22.380 -16.546  0.00  0.00    +0.040 C 
ATOM      9  C   UNL     1      34.940 -22.781 -16.991  0.00  0.00    +0.003 C 
ATOM     10  C   UNL     1      34.828 -23.552 -15.832  0.00  0.00    +0.040 C 
ATOM     11  C   UNL     1      37.429 -24.244 -13.562  0.00  0.00    +0.429 C 
ENDBRANCH   2   6
BRANCH   1  13
ATOM     12  C   UNL     1      34.519 -19.580 -21.043  0.00  0.00    +0.058 C 
ATOM     13  C   UNL     1      35.437 -20.468 -20.669  0.00  0.00    +0.005 C 
BRANCH  12  21
ATOM     14  O   UNL     1      34.786 -19.429 -23.342  0.00  0.00    -0.270 OA
ATOM     15  N   UNL     1      34.952 -17.433 -22.158  0.00  0.00    -0.276 N 
ATOM     16  C   UNL     1      34.276 -14.612 -22.205  0.00  0.00    +0.004 C 
ATOM     17  C   UNL     1      34.236 -15.464 -23.469  0.00  0.00    +0.022 C 
ATOM     18  C   UNL     1      34.021 -15.471 -20.970  0.00  0.00    +0.022 C 
ATOM     19  C   UNL     1      35.200 -16.640 -23.367  0.00  0.00    +0.094 C 
ATOM     20  C   UNL     1      34.974 -16.665 -20.904  0.00  0.00    +0.094 C 
ATOM     21  C   UNL     1      34.762 -18.808 -22.278  0.00  0.00    +0.249 C 
ENDBRANCH  12  21
ENDBRANCH   1  13
TORSDOF 3
ENDMDL
MODEL 3
REMARK VINA RESULT:     -10.1      2.593      9.141
REMARK  Name = 638024
REMARK  3 active torsions:
REMARK  status: ('A' for Active; 'I' for Inactive)
REMARK    1  A    between atoms: C_1  and  C_13
REMARK    2  A    between atoms: C_2  and  C_6
REMARK    3  A    between atoms: C_12  and  C_21
REMARK                            x       y       z     vdW  Elec       q    Type
REMARK                         _______ _______ _______ _____ _____    ______ ____
ROOT
ATOM      1  C   UNL     1      35.307 -19.885 -21.262  0.00  0.00    +0.000 C 
ATOM      2  C   UNL     1      35.310 -18.562 -21.494  0.00  0.00    +0.000 C 
ENDROOT
BRANCH   2   6
ATOM      3  O   UNL     1      33.701 -14.770 -24.154  0.00  0.00    -0.435 OA
ATOM      4  O   UNL     1      33.766 -16.040 -26.202  0.00  0.00    -0.435 OA
ATOM      5  C   UNL     1      34.131 -16.047 -23.958  0.00  0.00    +0.176 C 
ATOM      6  C   UNL     1      34.908 -17.925 -22.759  0.00  0.00    +0.003 C 
ATOM      7  C   UNL     1      34.168 -16.771 -25.127  0.00  0.00    +0.176 C 
ATOM      8  C   UNL     1      34.497 -16.599 -22.748  0.00  0.00    +0.040 C 
ATOM      9  C   UNL     1      34.950 -18.674 -23.938  0.00  0.00    +0.003 C 
ATOM     10  C   UNL     1      34.574 -18.089 -25.149  0.00  0.00    +0.040 C 
ATOM     11  C   UNL     1      33.472 -14.773 -25.578  0.00  0.00    +0.429 C 
ENDBRANCH   2   6
BRANCH   1  13
ATOM     12  C   UNL     1      35.081 -21.510 -19.467  0.00  0.00    +0.058 C 
ATOM     13  C   UNL     1      35.705 -20.459 -19.995  0.00  0.00    +0.005 C 
BRANCH  12  21
ATOM     14  O   UNL     1      36.695 -21.698 -17.813  0.00  0.00    -0.270 OA
ATOM     15  N   UNL     1      34.705 -22.844 -17.437  0.00  0.00    -0.276 N 
ATOM     16  C   UNL     1      32.762 -23.574 -15.411  0.00  0.00    +0.004 C 
ATOM     17  C   UNL     1      34.153 -23.073 -15.038  0.00  0.00    +0.022 C 
ATOM     18  C   UNL     1      32.330 -23.008 -16.761  0.00  0.00    +0.022 C 
ATOM     19  C   UNL     1      35.157 -23.374 -16.146  0.00  0.00    +0.094 C 
ATOM     20  C   UNL     1      33.366 -23.289 -17.849  0.00  0.00    +0.094 C 
ATOM     21  C   UNL     1      35.562 -22.023 -18.168  0.00  0.00    +0.249 C 
ENDBRANCH  12  21
ENDBRANCH   1  13
TORSDOF 3
ENDMDL
MODEL 4
REMARK VINA RESULT:     -10.0      2.713      8.859
REMARK  Name = 638024
REMARK  3 active torsions:
REMARK  status: ('A' for Active; 'I' for Inactive)
REMARK    1  A    between atoms: C_1  and  C_13
REMARK    2  A    between atoms: C_2  and  C_6
REMARK    3  A    between atoms: C_12  and  C_21
REMARK                            x       y       z     vdW  Elec       q    Type
REMARK                         _______ _______ _______ _____ _____    ______ ____
ROOT
ATOM      1  C   UNL     1      33.376 -20.621 -20.240  0.00  0.00    +0.000 C 
ATOM      2  C   UNL     1      34.497 -19.981 -20.608  0.00  0.00    +0.000 C 
ENDROOT
BRANCH   2   6
ATOM      3  O   UNL     1      34.307 -15.348 -22.206  0.00  0.00    -0.435 OA
ATOM      4  O   UNL     1      34.769 -16.000 -24.480  0.00  0.00    -0.435 OA
ATOM      5  C   UNL     1      34.467 -16.694 -22.336  0.00  0.00    +0.176 C 
ATOM      6  C   UNL     1      34.576 -18.952 -21.659  0.00  0.00    +0.003 C 
ATOM      7  C   UNL     1      34.730 -17.066 -23.634  0.00  0.00    +0.176 C 
ATOM      8  C   UNL     1      34.382 -17.621 -21.317  0.00  0.00    +0.040 C 
ATOM      9  C   UNL     1      34.844 -19.345 -22.973  0.00  0.00    +0.003 C 
ATOM     10  C   UNL     1      34.924 -18.385 -23.985  0.00  0.00    +0.040 C 
ATOM     11  C   UNL     1      34.500 -14.915 -23.568  0.00  0.00    +0.429 C 
ENDBRANCH   2   6
BRANCH   1  13
ATOM     12  C   UNL     1      34.463 -22.040 -18.590  0.00  0.00    +0.058 C 
ATOM     13  C   UNL     1      33.352 -21.620 -19.193  0.00  0.00    +0.005 C 
BRANCH  12  21
ATOM     14  O   UNL     1      33.426 -23.887 -17.646  0.00  0.00    -0.270 OA
ATOM     15  N   UNL     1      35.245 -23.025 -16.479  0.00  0.00    -0.276 N 
ATOM     16  C   UNL     1      37.589 -23.735 -14.924  0.00  0.00    +0.004 C 
ATOM     17  C   UNL     1      36.469 -24.737 -15.182  0.00  0.00    +0.022 C 
ATOM     18  C   UNL     1      37.663 -22.708 -16.051  0.00  0.00    +0.022 C 
ATOM     19  C   UNL     1      35.140 -24.024 -15.411  0.00  0.00    +0.094 C 
ATOM     20  C   UNL     1      36.313 -22.031 -16.288  0.00  0.00    +0.094 C 
ATOM     21  C   UNL     1      34.335 -23.063 -17.533  0.00  0.00    +0.249 C 
ENDBRANCH  12  21
ENDBRANCH   1  13
TORSDOF 3
ENDMDL
MODEL 5
REMARK VINA RESULT:      -9.8      1.978      2.853
REMARK  Name = 638024
REMARK  3 active torsions:
REMARK  status: ('A' for Active; 'I' for Inactive)
REMARK    1  A    between atoms: C_1  and  C_13
REMARK    2  A    between atoms: C_2  and  C_6
REMARK    3  A    between atoms: C_12  and  C_21
REMARK                            x       y       z     vdW  Elec       q    Type
REMARK                         _______ _______ _______ _____ _____    ______ ____
ROOT
ATOM      1  C   UNL     1      33.086 -20.751 -19.696  0.00  0.00    +0.000 C 
ATOM      2  C   UNL     1      33.880 -21.712 -19.197  0.00  0.00    +0.000 C 
ENDROOT
BRANCH   2   6
ATOM      3  O   UNL     1      30.945 -23.730 -15.825  0.00  0.00    -0.435 OA
ATOM      4  O   UNL     1      32.810 -24.467 -14.488  0.00  0.00    -0.435 OA
ATOM      5  C   UNL     1      32.143 -23.387 -16.374  0.00  0.00    +0.176 C 
ATOM      6  C   UNL     1      33.633 -22.444 -17.943  0.00  0.00    +0.003 C 
ATOM      7  C   UNL     1      33.208 -23.808 -15.610  0.00  0.00    +0.176 C 
ATOM      8  C   UNL     1      32.324 -22.697 -17.555  0.00  0.00    +0.040 C 
ATOM      9  C   UNL     1      34.723 -22.865 -17.178  0.00  0.00    +0.003 C 
ATOM     10  C   UNL     1      34.511 -23.561 -15.986  0.00  0.00    +0.040 C 
ATOM     11  C   UNL     1      31.376 -24.413 -14.631  0.00  0.00    +0.429 C 
ENDBRANCH   2   6
BRANCH   1  13
ATOM     12  C   UNL     1      34.501 -19.387 -21.130  0.00  0.00    +0.058 C 
ATOM     13  C   UNL     1      33.371 -20.067 -20.939  0.00  0.00    +0.005 C 
BRANCH  12  21
ATOM     14  O   UNL     1      34.708 -19.434 -23.439  0.00  0.00    -0.270 OA
ATOM     15  N   UNL     1      34.871 -17.340 -22.439  0.00  0.00    -0.276 N 
ATOM     16  C   UNL     1      34.150 -14.544 -22.712  0.00  0.00    +0.004 C 
ATOM     17  C   UNL     1      34.091 -15.503 -23.897  0.00  0.00    +0.022 C 
ATOM     18  C   UNL     1      33.939 -15.295 -21.401  0.00  0.00    +0.022 C 
ATOM     19  C   UNL     1      35.077 -16.653 -23.717  0.00  0.00    +0.094 C 
ATOM     20  C   UNL     1      34.912 -16.465 -21.257  0.00  0.00    +0.094 C 
ATOM     21  C   UNL     1      34.700 -18.723 -22.434  0.00  0.00    +0.249 C 
ENDBRANCH  12  21
ENDBRANCH   1  13
TORSDOF 3
ENDMDL
MODEL 6
REMARK VINA RESULT:      -9.7      2.015      3.197
REMARK  Name = 638024
REMARK  3 active torsions:
REMARK  status: ('A' for Active; 'I' for Inactive)
REMARK    1  A    between atoms: C_1  and  C_13
REMARK    2  A    between atoms: C_2  and  C_6
REMARK    3  A    between atoms: C_12  and  C_21
REMARK                            x       y       z     vdW  Elec       q    Type
REMARK                         _______ _______ _______ _____ _____    ______ ____
ROOT
ATOM      1  C   UNL     1      35.086 -19.172 -22.852  0.00  0.00    +0.000 C 
ATOM      2  C   UNL     1      34.585 -19.094 -21.609  0.00  0.00    +0.000 C 
ENDROOT
BRANCH   2   6
ATOM      3  O   UNL     1      32.515 -22.303 -18.531  0.00  0.00    -0.435 OA
ATOM      4  O   UNL     1      34.652 -23.165 -17.823  0.00  0.00    -0.435 OA
ATOM      5  C   UNL     1      33.556 -21.684 -19.154  0.00  0.00    +0.176 C 
ATOM      6  C   UNL     1      34.640 -20.173 -20.607  0.00  0.00    +0.003 C 
ATOM      7  C   UNL     1      34.775 -22.176 -18.749  0.00  0.00    +0.176 C 
ATOM      8  C   UNL     1      33.453 -20.674 -20.089  0.00  0.00    +0.040 C 
ATOM      9  C   UNL     1      35.885 -20.663 -20.206  0.00  0.00    +0.003 C 
ATOM     10  C   UNL     1      35.959 -21.685 -19.258  0.00  0.00    +0.040 C 
ATOM     11  C   UNL     1      33.217 -23.240 -17.689  0.00  0.00    +0.429 C 
ENDBRANCH   2   6
BRANCH   1  13
ATOM     12  C   UNL     1      34.199 -17.039 -23.614  0.00  0.00    +0.058 C 
ATOM     13  C   UNL     1      35.013 -18.077 -23.796  0.00  0.00    +0.005 C 
BRANCH  12  21
ATOM     14  O   UNL     1      34.224 -16.314 -25.816  0.00  0.00    -0.270 OA
ATOM     15  N   UNL     1      34.169 -14.650 -24.190  0.00  0.00    -0.276 N 
ATOM     16  C   UNL     1      33.039 -12.066 -23.512  0.00  0.00    +0.004 C 
ATOM     17  C   UNL     1      33.022 -12.594 -24.943  0.00  0.00    +0.022 C 
ATOM     18  C   UNL     1      33.043 -13.220 -22.513  0.00  0.00    +0.022 C 
ATOM     19  C   UNL     1      34.171 -13.568 -25.179  0.00  0.00    +0.094 C 
ATOM     20  C   UNL     1      34.181 -14.203 -22.790  0.00  0.00    +0.094 C 
ATOM     21  C   UNL     1      34.196 -15.971 -24.634  0.00  0.00    +0.249 C 
ENDBRANCH  12  21
ENDBRANCH   1  13
TORSDOF 3
ENDMDL
MODEL 7
REMARK VINA RESULT:      -9.7      3.302      4.690
REMARK  Name = 638024
REMARK  3 active torsions:
REMARK  status: ('A' for Active; 'I' for Inactive)
REMARK    1  A    between atoms: C_1  and  C_13
REMARK    2  A    between atoms: C_2  and  C_6
REMARK    3  A    between atoms: C_12  and  C_21
REMARK                            x       y       z     vdW  Elec       q    Type
REMARK                         _______ _______ _______ _____ _____    ______ ____
ROOT
ATOM      1  C   UNL     1      34.539 -16.940 -21.255  0.00  0.00    +0.000 C 
ATOM      2  C   UNL     1      34.006 -18.138 -21.541  0.00  0.00    +0.000 C 
ENDROOT
BRANCH   2   6
ATOM      3  O   UNL     1      32.714 -22.129 -19.000  0.00  0.00    -0.435 OA
ATOM      4  O   UNL     1      34.998 -22.874 -18.802  0.00  0.00    -0.435 OA
ATOM      5  C   UNL     1      33.590 -21.281 -19.607  0.00  0.00    +0.176 C 
ATOM      6  C   UNL     1      34.305 -19.389 -20.822  0.00  0.00    +0.003 C 
ATOM      7  C   UNL     1      34.893 -21.706 -19.494  0.00  0.00    +0.176 C 
ATOM      8  C   UNL     1      33.260 -20.117 -20.270  0.00  0.00    +0.040 C 
ATOM      9  C   UNL     1      35.633 -19.808 -20.715  0.00  0.00    +0.003 C 
ATOM     10  C   UNL     1      35.939 -20.991 -20.038  0.00  0.00    +0.040 C 
ATOM     11  C   UNL     1      33.614 -23.135 -18.493  0.00  0.00    +0.429 C 
ENDBRANCH   2   6
BRANCH   1  13
ATOM     12  C   UNL     1      32.984 -15.207 -21.960  0.00  0.00    +0.058 C 
ATOM     13  C   UNL     1      34.205 -15.738 -21.990  0.00  0.00    +0.005 C 
BRANCH  12  21
ATOM     14  O   UNL     1      32.703 -14.085 -23.969  0.00  0.00    -0.270 OA
ATOM     15  N   UNL     1      32.576 -12.785 -22.044  0.00  0.00    -0.276 N 
ATOM     16  C   UNL     1      31.177 -10.576 -20.789  0.00  0.00    +0.004 C 
ATOM     17  C   UNL     1      31.096 -10.821 -22.292  0.00  0.00    +0.022 C 
ATOM     18  C   UNL     1      31.431 -11.883 -20.044  0.00  0.00    +0.022 C 
ATOM     19  C   UNL     1      32.339 -11.548 -22.795  0.00  0.00    +0.094 C 
ATOM     20  C   UNL     1      32.660 -12.613 -20.586  0.00  0.00    +0.094 C 
ATOM     21  C   UNL     1      32.741 -13.980 -22.743  0.00  0.00    +0.249 C 
ENDBRANCH  12  21
ENDBRANCH   1  13
TORSDOF 3
ENDMDL
MODEL 8
REMARK VINA RESULT:      -9.7      3.321      9.068
REMARK  Name = 638024
REMARK  3 active torsions:
REMARK  status: ('A' for Active; 'I' for Inactive)
REMARK    1  A    between atoms: C_1  and  C_13
REMARK    2  A    between atoms: C_2  and  C_6
REMARK    3  A    between atoms: C_12  and  C_21
REMARK                            x       y       z     vdW  Elec       q    Type
REMARK                         _______ _______ _______ _____ _____    ______ ____
ROOT
ATOM      1  C   UNL     1      33.994 -20.862 -20.023  0.00  0.00    +0.000 C 
ATOM      2  C   UNL     1      35.007 -20.106 -20.475  0.00  0.00    +0.000 C 
ENDROOT
BRANCH   2   6
ATOM      3  O   UNL     1      34.627 -15.527 -22.188  0.00  0.00    -0.435 OA
ATOM      4  O   UNL     1      34.611 -16.272 -24.481  0.00  0.00    -0.435 OA
ATOM      5  C   UNL     1      34.722 -16.881 -22.293  0.00  0.00    +0.176 C 
ATOM      6  C   UNL     1      34.903 -19.117 -21.561  0.00  0.00    +0.003 C 
ATOM      7  C   UNL     1      34.713 -17.306 -23.602  0.00  0.00    +0.176 C 
ATOM      8  C   UNL     1      34.817 -17.769 -21.241  0.00  0.00    +0.040 C 
ATOM      9  C   UNL     1      34.895 -19.564 -22.885  0.00  0.00    +0.003 C 
ATOM     10  C   UNL     1      34.798 -18.643 -23.930  0.00  0.00    +0.040 C 
ATOM     11  C   UNL     1      34.558 -15.148 -23.578  0.00  0.00    +0.429 C 
ENDBRANCH   2   6
BRANCH   1  13
ATOM     12  C   UNL     1      33.105 -22.303 -18.276  0.00  0.00    +0.058 C 
ATOM     13  C   UNL     1      34.148 -21.816 -18.944  0.00  0.00    +0.005 C 
BRANCH  12  21
ATOM     14  O   UNL     1      34.491 -23.766 -17.129  0.00  0.00    -0.270 OA
ATOM     15  N   UNL     1      32.320 -23.564 -16.317  0.00  0.00    -0.276 N 
ATOM     16  C   UNL     1      30.718 -23.430 -13.903  0.00  0.00    +0.004 C 
ATOM     17  C   UNL     1      32.154 -23.944 -13.881  0.00  0.00    +0.022 C 
ATOM     18  C   UNL     1      30.519 -22.439 -15.046  0.00  0.00    +0.022 C 
ATOM     19  C   UNL     1      32.547 -24.526 -15.234  0.00  0.00    +0.094 C 
ATOM     20  C   UNL     1      30.952 -23.029 -16.388  0.00  0.00    +0.094 C 
ATOM     21  C   UNL     1      33.365 -23.272 -17.192  0.00  0.00    +0.249 C 
ENDBRANCH  12  21
ENDBRANCH   1  13
TORSDOF 3
ENDMDL
MODEL 9
REMARK VINA RESULT:      -9.6      3.580      9.527
REMARK  Name = 638024
REMARK  3 active torsions:
REMARK  status: ('A' for Active; 'I' for Inactive)
REMARK    1  A    between atoms: C_1  and  C_13
REMARK    2  A    between atoms: C_2  and  C_6
REMARK    3  A    between atoms: C_12  and  C_21
REMARK                            x       y       z     vdW  Elec       q    Type
REMARK                         _______ _______ _______ _____ _____    ______ ____
ROOT
ATOM      1  C   UNL     1      33.914 -22.618 -17.637  0.00  0.00    +0.000 C 
ATOM      2  C   UNL     1      34.897 -22.087 -18.381  0.00  0.00    +0.000 C 
ENDROOT
BRANCH   2   6
ATOM      3  O   UNL     1      36.509 -18.964 -21.801  0.00  0.00    -0.435 OA
ATOM      4  O   UNL     1      34.281 -18.546 -22.622  0.00  0.00    -0.435 OA
ATOM      5  C   UNL     1      35.565 -19.668 -21.118  0.00  0.00    +0.176 C 
ATOM      6  C   UNL     1      34.698 -21.155 -19.503  0.00  0.00    +0.003 C 
ATOM      7  C   UNL     1      34.293 -19.429 -21.587  0.00  0.00    +0.176 C 
ATOM      8  C   UNL     1      35.802 -20.532 -20.069  0.00  0.00    +0.040 C 
ATOM      9  C   UNL     1      33.401 -20.922 -19.968  0.00  0.00    +0.003 C 
ATOM     10  C   UNL     1      33.189 -20.042 -21.032  0.00  0.00    +0.040 C 
ATOM     11  C   UNL     1      35.688 -18.256 -22.752  0.00  0.00    +0.429 C 
ENDBRANCH   2   6
BRANCH   1  13
ATOM     12  C   UNL     1      34.471 -23.090 -15.316  0.00  0.00    +0.058 C 
ATOM     13  C   UNL     1      34.166 -23.525 -16.537  0.00  0.00    +0.005 C 
BRANCH  12  21
ATOM     14  O   UNL     1      33.730 -24.674 -13.794  0.00  0.00    -0.270 OA
ATOM     15  N   UNL     1      36.028 -24.314 -13.860  0.00  0.00    -0.276 N 
ATOM     16  C   UNL     1      38.614 -25.621 -13.729  0.00  0.00    +0.004 C 
ATOM     17  C   UNL     1      37.343 -26.318 -13.255  0.00  0.00    +0.022 C 
ATOM     18  C   UNL     1      38.294 -24.598 -14.815  0.00  0.00    +0.022 C 
ATOM     19  C   UNL     1      36.296 -25.302 -12.810  0.00  0.00    +0.094 C 
ATOM     20  C   UNL     1      37.218 -23.611 -14.362  0.00  0.00    +0.094 C 
ATOM     21  C   UNL     1      34.711 -24.094 -14.261  0.00  0.00    +0.249 C 
ENDBRANCH  12  21
ENDBRANCH   1  13
TORSDOF 3
ENDMDL
