MODEL 1
REMARK VINA RESULT:      -8.7      0.000      0.000
REMARK  Name = 25295
REMARK  5 active torsions:
REMARK  status: ('A' for Active; 'I' for Inactive)
REMARK    1  A    between atoms: N_1  and  C_8
REMARK    2  A    between atoms: N_1  and  C_14
REMARK    3  A    between atoms: C_8  and  C_9
REMARK    4  A    between atoms: C_9  and  N_10
REMARK    5  A    between atoms: C_14  and  C_16
REMARK                            x       y       z     vdW  Elec       q    Type
REMARK                         _______ _______ _______ _____ _____    ______ ____
ROOT
ATOM      1  N   UNL     1      33.564 -23.127 -16.655  0.00  0.00    -0.291 N 
ATOM      2  N   UNL     1      31.217 -22.816 -16.923  0.00  0.00    -0.229 NA
ATOM      3  C   UNL     1      32.271 -23.091 -16.111  0.00  0.00    +0.132 C 
ATOM      4  C   UNL     1      32.132 -23.341 -14.749  0.00  0.00    +0.034 C 
ATOM      5  C   UNL     1      30.857 -23.309 -14.196  0.00  0.00    +0.004 C 
ATOM      6  C   UNL     1      29.993 -22.792 -16.351  0.00  0.00    +0.100 C 
ATOM      7  C   UNL     1      29.762 -23.030 -15.005  0.00  0.00    +0.021 C 
ENDROOT
BRANCH   1   8
ATOM      8  C   UNL     1      34.719 -22.764 -15.870  0.00  0.00    +0.070 C 
BRANCH   8   9
ATOM      9  C   UNL     1      35.531 -24.012 -15.545  0.00  0.00    -0.056 C 
BRANCH   9  10
ATOM     10  N   UNL     1      36.957 -23.761 -15.755  0.00  0.00    +0.385 N 
ATOM     11  C   UNL     1      37.742 -24.327 -14.658  0.00  0.00    -0.101 C 
ATOM     12  C   UNL     1      37.211 -22.326 -15.880  0.00  0.00    -0.101 C 
ATOM     13  H   UNL     1      37.240 -24.216 -16.623  0.00  0.00    -0.080 HD
ENDBRANCH   9  10
ENDBRANCH   8   9
ENDBRANCH   1   8
BRANCH   1  14
ATOM     14  C   UNL     1      33.761 -23.526 -18.049  0.00  0.00    +0.119 C 
BRANCH  14  16
ATOM     15 CL   UNL     1      35.193 -18.765 -21.412  0.00  0.00    -0.082 Cl
ATOM     16  C   UNL     1      34.120 -22.333 -18.892  0.00  0.00    -0.002 C 
ATOM     17  C   UNL     1      33.111 -21.532 -19.411  0.00  0.00    -0.002 C 
ATOM     18  C   UNL     1      35.455 -22.048 -19.142  0.00  0.00    -0.002 C 
ATOM     19  C   UNL     1      33.443 -20.426 -20.192  0.00  0.00    +0.011 C 
ATOM     20  C   UNL     1      35.788 -20.941 -19.924  0.00  0.00    +0.011 C 
ATOM     21  C   UNL     1      34.781 -20.130 -20.450  0.00  0.00    +0.058 C 
ENDBRANCH  14  16
ENDBRANCH   1  14
TORSDOF 5
ENDMDL
MODEL 2
REMARK VINA RESULT:      -8.4      0.598      1.416
REMARK  Name = 25295
REMARK  5 active torsions:
REMARK  status: ('A' for Active; 'I' for Inactive)
REMARK    1  A    between atoms: N_1  and  C_8
REMARK    2  A    between atoms: N_1  and  C_14
REMARK    3  A    between atoms: C_8  and  C_9
REMARK    4  A    between atoms: C_9  and  N_10
REMARK    5  A    between atoms: C_14  and  C_16
REMARK                            x       y       z     vdW  Elec       q    Type
REMARK                         _______ _______ _______ _____ _____    ______ ____
ROOT
ATOM      1  N   UNL     1      33.381 -23.177 -16.653  0.00  0.00    -0.291 N 
ATOM      2  N   UNL     1      31.057 -22.770 -16.983  0.00  0.00    -0.229 NA
ATOM      3  C   UNL     1      32.076 -23.098 -16.145  0.00  0.00    +0.132 C 
ATOM      4  C   UNL     1      31.888 -23.362 -14.792  0.00  0.00    +0.034 C 
ATOM      5  C   UNL     1      30.600 -23.288 -14.275  0.00  0.00    +0.004 C 
ATOM      6  C   UNL     1      29.818 -22.707 -16.445  0.00  0.00    +0.100 C 
ATOM      7  C   UNL     1      29.539 -22.955 -15.110  0.00  0.00    +0.021 C 
ENDROOT
BRANCH   1   8
ATOM      8  C   UNL     1      34.527 -22.871 -15.830  0.00  0.00    +0.070 C 
BRANCH   8   9
ATOM      9  C   UNL     1      35.284 -24.153 -15.508  0.00  0.00    -0.056 C 
BRANCH   9  10
ATOM     10  N   UNL     1      36.296 -23.904 -14.483  0.00  0.00    +0.385 N 
ATOM     11  C   UNL     1      37.627 -23.830 -15.085  0.00  0.00    -0.101 C 
ATOM     12  C   UNL     1      36.255 -24.947 -13.458  0.00  0.00    -0.101 C 
ATOM     13  H   UNL     1      36.092 -23.007 -14.039  0.00  0.00    -0.080 HD
ENDBRANCH   9  10
ENDBRANCH   8   9
ENDBRANCH   1   8
BRANCH   1  14
ATOM     14  C   UNL     1      33.603 -23.563 -18.047  0.00  0.00    +0.119 C 
BRANCH  14  16
ATOM     15 CL   UNL     1      35.281 -18.808 -21.303  0.00  0.00    -0.082 Cl
ATOM     16  C   UNL     1      34.023 -22.372 -18.862  0.00  0.00    -0.002 C 
ATOM     17  C   UNL     1      35.374 -22.111 -19.048  0.00  0.00    -0.002 C 
ATOM     18  C   UNL     1      33.055 -21.547 -19.420  0.00  0.00    -0.002 C 
ATOM     19  C   UNL     1      35.765 -21.006 -19.804  0.00  0.00    +0.011 C 
ATOM     20  C   UNL     1      33.446 -20.441 -20.176  0.00  0.00    +0.011 C 
ATOM     21  C   UNL     1      34.801 -20.171 -20.368  0.00  0.00    +0.058 C 
ENDBRANCH  14  16
ENDBRANCH   1  14
TORSDOF 5
ENDMDL
MODEL 3
REMARK VINA RESULT:      -7.9     13.229     15.617
REMARK  Name = 25295
REMARK  5 active torsions:
REMARK  status: ('A' for Active; 'I' for Inactive)
REMARK    1  A    between atoms: N_1  and  C_8
REMARK    2  A    between atoms: N_1  and  C_14
REMARK    3  A    between atoms: C_8  and  C_9
REMARK    4  A    between atoms: C_9  and  N_10
REMARK    5  A    between atoms: C_14  and  C_16
REMARK                            x       y       z     vdW  Elec       q    Type
REMARK                         _______ _______ _______ _____ _____    ______ ____
ROOT
ATOM      1  N   UNL     1      33.008  -8.957 -22.561  0.00  0.00    -0.291 N 
ATOM      2  N   UNL     1      32.548  -9.304 -20.249  0.00  0.00    -0.229 NA
ATOM      3  C   UNL     1      32.257  -9.573 -21.549  0.00  0.00    +0.132 C 
ATOM      4  C   UNL     1      31.239 -10.441 -21.933  0.00  0.00    +0.034 C 
ATOM      5  C   UNL     1      30.486 -11.059 -20.941  0.00  0.00    +0.004 C 
ATOM      6  C   UNL     1      31.796  -9.924 -19.312  0.00  0.00    +0.100 C 
ATOM      7  C   UNL     1      30.763 -10.801 -19.603  0.00  0.00    +0.021 C 
ENDROOT
BRANCH   1   8
ATOM      8  C   UNL     1      33.238  -9.608 -23.828  0.00  0.00    +0.070 C 
BRANCH   8   9
ATOM      9  C   UNL     1      34.723  -9.563 -24.166  0.00  0.00    -0.056 C 
BRANCH   9  10
ATOM     10  N   UNL     1      35.110 -10.755 -24.920  0.00  0.00    +0.385 N 
ATOM     11  C   UNL     1      35.623 -10.383 -26.238  0.00  0.00    -0.101 C 
ATOM     12  C   UNL     1      33.975 -11.668 -25.051  0.00  0.00    -0.101 C 
ATOM     13  H   UNL     1      35.852 -11.234 -24.407  0.00  0.00    -0.080 HD
ENDBRANCH   9  10
ENDBRANCH   8   9
ENDBRANCH   1   8
BRANCH   1  14
ATOM     14  C   UNL     1      33.589  -7.632 -22.337  0.00  0.00    +0.119 C 
BRANCH  14  16
ATOM     15 CL   UNL     1      30.431  -3.436 -25.243  0.00  0.00    -0.082 Cl
ATOM     16  C   UNL     1      32.798  -6.581 -23.066  0.00  0.00    -0.002 C 
ATOM     17  C   UNL     1      31.745  -5.945 -22.420  0.00  0.00    -0.002 C 
ATOM     18  C   UNL     1      33.129  -6.259 -24.375  0.00  0.00    -0.002 C 
ATOM     19  C   UNL     1      31.011  -4.971 -23.095  0.00  0.00    +0.011 C 
ATOM     20  C   UNL     1      32.394  -5.283 -25.050  0.00  0.00    +0.011 C 
ATOM     21  C   UNL     1      31.335  -4.640 -24.410  0.00  0.00    +0.058 C 
ENDBRANCH  14  16
ENDBRANCH   1  14
TORSDOF 5
ENDMDL
MODEL 4
REMARK VINA RESULT:      -7.7      1.211      4.326
REMARK  Name = 25295
REMARK  5 active torsions:
REMARK  status: ('A' for Active; 'I' for Inactive)
REMARK    1  A    between atoms: N_1  and  C_8
REMARK    2  A    between atoms: N_1  and  C_14
REMARK    3  A    between atoms: C_8  and  C_9
REMARK    4  A    between atoms: C_9  and  N_10
REMARK    5  A    between atoms: C_14  and  C_16
REMARK                            x       y       z     vdW  Elec       q    Type
REMARK                         _______ _______ _______ _____ _____    ______ ____
ROOT
ATOM      1  N   UNL     1      33.641 -23.419 -16.163  0.00  0.00    -0.291 N 
ATOM      2  N   UNL     1      35.503 -24.869 -15.837  0.00  0.00    -0.229 NA
ATOM      3  C   UNL     1      34.808 -23.762 -15.465  0.00  0.00    +0.132 C 
ATOM      4  C   UNL     1      35.199 -22.942 -14.411  0.00  0.00    +0.034 C 
ATOM      5  C   UNL     1      36.354 -23.269 -13.709  0.00  0.00    +0.004 C 
ATOM      6  C   UNL     1      36.620 -25.157 -15.131  0.00  0.00    +0.100 C 
ATOM      7  C   UNL     1      37.084 -24.396 -14.070  0.00  0.00    +0.021 C 
ENDROOT
BRANCH   1   8
ATOM      8  C   UNL     1      32.548 -22.738 -15.512  0.00  0.00    +0.070 C 
BRANCH   8   9
ATOM      9  C   UNL     1      31.227 -23.363 -15.940  0.00  0.00    -0.056 C 
BRANCH   9  10
ATOM     10  N   UNL     1      30.484 -23.837 -14.772  0.00  0.00    +0.385 N 
ATOM     11  C   UNL     1      31.203 -23.510 -13.541  0.00  0.00    -0.101 C 
ATOM     12  C   UNL     1      30.253 -25.278 -14.863  0.00  0.00    -0.101 C 
ATOM     13  H   UNL     1      29.579 -23.365 -14.753  0.00  0.00    -0.080 HD
ENDBRANCH   9  10
ENDBRANCH   8   9
ENDBRANCH   1   8
BRANCH   1  14
ATOM     14  C   UNL     1      33.508 -23.763 -17.580  0.00  0.00    +0.119 C 
BRANCH  14  16
ATOM     15 CL   UNL     1      35.256 -19.172 -21.030  0.00  0.00    -0.082 Cl
ATOM     16  C   UNL     1      33.946 -22.613 -18.444  0.00  0.00    -0.002 C 
ATOM     17  C   UNL     1      35.298 -22.319 -18.561  0.00  0.00    -0.002 C 
ATOM     18  C   UNL     1      32.993 -21.857 -19.114  0.00  0.00    -0.002 C 
ATOM     19  C   UNL     1      35.705 -21.252 -19.362  0.00  0.00    +0.011 C 
ATOM     20  C   UNL     1      33.400 -20.790 -19.916  0.00  0.00    +0.011 C 
ATOM     21  C   UNL     1      34.756 -20.487 -20.039  0.00  0.00    +0.058 C 
ENDBRANCH  14  16
ENDBRANCH   1  14
TORSDOF 5
ENDMDL
MODEL 5
REMARK VINA RESULT:      -7.7     13.222     15.610
REMARK  Name = 25295
REMARK  5 active torsions:
REMARK  status: ('A' for Active; 'I' for Inactive)
REMARK    1  A    between atoms: N_1  and  C_8
REMARK    2  A    between atoms: N_1  and  C_14
REMARK    3  A    between atoms: C_8  and  C_9
REMARK    4  A    between atoms: C_9  and  N_10
REMARK    5  A    between atoms: C_14  and  C_16
REMARK                            x       y       z     vdW  Elec       q    Type
REMARK                         _______ _______ _______ _____ _____    ______ ____
ROOT
ATOM      1  N   UNL     1      32.961  -8.794 -22.726  0.00  0.00    -0.291 N 
ATOM      2  N   UNL     1      32.493  -9.146 -20.416  0.00  0.00    -0.229 NA
ATOM      3  C   UNL     1      32.263  -9.471 -21.716  0.00  0.00    +0.132 C 
ATOM      4  C   UNL     1      31.359 -10.458 -22.100  0.00  0.00    +0.034 C 
ATOM      5  C   UNL     1      30.659 -11.138 -21.110  0.00  0.00    +0.004 C 
ATOM      6  C   UNL     1      31.795  -9.829 -19.481  0.00  0.00    +0.100 C 
ATOM      7  C   UNL     1      30.876 -10.823 -19.773  0.00  0.00    +0.021 C 
ENDROOT
BRANCH   1   8
ATOM      8  C   UNL     1      33.291  -9.439 -23.974  0.00  0.00    +0.070 C 
BRANCH   8   9
ATOM      9  C   UNL     1      34.776  -9.781 -23.997  0.00  0.00    -0.056 C 
BRANCH   9  10
ATOM     10  N   UNL     1      35.028 -10.891 -24.915  0.00  0.00    +0.385 N 
ATOM     11  C   UNL     1      35.530 -10.392 -26.195  0.00  0.00    -0.101 C 
ATOM     12  C   UNL     1      33.812 -11.678 -25.114  0.00  0.00    -0.101 C 
ATOM     13  H   UNL     1      35.740 -11.496 -24.503  0.00  0.00    -0.080 HD
ENDBRANCH   9  10
ENDBRANCH   8   9
ENDBRANCH   1   8
BRANCH   1  14
ATOM     14  C   UNL     1      33.383  -7.407 -22.520  0.00  0.00    +0.119 C 
BRANCH  14  16
ATOM     15 CL   UNL     1      32.832  -4.268 -27.607  0.00  0.00    -0.082 Cl
ATOM     16  C   UNL     1      33.245  -6.621 -23.795  0.00  0.00    -0.002 C 
ATOM     17  C   UNL     1      32.042  -5.989 -24.084  0.00  0.00    -0.002 C 
ATOM     18  C   UNL     1      34.321  -6.537 -24.668  0.00  0.00    -0.002 C 
ATOM     19  C   UNL     1      31.913  -5.260 -25.265  0.00  0.00    +0.011 C 
ATOM     20  C   UNL     1      34.193  -5.807 -25.851  0.00  0.00    +0.011 C 
ATOM     21  C   UNL     1      32.988  -5.169 -26.149  0.00  0.00    +0.058 C 
ENDBRANCH  14  16
ENDBRANCH   1  14
TORSDOF 5
ENDMDL
MODEL 6
REMARK VINA RESULT:      -7.4      8.731     11.749
REMARK  Name = 25295
REMARK  5 active torsions:
REMARK  status: ('A' for Active; 'I' for Inactive)
REMARK    1  A    between atoms: N_1  and  C_8
REMARK    2  A    between atoms: N_1  and  C_14
REMARK    3  A    between atoms: C_8  and  C_9
REMARK    4  A    between atoms: C_9  and  N_10
REMARK    5  A    between atoms: C_14  and  C_16
REMARK                            x       y       z     vdW  Elec       q    Type
REMARK                         _______ _______ _______ _____ _____    ______ ____
ROOT
ATOM      1  N   UNL     1      33.714 -13.959 -24.000  0.00  0.00    -0.291 N 
ATOM      2  N   UNL     1      33.448 -15.854 -25.419  0.00  0.00    -0.229 NA
ATOM      3  C   UNL     1      34.037 -15.282 -24.336  0.00  0.00    +0.132 C 
ATOM      4  C   UNL     1      34.955 -15.951 -23.532  0.00  0.00    +0.034 C 
ATOM      5  C   UNL     1      35.285 -17.262 -23.853  0.00  0.00    +0.004 C 
ATOM      6  C   UNL     1      33.792 -17.131 -25.700  0.00  0.00    +0.100 C 
ATOM      7  C   UNL     1      34.698 -17.871 -24.956  0.00  0.00    +0.021 C 
ENDROOT
BRANCH   1   8
ATOM      8  C   UNL     1      33.735 -13.505 -22.630  0.00  0.00    +0.070 C 
BRANCH   8   9
ATOM      9  C   UNL     1      32.478 -13.979 -21.913  0.00  0.00    -0.056 C 
BRANCH   9  10
ATOM     10  N   UNL     1      32.828 -14.683 -20.680  0.00  0.00    +0.385 N 
ATOM     11  C   UNL     1      34.281 -14.761 -20.530  0.00  0.00    -0.101 C 
ATOM     12  C   UNL     1      32.240 -16.022 -20.670  0.00  0.00    -0.101 C 
ATOM     13  H   UNL     1      32.450 -14.159 -19.890  0.00  0.00    -0.080 HD
ENDBRANCH   9  10
ENDBRANCH   8   9
ENDBRANCH   1   8
BRANCH   1  14
ATOM     14  C   UNL     1      33.332 -13.010 -25.046  0.00  0.00    +0.119 C 
BRANCH  14  16
ATOM     15 CL   UNL     1      34.941  -7.434 -23.515  0.00  0.00    -0.082 Cl
ATOM     16  C   UNL     1      33.735 -11.613 -24.662  0.00  0.00    -0.002 C 
ATOM     17  C   UNL     1      34.850 -11.034 -25.255  0.00  0.00    -0.002 C 
ATOM     18  C   UNL     1      32.988 -10.919 -23.720  0.00  0.00    -0.002 C 
ATOM     19  C   UNL     1      35.225  -9.739 -24.899  0.00  0.00    +0.011 C 
ATOM     20  C   UNL     1      33.363  -9.622 -23.364  0.00  0.00    +0.011 C 
ATOM     21  C   UNL     1      34.481  -9.033 -23.953  0.00  0.00    +0.058 C 
ENDBRANCH  14  16
ENDBRANCH   1  14
TORSDOF 5
ENDMDL
MODEL 7
REMARK VINA RESULT:      -7.4      3.204      6.230
REMARK  Name = 25295
REMARK  5 active torsions:
REMARK  status: ('A' for Active; 'I' for Inactive)
REMARK    1  A    between atoms: N_1  and  C_8
REMARK    2  A    between atoms: N_1  and  C_14
REMARK    3  A    between atoms: C_8  and  C_9
REMARK    4  A    between atoms: C_9  and  N_10
REMARK    5  A    between atoms: C_14  and  C_16
REMARK                            x       y       z     vdW  Elec       q    Type
REMARK                         _______ _______ _______ _____ _____    ______ ____
ROOT
ATOM      1  N   UNL     1      34.811 -24.208 -14.294  0.00  0.00    -0.291 N 
ATOM      2  N   UNL     1      36.499 -24.527 -12.643  0.00  0.00    -0.229 NA
ATOM      3  C   UNL     1      36.017 -24.795 -13.886  0.00  0.00    +0.132 C 
ATOM      4  C   UNL     1      36.669 -25.632 -14.786  0.00  0.00    +0.034 C 
ATOM      5  C   UNL     1      37.866 -26.222 -14.396  0.00  0.00    +0.004 C 
ATOM      6  C   UNL     1      37.666 -25.117 -12.299  0.00  0.00    +0.100 C 
ATOM      7  C   UNL     1      38.381 -25.965 -13.130  0.00  0.00    +0.021 C 
ENDROOT
BRANCH   1   8
ATOM      8  C   UNL     1      34.561 -23.889 -15.679  0.00  0.00    +0.070 C 
BRANCH   8   9
ATOM      9  C   UNL     1      35.121 -22.509 -15.997  0.00  0.00    -0.056 C 
BRANCH   9  10
ATOM     10  N   UNL     1      36.327 -22.624 -16.817  0.00  0.00    +0.385 N 
ATOM     11  C   UNL     1      37.499 -22.167 -16.071  0.00  0.00    -0.101 C 
ATOM     12  C   UNL     1      36.177 -21.861 -18.055  0.00  0.00    -0.101 C 
ATOM     13  H   UNL     1      36.460 -23.607 -17.057  0.00  0.00    -0.080 HD
ENDBRANCH   9  10
ENDBRANCH   8   9
ENDBRANCH   1   8
BRANCH   1  14
ATOM     14  C   UNL     1      33.779 -23.893 -13.305  0.00  0.00    +0.119 C 
BRANCH  14  16
ATOM     15 CL   UNL     1      28.328 -24.137 -15.806  0.00  0.00    -0.082 Cl
ATOM     16  C   UNL     1      32.413 -23.954 -13.932  0.00  0.00    -0.002 C 
ATOM     17  C   UNL     1      31.740 -25.168 -13.993  0.00  0.00    -0.002 C 
ATOM     18  C   UNL     1      31.841 -22.796 -14.443  0.00  0.00    -0.002 C 
ATOM     19  C   UNL     1      30.474 -25.225 -14.574  0.00  0.00    +0.011 C 
ATOM     20  C   UNL     1      30.574 -22.854 -15.025  0.00  0.00    +0.011 C 
ATOM     21  C   UNL     1      29.891 -24.068 -15.091  0.00  0.00    +0.058 C 
ENDBRANCH  14  16
ENDBRANCH   1  14
TORSDOF 5
ENDMDL
MODEL 8
REMARK VINA RESULT:      -7.3      4.890      7.874
REMARK  Name = 25295
REMARK  5 active torsions:
REMARK  status: ('A' for Active; 'I' for Inactive)
REMARK    1  A    between atoms: N_1  and  C_8
REMARK    2  A    between atoms: N_1  and  C_14
REMARK    3  A    between atoms: C_8  and  C_9
REMARK    4  A    between atoms: C_9  and  N_10
REMARK    5  A    between atoms: C_14  and  C_16
REMARK                            x       y       z     vdW  Elec       q    Type
REMARK                         _______ _______ _______ _____ _____    ______ ____
ROOT
ATOM      1  N   UNL     1      34.946 -18.700 -21.629  0.00  0.00    -0.291 N 
ATOM      2  N   UNL     1      36.231 -19.906 -20.026  0.00  0.00    -0.229 NA
ATOM      3  C   UNL     1      35.073 -19.763 -20.723  0.00  0.00    +0.132 C 
ATOM      4  C   UNL     1      33.994 -20.631 -20.583  0.00  0.00    +0.034 C 
ATOM      5  C   UNL     1      34.106 -21.689 -19.689  0.00  0.00    +0.004 C 
ATOM      6  C   UNL     1      36.304 -20.948 -19.167  0.00  0.00    +0.100 C 
ATOM      7  C   UNL     1      35.280 -21.858 -18.963  0.00  0.00    +0.021 C 
ENDROOT
BRANCH   1   8
ATOM      8  C   UNL     1      34.128 -18.815 -22.812  0.00  0.00    +0.070 C 
BRANCH   8   9
ATOM      9  C   UNL     1      34.990 -19.242 -23.992  0.00  0.00    -0.056 C 
BRANCH   9  10
ATOM     10  N   UNL     1      34.560 -18.559 -25.212  0.00  0.00    +0.385 N 
ATOM     11  C   UNL     1      34.778 -17.117 -25.096  0.00  0.00    -0.101 C 
ATOM     12  C   UNL     1      33.152 -18.844 -25.487  0.00  0.00    -0.101 C 
ATOM     13  H   UNL     1      35.118 -18.908 -25.992  0.00  0.00    -0.080 HD
ENDBRANCH   9  10
ENDBRANCH   8   9
ENDBRANCH   1   8
BRANCH   1  14
ATOM     14  C   UNL     1      35.661 -17.446 -21.390  0.00  0.00    +0.119 C 
BRANCH  14  16
ATOM     15 CL   UNL     1      31.867 -12.798 -21.561  0.00  0.00    -0.082 Cl
ATOM     16  C   UNL     1      34.711 -16.281 -21.433  0.00  0.00    -0.002 C 
ATOM     17  C   UNL     1      33.677 -16.205 -20.509  0.00  0.00    -0.002 C 
ATOM     18  C   UNL     1      34.877 -15.296 -22.397  0.00  0.00    -0.002 C 
ATOM     19  C   UNL     1      32.795 -15.126 -20.549  0.00  0.00    +0.011 C 
ATOM     20  C   UNL     1      33.995 -14.215 -22.437  0.00  0.00    +0.011 C 
ATOM     21  C   UNL     1      32.953 -14.131 -21.513  0.00  0.00    +0.058 C 
ENDBRANCH  14  16
ENDBRANCH   1  14
TORSDOF 5
ENDMDL
MODEL 9
REMARK VINA RESULT:      -7.2      7.877     11.021
REMARK  Name = 25295
REMARK  5 active torsions:
REMARK  status: ('A' for Active; 'I' for Inactive)
REMARK    1  A    between atoms: N_1  and  C_8
REMARK    2  A    between atoms: N_1  and  C_14
REMARK    3  A    between atoms: C_8  and  C_9
REMARK    4  A    between atoms: C_9  and  N_10
REMARK    5  A    between atoms: C_14  and  C_16
REMARK                            x       y       z     vdW  Elec       q    Type
REMARK                         _______ _______ _______ _____ _____    ______ ____
ROOT
ATOM      1  N   UNL     1      33.020 -13.484 -22.614  0.00  0.00    -0.291 N 
ATOM      2  N   UNL     1      32.506 -12.729 -20.413  0.00  0.00    -0.229 NA
ATOM      3  C   UNL     1      32.294 -12.648 -21.753  0.00  0.00    +0.132 C 
ATOM      4  C   UNL     1      31.380 -11.767 -22.322  0.00  0.00    +0.034 C 
ATOM      5  C   UNL     1      30.653 -10.931 -21.482  0.00  0.00    +0.004 C 
ATOM      6  C   UNL     1      31.781 -11.903 -19.627  0.00  0.00    +0.100 C 
ATOM      7  C   UNL     1      30.851 -10.994 -20.107  0.00  0.00    +0.021 C 
ENDROOT
BRANCH   1   8
ATOM      8  C   UNL     1      32.463 -13.942 -23.863  0.00  0.00    +0.070 C 
BRANCH   8   9
ATOM      9  C   UNL     1      33.308 -13.426 -25.022  0.00  0.00    -0.056 C 
BRANCH   9  10
ATOM     10  N   UNL     1      32.862 -14.019 -26.282  0.00  0.00    +0.385 N 
ATOM     11  C   UNL     1      33.142 -15.454 -26.300  0.00  0.00    -0.101 C 
ATOM     12  C   UNL     1      33.507 -13.356 -27.415  0.00  0.00    -0.101 C 
ATOM     13  H   UNL     1      31.853 -13.885 -26.362  0.00  0.00    -0.080 HD
ENDBRANCH   9  10
ENDBRANCH   8   9
ENDBRANCH   1   8
BRANCH   1  14
ATOM     14  C   UNL     1      34.368 -13.921 -22.245  0.00  0.00    +0.119 C 
BRANCH  14  16
ATOM     15 CL   UNL     1      34.609 -19.908 -21.881  0.00  0.00    -0.082 Cl
ATOM     16  C   UNL     1      34.428 -15.421 -22.154  0.00  0.00    -0.002 C 
ATOM     17  C   UNL     1      35.103 -16.141 -23.131  0.00  0.00    -0.002 C 
ATOM     18  C   UNL     1      33.807 -16.068 -21.094  0.00  0.00    -0.002 C 
ATOM     19  C   UNL     1      35.159 -17.531 -23.048  0.00  0.00    +0.011 C 
ATOM     20  C   UNL     1      33.863 -17.460 -21.010  0.00  0.00    +0.011 C 
ATOM     21  C   UNL     1      34.539 -18.192 -21.987  0.00  0.00    +0.058 C 
ENDBRANCH  14  16
ENDBRANCH   1  14
TORSDOF 5
ENDMDL
