MODEL 1
REMARK VINA RESULT:      -9.9      0.000      0.000
REMARK  Name = 51030730
REMARK  6 active torsions:
REMARK  status: ('A' for Active; 'I' for Inactive)
REMARK    1  A    between atoms: N_1  and  C_31
REMARK    2  A    between atoms: C_5  and  C_25
REMARK    3  A    between atoms: C_9  and  C_14
REMARK    4  A    between atoms: C_16  and  S_19
REMARK    5  A    between atoms: S_19  and  N_22
REMARK    6  A    between atoms: C_31  and  C_33
REMARK                            x       y       z     vdW  Elec       q    Type
REMARK                         _______ _______ _______ _____ _____    ______ ____
ROOT
ATOM      1  N   UNL     1      33.548 -15.934 -22.554  0.00  0.00    -0.305 N 
ATOM      2  N   UNL     1      32.901 -13.751 -22.122  0.00  0.00    -0.329 NA
ATOM      3  N   UNL     1      32.674 -12.119 -23.881  0.00  0.00    -0.343 NA
ATOM      4  C   UNL     1      33.349 -14.357 -24.418  0.00  0.00    +0.143 C 
ATOM      5  C   UNL     1      33.727 -15.311 -25.379  0.00  0.00    -0.008 C 
ATOM      6  C   UNL     1      33.261 -14.647 -23.060  0.00  0.00    +0.180 C 
ATOM      7  C   UNL     1      33.036 -13.040 -24.792  0.00  0.00    +0.133 C 
ATOM      8  C   UNL     1      33.796 -14.956 -26.723  0.00  0.00    -0.003 C 
ATOM      9  C   UNL     1      32.625 -12.525 -22.596  0.00  0.00    +0.140 C 
ATOM     10  C   UNL     1      33.113 -12.712 -26.143  0.00  0.00    +0.029 C 
ATOM     11  C   UNL     1      33.489 -13.655 -27.105  0.00  0.00    +0.002 C 
ATOM     12  H   UNL     1      33.524 -16.699 -23.173  0.00  0.00    +0.149 HD
ENDROOT
BRANCH   9  14
ATOM     13  N   UNL     1      31.179 -11.022 -19.512  0.00  0.00    -0.240 NA
ATOM     14  C   UNL     1      32.234 -11.535 -21.626  0.00  0.00    +0.106 C 
ATOM     15  C   UNL     1      32.508 -10.187 -21.826  0.00  0.00    +0.035 C 
ATOM     16  C   UNL     1      32.117  -9.255 -20.871  0.00  0.00    +0.141 C 
ATOM     17  C   UNL     1      31.574 -11.898 -20.463  0.00  0.00    +0.111 C 
ATOM     18  C   UNL     1      31.462  -9.719 -19.742  0.00  0.00    +0.119 C 
BRANCH  16  19
ATOM     19  S   UNL     1      32.443  -7.559 -21.086  0.00  0.00    +0.059 S 
ATOM     20  O   UNL     1      33.517  -7.412 -22.061  0.00  0.00    -0.153 OA
ATOM     21  O   UNL     1      31.179  -6.864 -21.300  0.00  0.00    -0.153 OA
BRANCH  19  22
ATOM     22  N   UNL     1      33.042  -7.137 -19.542  0.00  0.00    -0.203 NA
ATOM     23  H   UNL     1      32.322  -6.634 -19.024  0.00  0.00    +0.144 HD
ATOM     24  H   UNL     1      33.864  -6.541 -19.648  0.00  0.00    +0.144 HD
ENDBRANCH  19  22
ENDBRANCH  16  19
ENDBRANCH   9  14
BRANCH   5  25
ATOM     25  C   UNL     1      34.067 -16.696 -25.094  0.00  0.00    -0.003 C 
ATOM     26  C   UNL     1      33.231 -17.724 -25.530  0.00  0.00    -0.000 C 
ATOM     27  C   UNL     1      35.232 -16.995 -24.387  0.00  0.00    -0.000 C 
ATOM     28  C   UNL     1      33.559 -19.052 -25.258  0.00  0.00    -0.000 C 
ATOM     29  C   UNL     1      35.559 -18.324 -24.115  0.00  0.00    -0.000 C 
ATOM     30  C   UNL     1      34.723 -19.352 -24.550  0.00  0.00    -0.000 C 
ENDBRANCH   5  25
BRANCH   1  31
ATOM     31  C   UNL     1      33.874 -16.173 -21.182  0.00  0.00    +0.135 C 
BRANCH  31  33
ATOM     32  N   UNL     1      35.617 -17.819 -20.781  0.00  0.00    -0.246 NA
ATOM     33  C   UNL     1      34.298 -17.601 -20.983  0.00  0.00    +0.079 C 
ATOM     34  C   UNL     1      33.342 -18.604 -21.013  0.00  0.00    +0.016 C 
ATOM     35  C   UNL     1      33.767 -19.914 -20.825  0.00  0.00    +0.003 C 
ATOM     36  C   UNL     1      35.992 -19.105 -20.601  0.00  0.00    +0.099 C 
ATOM     37  C   UNL     1      35.116 -20.179 -20.614  0.00  0.00    +0.021 C 
ENDBRANCH  31  33
ENDBRANCH   1  31
TORSDOF 6
ENDMDL
MODEL 2
REMARK VINA RESULT:      -8.2      4.012      8.065
REMARK  Name = 51030730
REMARK  6 active torsions:
REMARK  status: ('A' for Active; 'I' for Inactive)
REMARK    1  A    between atoms: N_1  and  C_31
REMARK    2  A    between atoms: C_5  and  C_25
REMARK    3  A    between atoms: C_9  and  C_14
REMARK    4  A    between atoms: C_16  and  S_19
REMARK    5  A    between atoms: S_19  and  N_22
REMARK    6  A    between atoms: C_31  and  C_33
REMARK                            x       y       z     vdW  Elec       q    Type
REMARK                         _______ _______ _______ _____ _____    ______ ____
ROOT
ATOM      1  N   UNL     1      33.378 -10.857 -23.578  0.00  0.00    -0.305 N 
ATOM      2  N   UNL     1      33.108 -12.860 -22.443  0.00  0.00    -0.329 NA
ATOM      3  N   UNL     1      32.066 -12.964 -20.273  0.00  0.00    -0.343 NA
ATOM      4  C   UNL     1      32.304 -10.847 -21.376  0.00  0.00    +0.143 C 
ATOM      5  C   UNL     1      32.110  -9.455 -21.380  0.00  0.00    -0.008 C 
ATOM      6  C   UNL     1      32.912 -11.529 -22.425  0.00  0.00    +0.180 C 
ATOM      7  C   UNL     1      31.885 -11.631 -20.288  0.00  0.00    +0.133 C 
ATOM      8  C   UNL     1      31.495  -8.834 -20.297  0.00  0.00    -0.003 C 
ATOM      9  C   UNL     1      32.668 -13.506 -21.351  0.00  0.00    +0.140 C 
ATOM     10  C   UNL     1      31.272 -10.985 -19.218  0.00  0.00    +0.029 C 
ATOM     11  C   UNL     1      31.076  -9.600 -19.215  0.00  0.00    +0.002 C 
ATOM     12  H   UNL     1      33.017  -9.964 -23.779  0.00  0.00    +0.149 HD
ENDROOT
BRANCH   9  14
ATOM     13  N   UNL     1      32.185 -17.090 -20.467  0.00  0.00    -0.240 NA
ATOM     14  C   UNL     1      32.856 -14.933 -21.329  0.00  0.00    +0.106 C 
ATOM     15  C   UNL     1      33.838 -15.540 -22.104  0.00  0.00    +0.035 C 
ATOM     16  C   UNL     1      33.995 -16.920 -22.061  0.00  0.00    +0.141 C 
ATOM     17  C   UNL     1      32.063 -15.746 -20.535  0.00  0.00    +0.111 C 
ATOM     18  C   UNL     1      33.151 -17.644 -21.234  0.00  0.00    +0.119 C 
BRANCH  16  19
ATOM     19  S   UNL     1      35.213 -17.715 -23.017  0.00  0.00    +0.059 S 
ATOM     20  O   UNL     1      36.338 -18.051 -22.151  0.00  0.00    -0.153 OA
ATOM     21  O   UNL     1      34.578 -18.762 -23.808  0.00  0.00    -0.153 OA
BRANCH  19  22
ATOM     22  N   UNL     1      35.688 -16.452 -24.067  0.00  0.00    -0.203 NA
ATOM     23  H   UNL     1      35.998 -15.651 -23.516  0.00  0.00    +0.144 HD
ATOM     24  H   UNL     1      34.896 -16.178 -24.649  0.00  0.00    +0.144 HD
ENDBRANCH  19  22
ENDBRANCH  16  19
ENDBRANCH   9  14
BRANCH   5  25
ATOM     25  C   UNL     1      32.505  -8.559 -22.455  0.00  0.00    -0.003 C 
ATOM     26  C   UNL     1      31.561  -8.130 -23.389  0.00  0.00    -0.000 C 
ATOM     27  C   UNL     1      33.828  -8.127 -22.550  0.00  0.00    -0.000 C 
ATOM     28  C   UNL     1      31.941  -7.270 -24.418  0.00  0.00    -0.000 C 
ATOM     29  C   UNL     1      34.206  -7.266 -23.581  0.00  0.00    -0.000 C 
ATOM     30  C   UNL     1      33.263  -6.837 -24.515  0.00  0.00    -0.000 C 
ENDBRANCH   5  25
BRANCH   1  31
ATOM     31  C   UNL     1      34.349 -11.419 -24.463  0.00  0.00    +0.135 C 
BRANCH  31  33
ATOM     32  N   UNL     1      33.648 -13.716 -24.835  0.00  0.00    -0.246 NA
ATOM     33  C   UNL     1      33.720 -12.464 -25.341  0.00  0.00    +0.079 C 
ATOM     34  C   UNL     1      33.252 -12.105 -26.595  0.00  0.00    +0.016 C 
ATOM     35  C   UNL     1      32.675 -13.096 -27.382  0.00  0.00    +0.003 C 
ATOM     36  C   UNL     1      33.080 -14.652 -25.629  0.00  0.00    +0.099 C 
ATOM     37  C   UNL     1      32.583 -14.396 -26.897  0.00  0.00    +0.021 C 
ENDBRANCH  31  33
ENDBRANCH   1  31
TORSDOF 6
ENDMDL
MODEL 3
REMARK VINA RESULT:      -7.7      3.909      8.559
REMARK  Name = 51030730
REMARK  6 active torsions:
REMARK  status: ('A' for Active; 'I' for Inactive)
REMARK    1  A    between atoms: N_1  and  C_31
REMARK    2  A    between atoms: C_5  and  C_25
REMARK    3  A    between atoms: C_9  and  C_14
REMARK    4  A    between atoms: C_16  and  S_19
REMARK    5  A    between atoms: S_19  and  N_22
REMARK    6  A    between atoms: C_31  and  C_33
REMARK                            x       y       z     vdW  Elec       q    Type
REMARK                         _______ _______ _______ _____ _____    ______ ____
ROOT
ATOM      1  N   UNL     1      33.297 -10.350 -24.096  0.00  0.00    -0.305 N 
ATOM      2  N   UNL     1      33.589 -12.609 -23.667  0.00  0.00    -0.329 NA
ATOM      3  N   UNL     1      32.791 -13.633 -21.636  0.00  0.00    -0.343 NA
ATOM      4  C   UNL     1      32.446 -11.287 -21.998  0.00  0.00    +0.143 C 
ATOM      5  C   UNL     1      31.941 -10.054 -21.552  0.00  0.00    -0.008 C 
ATOM      6  C   UNL     1      33.098 -11.439 -23.218  0.00  0.00    +0.180 C 
ATOM      7  C   UNL     1      32.312 -12.447 -21.218  0.00  0.00    +0.133 C 
ATOM      8  C   UNL     1      31.298  -9.970 -20.320  0.00  0.00    -0.003 C 
ATOM      9  C   UNL     1      33.404 -13.650 -22.838  0.00  0.00    +0.140 C 
ATOM     10  C   UNL     1      31.664 -12.335 -19.991  0.00  0.00    +0.029 C 
ATOM     11  C   UNL     1      31.160 -11.112 -19.539  0.00  0.00    +0.002 C 
ATOM     12  H   UNL     1      32.727  -9.554 -23.994  0.00  0.00    +0.149 HD
ENDROOT
BRANCH   9  14
ATOM     13  N   UNL     1      34.307 -16.467 -25.097  0.00  0.00    -0.240 NA
ATOM     14  C   UNL     1      33.912 -14.921 -23.280  0.00  0.00    +0.106 C 
ATOM     15  C   UNL     1      34.483 -15.818 -22.384  0.00  0.00    +0.035 C 
ATOM     16  C   UNL     1      34.966 -17.038 -22.842  0.00  0.00    +0.141 C 
ATOM     17  C   UNL     1      33.849 -15.291 -24.614  0.00  0.00    +0.111 C 
ATOM     18  C   UNL     1      34.855 -17.313 -24.195  0.00  0.00    +0.119 C 
BRANCH  16  19
ATOM     19  S   UNL     1      35.687 -18.185 -21.748  0.00  0.00    +0.059 S 
ATOM     20  O   UNL     1      37.006 -18.544 -22.255  0.00  0.00    -0.153 OA
ATOM     21  O   UNL     1      35.552 -17.681 -20.387  0.00  0.00    -0.153 OA
BRANCH  19  22
ATOM     22  N   UNL     1      34.643 -19.526 -21.939  0.00  0.00    -0.203 NA
ATOM     23  H   UNL     1      33.774 -19.221 -22.377  0.00  0.00    +0.144 HD
ATOM     24  H   UNL     1      34.440 -19.930 -21.024  0.00  0.00    +0.144 HD
ENDBRANCH  19  22
ENDBRANCH  16  19
ENDBRANCH   9  14
BRANCH   5  25
ATOM     25  C   UNL     1      32.027  -8.800 -22.283  0.00  0.00    -0.003 C 
ATOM     26  C   UNL     1      33.096  -7.933 -22.057  0.00  0.00    -0.000 C 
ATOM     27  C   UNL     1      31.042  -8.467 -23.212  0.00  0.00    -0.000 C 
ATOM     28  C   UNL     1      33.178  -6.731 -22.760  0.00  0.00    -0.000 C 
ATOM     29  C   UNL     1      31.125  -7.264 -23.914  0.00  0.00    -0.000 C 
ATOM     30  C   UNL     1      32.193  -6.396 -23.688  0.00  0.00    -0.000 C 
ENDBRANCH   5  25
BRANCH   1  31
ATOM     31  C   UNL     1      34.290 -10.355 -25.125  0.00  0.00    +0.135 C 
BRANCH  31  33
ATOM     32  N   UNL     1      32.793 -11.986 -26.127  0.00  0.00    -0.246 NA
ATOM     33  C   UNL     1      34.049 -11.487 -26.083  0.00  0.00    +0.079 C 
ATOM     34  C   UNL     1      35.098 -11.954 -26.860  0.00  0.00    +0.016 C 
ATOM     35  C   UNL     1      34.841 -13.002 -27.736  0.00  0.00    +0.003 C 
ATOM     36  C   UNL     1      32.582 -13.004 -26.992  0.00  0.00    +0.099 C 
ATOM     37  C   UNL     1      33.562 -13.543 -27.811  0.00  0.00    +0.021 C 
ENDBRANCH  31  33
ENDBRANCH   1  31
TORSDOF 6
ENDMDL
MODEL 4
REMARK VINA RESULT:      -7.6      6.510      9.882
REMARK  Name = 51030730
REMARK  6 active torsions:
REMARK  status: ('A' for Active; 'I' for Inactive)
REMARK    1  A    between atoms: N_1  and  C_31
REMARK    2  A    between atoms: C_5  and  C_25
REMARK    3  A    between atoms: C_9  and  C_14
REMARK    4  A    between atoms: C_16  and  S_19
REMARK    5  A    between atoms: S_19  and  N_22
REMARK    6  A    between atoms: C_31  and  C_33
REMARK                            x       y       z     vdW  Elec       q    Type
REMARK                         _______ _______ _______ _____ _____    ______ ____
ROOT
ATOM      1  N   UNL     1      34.342  -7.666 -24.094  0.00  0.00    -0.305 N 
ATOM      2  N   UNL     1      35.037  -6.286 -25.820  0.00  0.00    -0.329 NA
ATOM      3  N   UNL     1      33.670  -4.474 -26.632  0.00  0.00    -0.343 NA
ATOM      4  C   UNL     1      32.871  -5.855 -24.840  0.00  0.00    +0.143 C 
ATOM      5  C   UNL     1      31.868  -6.168 -23.907  0.00  0.00    -0.008 C 
ATOM      6  C   UNL     1      34.062  -6.567 -24.937  0.00  0.00    +0.180 C 
ATOM      7  C   UNL     1      32.716  -4.784 -25.735  0.00  0.00    +0.133 C 
ATOM      8  C   UNL     1      30.698  -5.414 -23.863  0.00  0.00    -0.003 C 
ATOM      9  C   UNL     1      34.779  -5.242 -26.626  0.00  0.00    +0.140 C 
ATOM     10  C   UNL     1      31.537  -4.046 -25.668  0.00  0.00    +0.029 C 
ATOM     11  C   UNL     1      30.533  -4.352 -24.744  0.00  0.00    +0.002 C 
ATOM     12  H   UNL     1      33.842  -7.750 -23.250  0.00  0.00    +0.149 HD
ENDROOT
BRANCH   9  14
ATOM     13  N   UNL     1      36.374  -4.309 -29.857  0.00  0.00    -0.240 NA
ATOM     14  C   UNL     1      35.797  -4.904 -27.586  0.00  0.00    +0.106 C 
ATOM     15  C   UNL     1      37.137  -4.838 -27.220  0.00  0.00    +0.035 C 
ATOM     16  C   UNL     1      38.095  -4.509 -28.171  0.00  0.00    +0.141 C 
ATOM     17  C   UNL     1      35.471  -4.632 -28.905  0.00  0.00    +0.111 C 
ATOM     18  C   UNL     1      37.667  -4.256 -29.463  0.00  0.00    +0.119 C 
BRANCH  16  19
ATOM     19  S   UNL     1      39.782  -4.418 -27.749  0.00  0.00    +0.059 S 
ATOM     20  O   UNL     1      39.911  -3.660 -26.511  0.00  0.00    -0.153 OA
ATOM     21  O   UNL     1      40.359  -5.754 -27.838  0.00  0.00    -0.153 OA
BRANCH  19  22
ATOM     22  N   UNL     1      40.395  -3.474 -29.036  0.00  0.00    -0.203 NA
ATOM     23  H   UNL     1      41.295  -3.076 -28.767  0.00  0.00    +0.144 HD
ATOM     24  H   UNL     1      39.740  -2.721 -29.247  0.00  0.00    +0.144 HD
ENDBRANCH  19  22
ENDBRANCH  16  19
ENDBRANCH   9  14
BRANCH   5  25
ATOM     25  C   UNL     1      31.934  -7.252 -22.940  0.00  0.00    -0.003 C 
ATOM     26  C   UNL     1      32.632  -7.079 -21.745  0.00  0.00    -0.000 C 
ATOM     27  C   UNL     1      31.296  -8.463 -23.207  0.00  0.00    -0.000 C 
ATOM     28  C   UNL     1      32.694  -8.119 -20.818  0.00  0.00    -0.000 C 
ATOM     29  C   UNL     1      31.358  -9.502 -22.279  0.00  0.00    -0.000 C 
ATOM     30  C   UNL     1      32.057  -9.331 -21.084  0.00  0.00    -0.000 C 
ENDBRANCH   5  25
BRANCH   1  31
ATOM     31  C   UNL     1      35.319  -8.660 -24.413  0.00  0.00    +0.135 C 
BRANCH  31  33
ATOM     32  N   UNL     1      34.035 -10.538 -23.559  0.00  0.00    -0.246 NA
ATOM     33  C   UNL     1      34.662  -9.994 -24.627  0.00  0.00    +0.079 C 
ATOM     34  C   UNL     1      34.726 -10.591 -25.876  0.00  0.00    +0.016 C 
ATOM     35  C   UNL     1      34.108 -11.826 -26.039  0.00  0.00    +0.003 C 
ATOM     36  C   UNL     1      33.444 -11.738 -23.757  0.00  0.00    +0.099 C 
ATOM     37  C   UNL     1      33.452 -12.418 -24.965  0.00  0.00    +0.021 C 
ENDBRANCH  31  33
ENDBRANCH   1  31
TORSDOF 6
ENDMDL
MODEL 5
REMARK VINA RESULT:      -7.6      2.942      5.649
REMARK  Name = 51030730
REMARK  6 active torsions:
REMARK  status: ('A' for Active; 'I' for Inactive)
REMARK    1  A    between atoms: N_1  and  C_31
REMARK    2  A    between atoms: C_5  and  C_25
REMARK    3  A    between atoms: C_9  and  C_14
REMARK    4  A    between atoms: C_16  and  S_19
REMARK    5  A    between atoms: S_19  and  N_22
REMARK    6  A    between atoms: C_31  and  C_33
REMARK                            x       y       z     vdW  Elec       q    Type
REMARK                         _______ _______ _______ _____ _____    ______ ____
ROOT
ATOM      1  N   UNL     1      33.515 -12.171 -23.051  0.00  0.00    -0.305 N 
ATOM      2  N   UNL     1      33.179  -9.897 -23.350  0.00  0.00    -0.329 NA
ATOM      3  N   UNL     1      32.100  -8.539 -21.677  0.00  0.00    -0.343 NA
ATOM      4  C   UNL     1      32.407 -10.886 -21.285  0.00  0.00    +0.143 C 
ATOM      5  C   UNL     1      32.247 -12.006 -20.451  0.00  0.00    -0.008 C 
ATOM      6  C   UNL     1      33.015 -10.955 -22.534  0.00  0.00    +0.180 C 
ATOM      7  C   UNL     1      31.952  -9.618 -20.887  0.00  0.00    +0.133 C 
ATOM      8  C   UNL     1      31.629 -11.868 -19.211  0.00  0.00    -0.003 C 
ATOM      9  C   UNL     1      32.706  -8.737 -22.865  0.00  0.00    +0.140 C 
ATOM     10  C   UNL     1      31.339  -9.509 -19.641  0.00  0.00    +0.029 C 
ATOM     11  C   UNL     1      31.175 -10.618 -18.806  0.00  0.00    +0.002 C 
ATOM     12  H   UNL     1      33.706 -12.905 -22.425  0.00  0.00    +0.149 HD
ENDROOT
BRANCH   9  14
ATOM     13  N   UNL     1      34.022  -6.494 -25.528  0.00  0.00    -0.240 NA
ATOM     14  C   UNL     1      32.863  -7.579 -23.705  0.00  0.00    +0.106 C 
ATOM     15  C   UNL     1      32.058  -6.457 -23.539  0.00  0.00    +0.035 C 
ATOM     16  C   UNL     1      32.235  -5.354 -24.366  0.00  0.00    +0.141 C 
ATOM     17  C   UNL     1      33.822  -7.547 -24.705  0.00  0.00    +0.111 C 
ATOM     18  C   UNL     1      33.221  -5.422 -25.337  0.00  0.00    +0.119 C 
BRANCH  16  19
ATOM     19  S   UNL     1      31.246  -3.932 -24.188  0.00  0.00    +0.059 S 
ATOM     20  O   UNL     1      32.108  -2.757 -24.241  0.00  0.00    -0.153 OA
ATOM     21  O   UNL     1      30.113  -4.034 -25.100  0.00  0.00    -0.153 OA
BRANCH  19  22
ATOM     22  N   UNL     1      30.676  -4.123 -22.587  0.00  0.00    -0.203 NA
ATOM     23  H   UNL     1      29.794  -4.636 -22.600  0.00  0.00    +0.144 HD
ATOM     24  H   UNL     1      30.529  -3.204 -22.168  0.00  0.00    +0.144 HD
ENDBRANCH  19  22
ENDBRANCH  16  19
ENDBRANCH   9  14
BRANCH   5  25
ATOM     25  C   UNL     1      32.683 -13.356 -20.770  0.00  0.00    -0.003 C 
ATOM     26  C   UNL     1      31.832 -14.220 -21.458  0.00  0.00    -0.000 C 
ATOM     27  C   UNL     1      33.955 -13.785 -20.389  0.00  0.00    -0.000 C 
ATOM     28  C   UNL     1      32.252 -15.514 -21.764  0.00  0.00    -0.000 C 
ATOM     29  C   UNL     1      34.374 -15.079 -20.696  0.00  0.00    -0.000 C 
ATOM     30  C   UNL     1      33.522 -15.945 -21.384  0.00  0.00    -0.000 C 
ENDBRANCH   5  25
BRANCH   1  31
ATOM     31  C   UNL     1      33.757 -12.380 -24.445  0.00  0.00    +0.135 C 
BRANCH  31  33
ATOM     32  N   UNL     1      34.768 -14.556 -24.059  0.00  0.00    -0.246 NA
ATOM     33  C   UNL     1      33.845 -13.849 -24.749  0.00  0.00    +0.079 C 
ATOM     34  C   UNL     1      32.997 -14.398 -25.698  0.00  0.00    +0.016 C 
ATOM     35  C   UNL     1      33.105 -15.760 -25.956  0.00  0.00    +0.003 C 
ATOM     36  C   UNL     1      34.842 -15.877 -24.336  0.00  0.00    +0.099 C 
ATOM     37  C   UNL     1      34.042 -16.522 -25.266  0.00  0.00    +0.021 C 
ENDBRANCH  31  33
ENDBRANCH   1  31
TORSDOF 6
ENDMDL
MODEL 6
REMARK VINA RESULT:      -7.4      2.487      3.901
REMARK  Name = 51030730
REMARK  6 active torsions:
REMARK  status: ('A' for Active; 'I' for Inactive)
REMARK    1  A    between atoms: N_1  and  C_31
REMARK    2  A    between atoms: C_5  and  C_25
REMARK    3  A    between atoms: C_9  and  C_14
REMARK    4  A    between atoms: C_16  and  S_19
REMARK    5  A    between atoms: S_19  and  N_22
REMARK    6  A    between atoms: C_31  and  C_33
REMARK                            x       y       z     vdW  Elec       q    Type
REMARK                         _______ _______ _______ _____ _____    ______ ____
ROOT
ATOM      1  N   UNL     1      32.543 -12.554 -23.422  0.00  0.00    -0.305 N 
ATOM      2  N   UNL     1      32.633 -10.309 -22.853  0.00  0.00    -0.329 NA
ATOM      3  N   UNL     1      34.011  -8.744 -24.061  0.00  0.00    -0.343 NA
ATOM      4  C   UNL     1      33.978 -11.051 -24.718  0.00  0.00    +0.143 C 
ATOM      5  C   UNL     1      34.425 -12.073 -25.572  0.00  0.00    -0.008 C 
ATOM      6  C   UNL     1      33.075 -11.272 -23.683  0.00  0.00    +0.180 C 
ATOM      7  C   UNL     1      34.432  -9.730 -24.873  0.00  0.00    +0.133 C 
ATOM      8  C   UNL     1      35.331 -11.784 -26.590  0.00  0.00    -0.003 C 
ATOM      9  C   UNL     1      33.134  -9.086 -23.095  0.00  0.00    +0.140 C 
ATOM     10  C   UNL     1      35.336  -9.469 -25.899  0.00  0.00    +0.029 C 
ATOM     11  C   UNL     1      35.787 -10.481 -26.752  0.00  0.00    +0.002 C 
ATOM     12  H   UNL     1      32.572 -13.230 -24.136  0.00  0.00    +0.149 HD
ENDROOT
BRANCH   9  14
ATOM     13  N   UNL     1      32.391  -7.179 -19.986  0.00  0.00    -0.240 NA
ATOM     14  C   UNL     1      32.686  -8.026 -22.232  0.00  0.00    +0.106 C 
ATOM     15  C   UNL     1      32.135  -6.860 -22.751  0.00  0.00    +0.035 C 
ATOM     16  C   UNL     1      31.712  -5.854 -21.891  0.00  0.00    +0.141 C 
ATOM     17  C   UNL     1      32.791  -8.135 -20.854  0.00  0.00    +0.111 C 
ATOM     18  C   UNL     1      31.861  -6.060 -20.529  0.00  0.00    +0.119 C 
BRANCH  16  19
ATOM     19  S   UNL     1      31.018  -4.380 -22.505  0.00  0.00    +0.059 S 
ATOM     20  O   UNL     1      29.777  -4.116 -21.788  0.00  0.00    -0.153 OA
ATOM     21  O   UNL     1      32.056  -3.357 -22.547  0.00  0.00    -0.153 OA
BRANCH  19  22
ATOM     22  N   UNL     1      30.638  -4.836 -24.109  0.00  0.00    -0.203 NA
ATOM     23  H   UNL     1      31.498  -4.911 -24.654  0.00  0.00    +0.144 HD
ATOM     24  H   UNL     1      30.031  -4.131 -24.527  0.00  0.00    +0.144 HD
ENDBRANCH  19  22
ENDBRANCH  16  19
ENDBRANCH   9  14
BRANCH   5  25
ATOM     25  C   UNL     1      34.016 -13.466 -25.496  0.00  0.00    -0.003 C 
ATOM     26  C   UNL     1      33.096 -13.975 -26.413  0.00  0.00    -0.000 C 
ATOM     27  C   UNL     1      34.545 -14.294 -24.506  0.00  0.00    -0.000 C 
ATOM     28  C   UNL     1      32.705 -15.311 -26.339  0.00  0.00    -0.000 C 
ATOM     29  C   UNL     1      34.153 -15.630 -24.433  0.00  0.00    -0.000 C 
ATOM     30  C   UNL     1      33.232 -16.140 -25.350  0.00  0.00    -0.000 C 
ENDBRANCH   5  25
BRANCH   1  31
ATOM     31  C   UNL     1      31.965 -12.912 -22.164  0.00  0.00    +0.135 C 
BRANCH  31  33
ATOM     32  N   UNL     1      32.023 -15.243 -21.479  0.00  0.00    -0.246 NA
ATOM     33  C   UNL     1      32.700 -14.075 -21.559  0.00  0.00    +0.079 C 
ATOM     34  C   UNL     1      34.004 -13.903 -21.124  0.00  0.00    +0.016 C 
ATOM     35  C   UNL     1      34.655 -14.999 -20.569  0.00  0.00    +0.003 C 
ATOM     36  C   UNL     1      32.689 -16.287 -20.935  0.00  0.00    +0.099 C 
ATOM     37  C   UNL     1      33.992 -16.218 -20.469  0.00  0.00    +0.021 C 
ENDBRANCH  31  33
ENDBRANCH   1  31
TORSDOF 6
ENDMDL
MODEL 7
REMARK VINA RESULT:      -7.4      6.898     11.348
REMARK  Name = 51030730
REMARK  6 active torsions:
REMARK  status: ('A' for Active; 'I' for Inactive)
REMARK    1  A    between atoms: N_1  and  C_31
REMARK    2  A    between atoms: C_5  and  C_25
REMARK    3  A    between atoms: C_9  and  C_14
REMARK    4  A    between atoms: C_16  and  S_19
REMARK    5  A    between atoms: S_19  and  N_22
REMARK    6  A    between atoms: C_31  and  C_33
REMARK                            x       y       z     vdW  Elec       q    Type
REMARK                         _______ _______ _______ _____ _____    ______ ____
ROOT
ATOM      1  N   UNL     1      36.753 -22.967 -15.974  0.00  0.00    -0.305 N 
ATOM      2  N   UNL     1      36.355 -21.731 -17.894  0.00  0.00    -0.329 NA
ATOM      3  N   UNL     1      34.157 -21.564 -18.868  0.00  0.00    -0.343 NA
ATOM      4  C   UNL     1      34.479 -22.866 -16.879  0.00  0.00    +0.143 C 
ATOM      5  C   UNL     1      33.947 -23.686 -15.870  0.00  0.00    -0.008 C 
ATOM      6  C   UNL     1      35.824 -22.515 -16.938  0.00  0.00    +0.180 C 
ATOM      7  C   UNL     1      33.659 -22.350 -17.897  0.00  0.00    +0.133 C 
ATOM      8  C   UNL     1      32.591 -24.000 -15.869  0.00  0.00    -0.003 C 
ATOM      9  C   UNL     1      35.478 -21.297 -18.814  0.00  0.00    +0.140 C 
ATOM     10  C   UNL     1      32.306 -22.679 -17.872  0.00  0.00    +0.029 C 
ATOM     11  C   UNL     1      31.770 -23.495 -16.871  0.00  0.00    +0.002 C 
ATOM     12  H   UNL     1      36.414 -23.280 -15.105  0.00  0.00    +0.149 HD
ENDROOT
BRANCH   9  14
ATOM     13  N   UNL     1      37.928 -19.605 -21.048  0.00  0.00    -0.240 NA
ATOM     14  C   UNL     1      36.003 -20.453 -19.855  0.00  0.00    +0.106 C 
ATOM     15  C   UNL     1      35.161 -19.693 -20.658  0.00  0.00    +0.035 C 
ATOM     16  C   UNL     1      35.700 -18.888 -21.655  0.00  0.00    +0.141 C 
ATOM     17  C   UNL     1      37.367 -20.375 -20.089  0.00  0.00    +0.111 C 
ATOM     18  C   UNL     1      37.076 -18.879 -21.808  0.00  0.00    +0.119 C 
BRANCH  16  19
ATOM     19  S   UNL     1      34.676 -17.922 -22.679  0.00  0.00    +0.059 S 
ATOM     20  O   UNL     1      34.220 -18.748 -23.791  0.00  0.00    -0.153 OA
ATOM     21  O   UNL     1      33.697 -17.234 -21.846  0.00  0.00    -0.153 OA
BRANCH  19  22
ATOM     22  N   UNL     1      35.791 -16.770 -23.272  0.00  0.00    -0.203 NA
ATOM     23  H   UNL     1      35.417 -15.832 -23.133  0.00  0.00    +0.144 HD
ATOM     24  H   UNL     1      35.947 -16.930 -24.268  0.00  0.00    +0.144 HD
ENDBRANCH  19  22
ENDBRANCH  16  19
ENDBRANCH   9  14
BRANCH   5  25
ATOM     25  C   UNL     1      34.709 -24.266 -14.775  0.00  0.00    -0.003 C 
ATOM     26  C   UNL     1      34.691 -23.664 -13.517  0.00  0.00    -0.000 C 
ATOM     27  C   UNL     1      35.456 -25.426 -14.984  0.00  0.00    -0.000 C 
ATOM     28  C   UNL     1      35.421 -24.222 -12.467  0.00  0.00    -0.000 C 
ATOM     29  C   UNL     1      36.186 -25.982 -13.934  0.00  0.00    -0.000 C 
ATOM     30  C   UNL     1      36.169 -25.380 -12.675  0.00  0.00    -0.000 C 
ENDBRANCH   5  25
BRANCH   1  31
ATOM     31  C   UNL     1      38.163 -22.990 -16.208  0.00  0.00    +0.135 C 
BRANCH  31  33
ATOM     32  N   UNL     1      38.636 -23.772 -13.956  0.00  0.00    -0.246 NA
ATOM     33  C   UNL     1      38.835 -23.962 -15.280  0.00  0.00    +0.079 C 
ATOM     34  C   UNL     1      39.606 -24.985 -15.810  0.00  0.00    +0.016 C 
ATOM     35  C   UNL     1      40.213 -25.867 -14.924  0.00  0.00    +0.003 C 
ATOM     36  C   UNL     1      39.242 -24.651 -13.126  0.00  0.00    +0.099 C 
ATOM     37  C   UNL     1      40.033 -25.705 -13.554  0.00  0.00    +0.021 C 
ENDBRANCH  31  33
ENDBRANCH   1  31
TORSDOF 6
ENDMDL
MODEL 8
REMARK VINA RESULT:      -7.3      7.603     11.327
REMARK  Name = 51030730
REMARK  6 active torsions:
REMARK  status: ('A' for Active; 'I' for Inactive)
REMARK    1  A    between atoms: N_1  and  C_31
REMARK    2  A    between atoms: C_5  and  C_25
REMARK    3  A    between atoms: C_9  and  C_14
REMARK    4  A    between atoms: C_16  and  S_19
REMARK    5  A    between atoms: S_19  and  N_22
REMARK    6  A    between atoms: C_31  and  C_33
REMARK                            x       y       z     vdW  Elec       q    Type
REMARK                         _______ _______ _______ _____ _____    ______ ____
ROOT
ATOM      1  N   UNL     1      33.845  -6.014 -24.881  0.00  0.00    -0.305 N 
ATOM      2  N   UNL     1      35.374  -5.513 -26.550  0.00  0.00    -0.329 NA
ATOM      3  N   UNL     1      34.917  -3.855 -28.238  0.00  0.00    -0.343 NA
ATOM      4  C   UNL     1      33.277  -4.310 -26.548  0.00  0.00    +0.143 C 
ATOM      5  C   UNL     1      32.017  -4.053 -25.982  0.00  0.00    -0.008 C 
ATOM      6  C   UNL     1      34.162  -5.249 -26.026  0.00  0.00    +0.180 C 
ATOM      7  C   UNL     1      33.712  -3.616 -27.689  0.00  0.00    +0.133 C 
ATOM      8  C   UNL     1      31.179  -3.099 -26.554  0.00  0.00    -0.003 C 
ATOM      9  C   UNL     1      35.682  -4.789 -27.639  0.00  0.00    +0.140 C 
ATOM     10  C   UNL     1      32.855  -2.668 -28.239  0.00  0.00    +0.029 C 
ATOM     11  C   UNL     1      31.599  -2.406 -27.683  0.00  0.00    +0.002 C 
ATOM     12  H   UNL     1      33.140  -5.687 -24.278  0.00  0.00    +0.149 HD
ENDROOT
BRANCH   9  14
ATOM     13  N   UNL     1      38.267  -6.055 -30.000  0.00  0.00    -0.240 NA
ATOM     14  C   UNL     1      36.971  -5.038 -28.231  0.00  0.00    +0.106 C 
ATOM     15  C   UNL     1      38.134  -4.536 -27.657  0.00  0.00    +0.035 C 
ATOM     16  C   UNL     1      39.362  -4.794 -28.253  0.00  0.00    +0.141 C 
ATOM     17  C   UNL     1      37.090  -5.784 -29.392  0.00  0.00    +0.111 C 
ATOM     18  C   UNL     1      39.376  -5.551 -29.413  0.00  0.00    +0.119 C 
BRANCH  16  19
ATOM     19  S   UNL     1      40.839  -4.182 -27.563  0.00  0.00    +0.059 S 
ATOM     20  O   UNL     1      41.665  -5.313 -27.156  0.00  0.00    -0.153 OA
ATOM     21  O   UNL     1      41.392  -3.174 -28.460  0.00  0.00    -0.153 OA
BRANCH  19  22
ATOM     22  N   UNL     1      40.252  -3.400 -26.161  0.00  0.00    -0.203 NA
ATOM     23  H   UNL     1      39.540  -3.982 -25.720  0.00  0.00    +0.144 HD
ATOM     24  H   UNL     1      39.844  -2.501 -26.420  0.00  0.00    +0.144 HD
ENDBRANCH  19  22
ENDBRANCH  16  19
ENDBRANCH   9  14
BRANCH   5  25
ATOM     25  C   UNL     1      31.477  -4.714 -24.805  0.00  0.00    -0.003 C 
ATOM     26  C   UNL     1      30.941  -5.997 -24.910  0.00  0.00    -0.000 C 
ATOM     27  C   UNL     1      31.498  -4.065 -23.571  0.00  0.00    -0.000 C 
ATOM     28  C   UNL     1      30.424  -6.631 -23.780  0.00  0.00    -0.000 C 
ATOM     29  C   UNL     1      30.981  -4.699 -22.441  0.00  0.00    -0.000 C 
ATOM     30  C   UNL     1      30.444  -5.983 -22.545  0.00  0.00    -0.000 C 
ENDBRANCH   5  25
BRANCH   1  31
ATOM     31  C   UNL     1      34.505  -7.241 -24.561  0.00  0.00    +0.135 C 
BRANCH  31  33
ATOM     32  N   UNL     1      33.147  -9.153 -23.923  0.00  0.00    -0.246 NA
ATOM     33  C   UNL     1      33.729  -8.000 -23.522  0.00  0.00    +0.079 C 
ATOM     34  C   UNL     1      33.649  -7.498 -22.233  0.00  0.00    +0.016 C 
ATOM     35  C   UNL     1      32.923  -8.225 -21.296  0.00  0.00    +0.003 C 
ATOM     36  C   UNL     1      32.451  -9.832 -22.984  0.00  0.00    +0.099 C 
ATOM     37  C   UNL     1      32.310  -9.416 -21.670  0.00  0.00    +0.021 C 
ENDBRANCH  31  33
ENDBRANCH   1  31
TORSDOF 6
ENDMDL
