MODEL 1
REMARK VINA RESULT:      -8.9      0.000      0.000
REMARK  Name = 6436061
REMARK  5 active torsions:
REMARK  status: ('A' for Active; 'I' for Inactive)
REMARK    1  A    between atoms: C_1  and  C_4
REMARK    2  A    between atoms: C_2  and  C_13
REMARK    3  A    between atoms: CA_5  and  C_9
REMARK    4  A    between atoms: C_9  and  O_10
REMARK    5  A    between atoms: C_15  and  N_19
REMARK                            x       y       z     vdW  Elec       q    Type
REMARK                         _______ _______ _______ _____ _____    ______ ____
ROOT
ATOM      1  C   UNL     1      34.774 -17.666 -21.092  0.00  0.00    +0.031 C 
ATOM      2  C   UNL     1      34.448 -18.937 -21.428  0.00  0.00    +0.040 C 
ENDROOT
BRANCH   1   4
ATOM      3  N   UNL     1      34.341 -16.731 -23.238  0.00  0.00    -0.408 NA
ATOM      4  C   UNL     1      34.529 -16.495 -21.919  0.00  0.00    +0.113 C 
ATOM      5  CA  UNL     1      34.114 -15.647 -24.014  0.00  0.00    +0.138 C 
ATOM      6  C   UNL     1      34.501 -15.235 -21.344  0.00  0.00    +0.085 C 
ATOM      7  C   UNL     1      34.066 -14.347 -23.538  0.00  0.00    +0.026 C 
ATOM      8  C   UNL     1      34.264 -14.145 -22.176  0.00  0.00    -0.016 C 
BRANCH   5   9
ATOM      9  C   UNL     1      33.907 -15.902 -25.470  0.00  0.00    +0.196 C 
BRANCH   9  10
ATOM     10  O   UNL     1      34.762 -16.959 -25.889  0.00  0.00    -0.375 OA
ATOM     11  H   UNL     1      35.673 -16.632 -25.954  0.00  0.00    +0.211 HD
ENDBRANCH   9  10
ENDBRANCH   5   9
ENDBRANCH   1   4
BRANCH   2  13
ATOM     12  O   UNL     1      33.723 -20.813 -20.070  0.00  0.00    -0.433 OA
ATOM     13  C   UNL     1      34.720 -20.082 -20.611  0.00  0.00    +0.148 C 
ATOM     14  C   UNL     1      35.948 -20.571 -20.276  0.00  0.00    +0.043 C 
ATOM     15  C   UNL     1      34.327 -21.805 -19.367  0.00  0.00    +0.289 C 
ATOM     16  C   UNL     1      35.696 -21.701 -19.462  0.00  0.00    +0.066 C 
BRANCH  15  19
ATOM     17  O   UNL     1      33.800 -23.906 -18.573  0.00  0.00    -0.123 OA
ATOM     18  O   UNL     1      32.354 -22.282 -18.273  0.00  0.00    -0.123 OA
ATOM     19  N   UNL     1      33.466 -22.692 -18.718  0.00  0.00    +0.093 N 
ENDBRANCH  15  19
ENDBRANCH   2  13
TORSDOF 5
ENDMDL
MODEL 2
REMARK VINA RESULT:      -8.9      6.378      8.358
REMARK  Name = 6436061
REMARK  5 active torsions:
REMARK  status: ('A' for Active; 'I' for Inactive)
REMARK    1  A    between atoms: C_1  and  C_4
REMARK    2  A    between atoms: C_2  and  C_13
REMARK    3  A    between atoms: CA_5  and  C_9
REMARK    4  A    between atoms: C_9  and  O_10
REMARK    5  A    between atoms: C_15  and  N_19
REMARK                            x       y       z     vdW  Elec       q    Type
REMARK                         _______ _______ _______ _____ _____    ______ ____
ROOT
ATOM      1  C   UNL     1      32.862 -23.137 -17.409  0.00  0.00    +0.031 C 
ATOM      2  C   UNL     1      32.201 -23.151 -16.226  0.00  0.00    +0.040 C 
ENDROOT
BRANCH   1   4
ATOM      3  N   UNL     1      35.063 -22.888 -16.539  0.00  0.00    -0.408 NA
ATOM      4  C   UNL     1      34.235 -22.697 -17.591  0.00  0.00    +0.113 C 
ATOM      5  CA  UNL     1      36.342 -22.480 -16.699  0.00  0.00    +0.138 C 
ATOM      6  C   UNL     1      34.624 -22.118 -18.789  0.00  0.00    +0.085 C 
ATOM      7  C   UNL     1      36.829 -21.891 -17.855  0.00  0.00    +0.026 C 
ATOM      8  C   UNL     1      35.947 -21.710 -18.915  0.00  0.00    -0.016 C 
BRANCH   5   9
ATOM      9  C   UNL     1      37.259 -22.687 -15.541  0.00  0.00    +0.196 C 
BRANCH   9  10
ATOM     10  O   UNL     1      38.466 -23.286 -15.996  0.00  0.00    -0.375 OA
ATOM     11  H   UNL     1      39.049 -23.454 -15.240  0.00  0.00    +0.211 HD
ENDBRANCH   9  10
ENDBRANCH   5   9
ENDBRANCH   1   4
BRANCH   2  13
ATOM     12  O   UNL     1      29.823 -22.866 -16.616  0.00  0.00    -0.433 OA
ATOM     13  C   UNL     1      30.838 -23.566 -16.070  0.00  0.00    +0.148 C 
ATOM     14  C   UNL     1      30.393 -24.660 -15.387  0.00  0.00    +0.043 C 
ATOM     15  C   UNL     1      28.687 -23.529 -16.277  0.00  0.00    +0.289 C 
ATOM     16  C   UNL     1      28.984 -24.640 -15.521  0.00  0.00    +0.066 C 
BRANCH  15  19
ATOM     17  O   UNL     1      27.237 -22.992 -17.987  0.00  0.00    -0.123 OA
ATOM     18  O   UNL     1      26.686 -22.436 -15.936  0.00  0.00    -0.123 OA
ATOM     19  N   UNL     1      27.499 -22.968 -16.748  0.00  0.00    +0.093 N 
ENDBRANCH  15  19
ENDBRANCH   2  13
TORSDOF 5
ENDMDL
MODEL 3
REMARK VINA RESULT:      -8.7      1.534      7.464
REMARK  Name = 6436061
REMARK  5 active torsions:
REMARK  status: ('A' for Active; 'I' for Inactive)
REMARK    1  A    between atoms: C_1  and  C_4
REMARK    2  A    between atoms: C_2  and  C_13
REMARK    3  A    between atoms: CA_5  and  C_9
REMARK    4  A    between atoms: C_9  and  O_10
REMARK    5  A    between atoms: C_15  and  N_19
REMARK                            x       y       z     vdW  Elec       q    Type
REMARK                         _______ _______ _______ _____ _____    ______ ____
ROOT
ATOM      1  C   UNL     1      34.530 -18.496 -21.600  0.00  0.00    +0.031 C 
ATOM      2  C   UNL     1      34.989 -17.223 -21.523  0.00  0.00    +0.040 C 
ENDROOT
BRANCH   1   4
ATOM      3  N   UNL     1      34.049 -20.397 -20.250  0.00  0.00    -0.408 NA
ATOM      4  C   UNL     1      35.005 -19.603 -20.785  0.00  0.00    +0.113 C 
ATOM      5  CA  UNL     1      34.482 -21.428 -19.490  0.00  0.00    +0.138 C 
ATOM      6  C   UNL     1      36.364 -19.790 -20.596  0.00  0.00    +0.085 C 
ATOM      7  C   UNL     1      35.817 -21.701 -19.240  0.00  0.00    +0.026 C 
ATOM      8  C   UNL     1      36.770 -20.862 -19.807  0.00  0.00    -0.016 C 
BRANCH   5   9
ATOM      9  C   UNL     1      33.431 -22.306 -18.897  0.00  0.00    +0.196 C 
BRANCH   9  10
ATOM     10  O   UNL     1      33.792 -23.668 -19.088  0.00  0.00    -0.375 OA
ATOM     11  H   UNL     1      34.717 -23.720 -19.376  0.00  0.00    +0.211 HD
ENDBRANCH   9  10
ENDBRANCH   5   9
ENDBRANCH   1   4
BRANCH   2  13
ATOM     12  O   UNL     1      34.182 -16.353 -23.639  0.00  0.00    -0.433 OA
ATOM     13  C   UNL     1      34.527 -16.149 -22.351  0.00  0.00    +0.148 C 
ATOM     14  C   UNL     1      34.378 -14.844 -21.984  0.00  0.00    +0.043 C 
ATOM     15  C   UNL     1      33.796 -15.141 -24.118  0.00  0.00    +0.289 C 
ATOM     16  C   UNL     1      33.899 -14.180 -23.139  0.00  0.00    +0.066 C 
BRANCH  15  19
ATOM     17  O   UNL     1      33.747 -16.057 -26.234  0.00  0.00    -0.123 OA
ATOM     18  O   UNL     1      32.670 -14.176 -25.883  0.00  0.00    -0.123 OA
ATOM     19  N   UNL     1      33.392 -15.124 -25.454  0.00  0.00    +0.093 N 
ENDBRANCH  15  19
ENDBRANCH   2  13
TORSDOF 5
ENDMDL
MODEL 4
REMARK VINA RESULT:      -8.7      1.408      2.058
REMARK  Name = 6436061
REMARK  5 active torsions:
REMARK  status: ('A' for Active; 'I' for Inactive)
REMARK    1  A    between atoms: C_1  and  C_4
REMARK    2  A    between atoms: C_2  and  C_13
REMARK    3  A    between atoms: CA_5  and  C_9
REMARK    4  A    between atoms: C_9  and  O_10
REMARK    5  A    between atoms: C_15  and  N_19
REMARK                            x       y       z     vdW  Elec       q    Type
REMARK                         _______ _______ _______ _____ _____    ______ ____
ROOT
ATOM      1  C   UNL     1      35.208 -18.739 -22.087  0.00  0.00    +0.031 C 
ATOM      2  C   UNL     1      34.333 -19.320 -21.230  0.00  0.00    +0.040 C 
ENDROOT
BRANCH   1   4
ATOM      3  N   UNL     1      34.704 -16.446 -22.483  0.00  0.00    -0.408 NA
ATOM      4  C   UNL     1      34.876 -17.675 -23.021  0.00  0.00    +0.113 C 
ATOM      5  CA  UNL     1      34.394 -15.451 -23.345  0.00  0.00    +0.138 C 
ATOM      6  C   UNL     1      34.753 -17.954 -24.373  0.00  0.00    +0.085 C 
ATOM      7  C   UNL     1      34.248 -15.626 -24.711  0.00  0.00    +0.026 C 
ATOM      8  C   UNL     1      34.432 -16.905 -25.227  0.00  0.00    -0.016 C 
BRANCH   5   9
ATOM      9  C   UNL     1      34.201 -14.094 -22.755  0.00  0.00    +0.196 C 
BRANCH   9  10
ATOM     10  O   UNL     1      34.207 -13.124 -23.795  0.00  0.00    -0.375 OA
ATOM     11  H   UNL     1      34.068 -13.564 -24.648  0.00  0.00    +0.211 HD
ENDBRANCH   9  10
ENDBRANCH   5   9
ENDBRANCH   1   4
BRANCH   2  13
ATOM     12  O   UNL     1      33.723 -21.055 -19.648  0.00  0.00    -0.433 OA
ATOM     13  C   UNL     1      34.672 -20.385 -20.333  0.00  0.00    +0.148 C 
ATOM     14  C   UNL     1      35.924 -20.849 -20.056  0.00  0.00    +0.043 C 
ATOM     15  C   UNL     1      34.384 -21.982 -18.905  0.00  0.00    +0.289 C 
ATOM     16  C   UNL     1      35.740 -21.896 -19.121  0.00  0.00    +0.066 C 
BRANCH  15  19
ATOM     17  O   UNL     1      34.102 -23.736 -17.435  0.00  0.00    -0.123 OA
ATOM     18  O   UNL     1      32.330 -22.598 -18.057  0.00  0.00    -0.123 OA
ATOM     19  N   UNL     1      33.580 -22.798 -18.108  0.00  0.00    +0.093 N 
ENDBRANCH  15  19
ENDBRANCH   2  13
TORSDOF 5
ENDMDL
MODEL 5
REMARK VINA RESULT:      -8.6      2.177      3.150
REMARK  Name = 6436061
REMARK  5 active torsions:
REMARK  status: ('A' for Active; 'I' for Inactive)
REMARK    1  A    between atoms: C_1  and  C_4
REMARK    2  A    between atoms: C_2  and  C_13
REMARK    3  A    between atoms: CA_5  and  C_9
REMARK    4  A    between atoms: C_9  and  O_10
REMARK    5  A    between atoms: C_15  and  N_19
REMARK                            x       y       z     vdW  Elec       q    Type
REMARK                         _______ _______ _______ _____ _____    ______ ____
ROOT
ATOM      1  C   UNL     1      34.648 -19.863 -20.767  0.00  0.00    +0.031 C 
ATOM      2  C   UNL     1      33.495 -20.404 -20.304  0.00  0.00    +0.040 C 
ENDROOT
BRANCH   1   4
ATOM      3  N   UNL     1      34.562 -17.550 -21.322  0.00  0.00    -0.408 NA
ATOM      4  C   UNL     1      34.733 -18.815 -21.770  0.00  0.00    +0.113 C 
ATOM      5  CA  UNL     1      34.638 -16.569 -22.249  0.00  0.00    +0.138 C 
ATOM      6  C   UNL     1      34.973 -19.143 -23.095  0.00  0.00    +0.085 C 
ATOM      7  C   UNL     1      34.873 -16.791 -23.596  0.00  0.00    +0.026 C 
ATOM      8  C   UNL     1      35.043 -18.106 -24.019  0.00  0.00    -0.016 C 
BRANCH   5   9
ATOM      9  C   UNL     1      34.449 -15.173 -21.759  0.00  0.00    +0.196 C 
BRANCH   9  10
ATOM     10  O   UNL     1      34.833 -15.096 -20.392  0.00  0.00    -0.375 OA
ATOM     11  H   UNL     1      35.651 -15.601 -20.258  0.00  0.00    +0.211 HD
ENDBRANCH   9  10
ENDBRANCH   5   9
ENDBRANCH   1   4
BRANCH   2  13
ATOM     12  O   UNL     1      32.366 -21.594 -18.516  0.00  0.00    -0.433 OA
ATOM     13  C   UNL     1      33.431 -21.455 -19.332  0.00  0.00    +0.148 C 
ATOM     14  C   UNL     1      34.378 -22.409 -19.100  0.00  0.00    +0.043 C 
ATOM     15  C   UNL     1      32.634 -22.672 -17.734  0.00  0.00    +0.289 C 
ATOM     16  C   UNL     1      33.860 -23.209 -18.054  0.00  0.00    +0.066 C 
BRANCH  15  19
ATOM     17  O   UNL     1      30.456 -22.603 -16.977  0.00  0.00    -0.123 OA
ATOM     18  O   UNL     1      31.943 -23.694 -15.786  0.00  0.00    -0.123 OA
ATOM     19  N   UNL     1      31.647 -23.000 -16.803  0.00  0.00    +0.093 N 
ENDBRANCH  15  19
ENDBRANCH   2  13
TORSDOF 5
ENDMDL
MODEL 6
REMARK VINA RESULT:      -8.5      8.031      9.673
REMARK  Name = 6436061
REMARK  5 active torsions:
REMARK  status: ('A' for Active; 'I' for Inactive)
REMARK    1  A    between atoms: C_1  and  C_4
REMARK    2  A    between atoms: C_2  and  C_13
REMARK    3  A    between atoms: CA_5  and  C_9
REMARK    4  A    between atoms: C_9  and  O_10
REMARK    5  A    between atoms: C_15  and  N_19
REMARK                            x       y       z     vdW  Elec       q    Type
REMARK                         _______ _______ _______ _____ _____    ______ ____
ROOT
ATOM      1  C   UNL     1      33.594 -23.877 -15.175  0.00  0.00    +0.031 C 
ATOM      2  C   UNL     1      32.673 -23.301 -15.986  0.00  0.00    +0.040 C 
ENDROOT
BRANCH   1   4
ATOM      3  N   UNL     1      35.786 -24.748 -14.858  0.00  0.00    -0.408 NA
ATOM      4  C   UNL     1      35.033 -23.717 -15.304  0.00  0.00    +0.113 C 
ATOM      5  CA  UNL     1      37.126 -24.606 -14.972  0.00  0.00    +0.138 C 
ATOM      6  C   UNL     1      35.554 -22.557 -15.854  0.00  0.00    +0.085 C 
ATOM      7  C   UNL     1      37.745 -23.488 -15.507  0.00  0.00    +0.026 C 
ATOM      8  C   UNL     1      36.937 -22.448 -15.955  0.00  0.00    -0.016 C 
BRANCH   5   9
ATOM      9  C   UNL     1      37.961 -25.740 -14.481  0.00  0.00    +0.196 C 
BRANCH   9  10
ATOM     10  O   UNL     1      39.001 -26.001 -15.417  0.00  0.00    -0.375 OA
ATOM     11  H   UNL     1      39.569 -26.710 -15.079  0.00  0.00    +0.211 HD
ENDBRANCH   9  10
ENDBRANCH   5   9
ENDBRANCH   1   4
BRANCH   2  13
ATOM     12  O   UNL     1      30.393 -22.928 -16.728  0.00  0.00    -0.433 OA
ATOM     13  C   UNL     1      31.258 -23.490 -15.859  0.00  0.00    +0.148 C 
ATOM     14  C   UNL     1      30.616 -24.218 -14.901  0.00  0.00    +0.043 C 
ATOM     15  C   UNL     1      29.154 -23.306 -16.319  0.00  0.00    +0.289 C 
ATOM     16  C   UNL     1      29.237 -24.101 -15.199  0.00  0.00    +0.066 C 
BRANCH  15  19
ATOM     17  O   UNL     1      27.785 -21.600 -17.050  0.00  0.00    -0.123 OA
ATOM     18  O   UNL     1      27.443 -23.623 -17.831  0.00  0.00    -0.123 OA
ATOM     19  N   UNL     1      28.094 -22.828 -17.091  0.00  0.00    +0.093 N 
ENDBRANCH  15  19
ENDBRANCH   2  13
TORSDOF 5
ENDMDL
MODEL 7
REMARK VINA RESULT:      -8.5      5.263      7.752
REMARK  Name = 6436061
REMARK  5 active torsions:
REMARK  status: ('A' for Active; 'I' for Inactive)
REMARK    1  A    between atoms: C_1  and  C_4
REMARK    2  A    between atoms: C_2  and  C_13
REMARK    3  A    between atoms: CA_5  and  C_9
REMARK    4  A    between atoms: C_9  and  O_10
REMARK    5  A    between atoms: C_15  and  N_19
REMARK                            x       y       z     vdW  Elec       q    Type
REMARK                         _______ _______ _______ _____ _____    ______ ____
ROOT
ATOM      1  C   UNL     1      32.950 -23.255 -17.196  0.00  0.00    +0.031 C 
ATOM      2  C   UNL     1      32.184 -23.138 -16.084  0.00  0.00    +0.040 C 
ENDROOT
BRANCH   1   4
ATOM      3  N   UNL     1      34.680 -22.285 -18.512  0.00  0.00    -0.408 NA
ATOM      4  C   UNL     1      34.325 -22.799 -17.312  0.00  0.00    +0.113 C 
ATOM      5  CA  UNL     1      35.958 -21.860 -18.629  0.00  0.00    +0.138 C 
ATOM      6  C   UNL     1      35.184 -22.907 -16.230  0.00  0.00    +0.085 C 
ATOM      7  C   UNL     1      36.893 -21.924 -17.609  0.00  0.00    +0.026 C 
ATOM      8  C   UNL     1      36.491 -22.459 -16.390  0.00  0.00    -0.016 C 
BRANCH   5   9
ATOM      9  C   UNL     1      36.354 -21.294 -19.952  0.00  0.00    +0.196 C 
BRANCH   9  10
ATOM     10  O   UNL     1      36.530 -19.888 -19.829  0.00  0.00    -0.375 OA
ATOM     11  H   UNL     1      35.762 -19.431 -20.205  0.00  0.00    +0.211 HD
ENDBRANCH   9  10
ENDBRANCH   5   9
ENDBRANCH   1   4
BRANCH   2  13
ATOM     12  O   UNL     1      29.819 -22.858 -16.545  0.00  0.00    -0.433 OA
ATOM     13  C   UNL     1      30.822 -23.572 -15.995  0.00  0.00    +0.148 C 
ATOM     14  C   UNL     1      30.365 -24.700 -15.379  0.00  0.00    +0.043 C 
ATOM     15  C   UNL     1      28.679 -23.547 -16.277  0.00  0.00    +0.289 C 
ATOM     16  C   UNL     1      28.961 -24.688 -15.561  0.00  0.00    +0.066 C 
BRANCH  15  19
ATOM     17  O   UNL     1      27.253 -23.003 -18.006  0.00  0.00    -0.123 OA
ATOM     18  O   UNL     1      26.685 -22.433 -15.964  0.00  0.00    -0.123 OA
ATOM     19  N   UNL     1      27.502 -22.976 -16.764  0.00  0.00    +0.093 N 
ENDBRANCH  15  19
ENDBRANCH   2  13
TORSDOF 5
ENDMDL
MODEL 8
REMARK VINA RESULT:      -8.4      5.464      8.035
REMARK  Name = 6436061
REMARK  5 active torsions:
REMARK  status: ('A' for Active; 'I' for Inactive)
REMARK    1  A    between atoms: C_1  and  C_4
REMARK    2  A    between atoms: C_2  and  C_13
REMARK    3  A    between atoms: CA_5  and  C_9
REMARK    4  A    between atoms: C_9  and  O_10
REMARK    5  A    between atoms: C_15  and  N_19
REMARK                            x       y       z     vdW  Elec       q    Type
REMARK                         _______ _______ _______ _____ _____    ______ ____
ROOT
ATOM      1  C   UNL     1      33.905 -11.223 -24.558  0.00  0.00    +0.031 C 
ATOM      2  C   UNL     1      33.488 -12.388 -24.005  0.00  0.00    +0.040 C 
ENDROOT
BRANCH   1   4
ATOM      3  N   UNL     1      33.024  -9.787 -22.876  0.00  0.00    -0.408 NA
ATOM      4  C   UNL     1      33.916  -9.936 -23.882  0.00  0.00    +0.113 C 
ATOM      5  CA  UNL     1      33.027  -8.593 -22.243  0.00  0.00    +0.138 C 
ATOM      6  C   UNL     1      34.805  -8.951 -24.282  0.00  0.00    +0.085 C 
ATOM      7  C   UNL     1      33.874  -7.545 -22.566  0.00  0.00    +0.026 C 
ATOM      8  C   UNL     1      34.778  -7.736 -23.606  0.00  0.00    -0.016 C 
BRANCH   5   9
ATOM      9  C   UNL     1      32.043  -8.423 -21.134  0.00  0.00    +0.196 C 
BRANCH   9  10
ATOM     10  O   UNL     1      32.728  -8.459 -19.887  0.00  0.00    -0.375 OA
ATOM     11  H   UNL     1      33.684  -8.505 -20.045  0.00  0.00    +0.211 HD
ENDBRANCH   9  10
ENDBRANCH   5   9
ENDBRANCH   1   4
BRANCH   2  13
ATOM     12  O   UNL     1      34.044 -14.743 -24.176  0.00  0.00    -0.433 OA
ATOM     13  C   UNL     1      33.462 -13.643 -24.695  0.00  0.00    +0.148 C 
ATOM     14  C   UNL     1      32.882 -13.896 -25.903  0.00  0.00    +0.043 C 
ATOM     15  C   UNL     1      33.832 -15.738 -25.077  0.00  0.00    +0.289 C 
ATOM     16  C   UNL     1      33.122 -15.268 -26.157  0.00  0.00    +0.066 C 
BRANCH  15  19
ATOM     17  O   UNL     1      34.567 -17.853 -25.631  0.00  0.00    -0.123 OA
ATOM     18  O   UNL     1      34.629 -17.243 -23.522  0.00  0.00    -0.123 OA
ATOM     19  N   UNL     1      34.359 -16.984 -24.732  0.00  0.00    +0.093 N 
ENDBRANCH  15  19
ENDBRANCH   2  13
TORSDOF 5
ENDMDL
MODEL 9
REMARK VINA RESULT:      -8.4      8.588     10.451
REMARK  Name = 6436061
REMARK  5 active torsions:
REMARK  status: ('A' for Active; 'I' for Inactive)
REMARK    1  A    between atoms: C_1  and  C_4
REMARK    2  A    between atoms: C_2  and  C_13
REMARK    3  A    between atoms: CA_5  and  C_9
REMARK    4  A    between atoms: C_9  and  O_10
REMARK    5  A    between atoms: C_15  and  N_19
REMARK                            x       y       z     vdW  Elec       q    Type
REMARK                         _______ _______ _______ _____ _____    ______ ____
ROOT
ATOM      1  C   UNL     1      34.696 -24.081 -14.512  0.00  0.00    +0.031 C 
ATOM      2  C   UNL     1      35.566 -25.034 -14.927  0.00  0.00    +0.040 C 
ENDROOT
BRANCH   1   4
ATOM      3  N   UNL     1      32.335 -24.323 -14.329  0.00  0.00    -0.408 NA
ATOM      4  C   UNL     1      33.371 -23.863 -15.068  0.00  0.00    +0.113 C 
ATOM      5  CA  UNL     1      31.099 -24.126 -14.840  0.00  0.00    +0.138 C 
ATOM      6  C   UNL     1      33.229 -23.220 -16.287  0.00  0.00    +0.085 C 
ATOM      7  C   UNL     1      30.850 -23.496 -16.049  0.00  0.00    +0.026 C 
ATOM      8  C   UNL     1      31.941 -23.037 -16.780  0.00  0.00    -0.016 C 
BRANCH   5   9
ATOM      9  C   UNL     1      29.954 -24.633 -14.029  0.00  0.00    +0.196 C 
BRANCH   9  10
ATOM     10  O   UNL     1      30.382 -24.844 -12.689  0.00  0.00    -0.375 OA
ATOM     11  H   UNL     1      31.249 -25.278 -12.691  0.00  0.00    +0.211 HD
ENDBRANCH   9  10
ENDBRANCH   5   9
ENDBRANCH   1   4
BRANCH   2  13
ATOM     12  O   UNL     1      37.979 -25.130 -15.158  0.00  0.00    -0.433 OA
ATOM     13  C   UNL     1      36.878 -25.218 -14.383  0.00  0.00    +0.148 C 
ATOM     14  C   UNL     1      37.191 -25.494 -13.085  0.00  0.00    +0.043 C 
ATOM     15  C   UNL     1      39.035 -25.354 -14.333  0.00  0.00    +0.289 C 
ATOM     16  C   UNL     1      38.603 -25.584 -13.047  0.00  0.00    +0.066 C 
BRANCH  15  19
ATOM     17  O   UNL     1      41.172 -24.504 -14.508  0.00  0.00    -0.123 OA
ATOM     18  O   UNL     1      40.550 -26.069 -15.918  0.00  0.00    -0.123 OA
ATOM     19  N   UNL     1      40.292 -25.308 -14.939  0.00  0.00    +0.093 N 
ENDBRANCH  15  19
ENDBRANCH   2  13
TORSDOF 5
ENDMDL
