MODEL 1
REMARK VINA RESULT:      -6.2      0.000      0.000
REMARK  Name = 89034
REMARK  7 active torsions:
REMARK  status: ('A' for Active; 'I' for Inactive)
REMARK    1  A    between atoms: CA_1  and  N_2
REMARK    2  A    between atoms: CA_1  and  C_7
REMARK    3  A    between atoms: CA_1  and  C_10
REMARK    4  A    between atoms: C_7  and  O_8
REMARK    5  A    between atoms: C_10  and  C_11
REMARK    6  A    between atoms: C_11  and  S_12
REMARK    7  A    between atoms: S_12  and  N_14
REMARK                            x       y       z     vdW  Elec       q    Type
REMARK                         _______ _______ _______ _____ _____    ______ ____
ROOT
ATOM      1  CA  UNL     1      38.972 -25.225 -14.321  0.00  0.00    +0.037 C 
ENDROOT
BRANCH   1   2
ATOM      2  N   UNL     1      37.890 -25.814 -15.104  0.00  0.00    +0.389 N 
ATOM      3  H1  UNL     1      38.273 -26.506 -15.748  0.00  0.00    -0.088 HD
ATOM      4  H2  UNL     1      37.417 -25.082 -15.634  0.00  0.00    -0.088 HD
ATOM      5  H3  UNL     1      37.223 -26.265 -14.478  0.00  0.00    -0.088 HD
ENDBRANCH   1   2
BRANCH   1   7
ATOM      6  OXT UNL     1      41.016 -26.505 -13.980  0.00  0.00    -0.253 OA
ATOM      7  C   UNL     1      40.238 -25.946 -14.743  0.00  0.00    +0.293 C 
BRANCH   7   8
ATOM      8  O   UNL     1      40.412 -25.930 -16.090  0.00  0.00    -0.482 OA
ATOM      9  H   UNL     1      41.277 -25.944 -16.450  0.00  0.00    +0.295 HD
ENDBRANCH   7   8
ENDBRANCH   1   7
BRANCH   1  10
ATOM     10  C   UNL     1      38.681 -25.388 -12.823  0.00  0.00    +0.003 C 
BRANCH  10  11
ATOM     11  C   UNL     1      37.227 -25.758 -12.555  0.00  0.00    +0.081 C 
BRANCH  11  12
ATOM     12  S   UNL     1      36.382 -24.462 -11.704  0.00  0.00    -0.012 S 
ATOM     13  O   UNL     1      35.421 -25.094 -10.812  0.00  0.00    -0.156 OA
ATOM     14  C   UNL     1      35.440 -23.688 -13.002  0.00  0.00    +0.097 C 
BRANCH  12  15
ATOM     15  N   UNL     1      37.454 -23.436 -11.266  0.00  0.00    -0.183 NA
ATOM     16  H   UNL     1      37.183 -22.543 -10.951  0.00  0.00    +0.156 HD
ENDBRANCH  12  15
ENDBRANCH  11  12
ENDBRANCH  10  11
ENDBRANCH   1  10
TORSDOF 7
ENDMDL
MODEL 2
REMARK VINA RESULT:      -6.0      2.565      2.883
REMARK  Name = 89034
REMARK  7 active torsions:
REMARK  status: ('A' for Active; 'I' for Inactive)
REMARK    1  A    between atoms: CA_1  and  N_2
REMARK    2  A    between atoms: CA_1  and  C_7
REMARK    3  A    between atoms: CA_1  and  C_10
REMARK    4  A    between atoms: C_7  and  O_8
REMARK    5  A    between atoms: C_10  and  C_11
REMARK    6  A    between atoms: C_11  and  S_12
REMARK    7  A    between atoms: S_12  and  N_14
REMARK                            x       y       z     vdW  Elec       q    Type
REMARK                         _______ _______ _______ _____ _____    ______ ____
ROOT
ATOM      1  CA  UNL     1      37.982 -26.158 -14.458  0.00  0.00    +0.037 C 
ENDROOT
BRANCH   1   2
ATOM      2  N   UNL     1      38.481 -24.944 -15.097  0.00  0.00    +0.389 N 
ATOM      3  H1  UNL     1      38.788 -24.284 -14.383  0.00  0.00    -0.088 HD
ATOM      4  H2  UNL     1      37.736 -24.522 -15.652  0.00  0.00    -0.088 HD
ATOM      5  H3  UNL     1      39.266 -25.177 -15.704  0.00  0.00    -0.088 HD
ENDBRANCH   1   2
BRANCH   1   7
ATOM      6  OXT UNL     1      36.672 -27.299 -16.165  0.00  0.00    -0.253 OA
ATOM      7  C   UNL     1      36.718 -26.539 -15.206  0.00  0.00    +0.293 C 
BRANCH   7   8
ATOM      8  O   UNL     1      35.612 -25.955 -14.675  0.00  0.00    -0.482 OA
ATOM      9  H   UNL     1      35.537 -25.021 -14.661  0.00  0.00    +0.295 HD
ENDBRANCH   7   8
ENDBRANCH   1   7
BRANCH   1  10
ATOM     10  C   UNL     1      37.719 -25.895 -12.969  0.00  0.00    +0.003 C 
BRANCH  10  11
ATOM     11  C   UNL     1      38.185 -24.508 -12.539  0.00  0.00    +0.081 C 
BRANCH  11  12
ATOM     12  S   UNL     1      36.815 -23.459 -12.165  0.00  0.00    -0.012 S 
ATOM     13  O   UNL     1      37.281 -22.479 -11.196  0.00  0.00    -0.156 OA
ATOM     14  C   UNL     1      35.710 -24.550 -11.294  0.00  0.00    +0.097 C 
BRANCH  12  15
ATOM     15  N   UNL     1      36.129 -23.117 -13.510  0.00  0.00    -0.183 NA
ATOM     16  H   UNL     1      36.427 -22.336 -14.030  0.00  0.00    +0.156 HD
ENDBRANCH  12  15
ENDBRANCH  11  12
ENDBRANCH  10  11
ENDBRANCH   1  10
TORSDOF 7
ENDMDL
MODEL 3
REMARK VINA RESULT:      -6.0      1.433      1.433
REMARK  Name = 89034
REMARK  7 active torsions:
REMARK  status: ('A' for Active; 'I' for Inactive)
REMARK    1  A    between atoms: CA_1  and  N_2
REMARK    2  A    between atoms: CA_1  and  C_7
REMARK    3  A    between atoms: CA_1  and  C_10
REMARK    4  A    between atoms: C_7  and  O_8
REMARK    5  A    between atoms: C_10  and  C_11
REMARK    6  A    between atoms: C_11  and  S_12
REMARK    7  A    between atoms: S_12  and  N_14
REMARK                            x       y       z     vdW  Elec       q    Type
REMARK                         _______ _______ _______ _____ _____    ______ ____
ROOT
ATOM      1  CA  UNL     1      38.605 -25.079 -14.537  0.00  0.00    +0.037 C 
ENDROOT
BRANCH   1   2
ATOM      2  N   UNL     1      37.910 -26.188 -15.183  0.00  0.00    +0.389 N 
ATOM      3  H1  UNL     1      37.871 -26.026 -16.189  0.00  0.00    -0.088 HD
ATOM      4  H2  UNL     1      36.962 -26.256 -14.813  0.00  0.00    -0.088 HD
ATOM      5  H3  UNL     1      38.410 -27.057 -14.999  0.00  0.00    -0.088 HD
ENDBRANCH   1   2
BRANCH   1   7
ATOM      6  OXT UNL     1      41.010 -24.810 -14.254  0.00  0.00    -0.253 OA
ATOM      7  C   UNL     1      40.067 -25.219 -14.919  0.00  0.00    +0.293 C 
BRANCH   7   8
ATOM      8  O   UNL     1      40.229 -25.885 -16.092  0.00  0.00    -0.482 OA
ATOM      9  H   UNL     1      40.634 -26.730 -16.099  0.00  0.00    +0.295 HD
ENDBRANCH   7   8
ENDBRANCH   1   7
BRANCH   1  10
ATOM     10  C   UNL     1      38.392 -25.142 -13.018  0.00  0.00    +0.003 C 
BRANCH  10  11
ATOM     11  C   UNL     1      37.056 -25.777 -12.651  0.00  0.00    +0.081 C 
BRANCH  11  12
ATOM     12  S   UNL     1      35.923 -24.573 -12.033  0.00  0.00    -0.012 S 
ATOM     13  O   UNL     1      35.077 -24.172 -13.148  0.00  0.00    -0.156 OA
ATOM     14  C   UNL     1      36.980 -23.186 -11.672  0.00  0.00    +0.097 C 
BRANCH  12  15
ATOM     15  N   UNL     1      35.404 -25.097 -10.672  0.00  0.00    -0.183 NA
ATOM     16  H   UNL     1      34.467 -25.389 -10.582  0.00  0.00    +0.156 HD
ENDBRANCH  12  15
ENDBRANCH  11  12
ENDBRANCH  10  11
ENDBRANCH   1  10
TORSDOF 7
ENDMDL
MODEL 4
REMARK VINA RESULT:      -5.9      2.097      4.738
REMARK  Name = 89034
REMARK  7 active torsions:
REMARK  status: ('A' for Active; 'I' for Inactive)
REMARK    1  A    between atoms: CA_1  and  N_2
REMARK    2  A    between atoms: CA_1  and  C_7
REMARK    3  A    between atoms: CA_1  and  C_10
REMARK    4  A    between atoms: C_7  and  O_8
REMARK    5  A    between atoms: C_10  and  C_11
REMARK    6  A    between atoms: C_11  and  S_12
REMARK    7  A    between atoms: S_12  and  N_14
REMARK                            x       y       z     vdW  Elec       q    Type
REMARK                         _______ _______ _______ _____ _____    ______ ____
ROOT
ATOM      1  CA  UNL     1      36.697 -23.428 -11.924  0.00  0.00    +0.037 C 
ENDROOT
BRANCH   1   2
ATOM      2  N   UNL     1      38.078 -23.673 -11.518  0.00  0.00    +0.389 N 
ATOM      3  H1  UNL     1      38.581 -24.129 -12.279  0.00  0.00    -0.088 HD
ATOM      4  H2  UNL     1      38.088 -24.275 -10.695  0.00  0.00    -0.088 HD
ATOM      5  H3  UNL     1      38.529 -22.786 -11.296  0.00  0.00    -0.088 HD
ENDBRANCH   1   2
BRANCH   1   7
ATOM      6  OXT UNL     1      35.943 -24.241  -9.755  0.00  0.00    -0.253 OA
ATOM      7  C   UNL     1      35.830 -24.233 -10.974  0.00  0.00    +0.293 C 
BRANCH   7   8
ATOM      8  O   UNL     1      34.876 -24.945 -11.629  0.00  0.00    -0.482 OA
ATOM      9  H   UNL     1      34.434 -24.568 -12.365  0.00  0.00    +0.295 HD
ENDBRANCH   7   8
ENDBRANCH   1   7
BRANCH   1  10
ATOM     10  C   UNL     1      36.500 -23.846 -13.387  0.00  0.00    +0.003 C 
BRANCH  10  11
ATOM     11  C   UNL     1      37.762 -24.458 -13.985  0.00  0.00    +0.081 C 
BRANCH  11  12
ATOM     12  S   UNL     1      37.625 -26.214 -14.109  0.00  0.00    -0.012 S 
ATOM     13  O   UNL     1      38.878 -26.700 -14.668  0.00  0.00    -0.156 OA
ATOM     14  C   UNL     1      36.389 -26.425 -15.372  0.00  0.00    +0.097 C 
BRANCH  12  15
ATOM     15  N   UNL     1      36.995 -26.712 -12.786  0.00  0.00    -0.183 NA
ATOM     16  H   UNL     1      37.324 -27.538 -12.363  0.00  0.00    +0.156 HD
ENDBRANCH  12  15
ENDBRANCH  11  12
ENDBRANCH  10  11
ENDBRANCH   1  10
TORSDOF 7
ENDMDL
MODEL 5
REMARK VINA RESULT:      -5.7      2.096      4.946
REMARK  Name = 89034
REMARK  7 active torsions:
REMARK  status: ('A' for Active; 'I' for Inactive)
REMARK    1  A    between atoms: CA_1  and  N_2
REMARK    2  A    between atoms: CA_1  and  C_7
REMARK    3  A    between atoms: CA_1  and  C_10
REMARK    4  A    between atoms: C_7  and  O_8
REMARK    5  A    between atoms: C_10  and  C_11
REMARK    6  A    between atoms: C_11  and  S_12
REMARK    7  A    between atoms: S_12  and  N_14
REMARK                            x       y       z     vdW  Elec       q    Type
REMARK                         _______ _______ _______ _____ _____    ______ ____
ROOT
ATOM      1  CA  UNL     1      36.647 -23.409 -12.063  0.00  0.00    +0.037 C 
ENDROOT
BRANCH   1   2
ATOM      2  N   UNL     1      38.052 -23.507 -11.675  0.00  0.00    +0.389 N 
ATOM      3  H1  UNL     1      38.556 -24.069 -12.360  0.00  0.00    -0.088 HD
ATOM      4  H2  UNL     1      38.121 -23.947 -10.758  0.00  0.00    -0.088 HD
ATOM      5  H3  UNL     1      38.460 -22.573 -11.636  0.00  0.00    -0.088 HD
ENDBRANCH   1   2
BRANCH   1   7
ATOM      6  OXT UNL     1      34.958 -24.994 -11.310  0.00  0.00    -0.253 OA
ATOM      7  C   UNL     1      35.872 -24.225 -11.045  0.00  0.00    +0.293 C 
BRANCH   7   8
ATOM      8  O   UNL     1      36.325 -24.029  -9.779  0.00  0.00    -0.482 OA
ATOM      9  H   UNL     1      36.990 -23.389  -9.613  0.00  0.00    +0.295 HD
ENDBRANCH   7   8
ENDBRANCH   1   7
BRANCH   1  10
ATOM     10  C   UNL     1      36.462 -23.934 -13.492  0.00  0.00    +0.003 C 
BRANCH  10  11
ATOM     11  C   UNL     1      37.783 -24.029 -14.247  0.00  0.00    +0.081 C 
BRANCH  11  12
ATOM     12  S   UNL     1      38.311 -25.706 -14.405  0.00  0.00    -0.012 S 
ATOM     13  O   UNL     1      38.349 -26.269 -13.063  0.00  0.00    -0.156 OA
ATOM     14  C   UNL     1      40.003 -25.538 -14.934  0.00  0.00    +0.097 C 
BRANCH  12  15
ATOM     15  N   UNL     1      37.534 -26.314 -15.597  0.00  0.00    -0.183 NA
ATOM     16  H   UNL     1      37.819 -27.173 -15.985  0.00  0.00    +0.156 HD
ENDBRANCH  12  15
ENDBRANCH  11  12
ENDBRANCH  10  11
ENDBRANCH   1  10
TORSDOF 7
ENDMDL
MODEL 6
REMARK VINA RESULT:      -5.5      2.125      2.207
REMARK  Name = 89034
REMARK  7 active torsions:
REMARK  status: ('A' for Active; 'I' for Inactive)
REMARK    1  A    between atoms: CA_1  and  N_2
REMARK    2  A    between atoms: CA_1  and  C_7
REMARK    3  A    between atoms: CA_1  and  C_10
REMARK    4  A    between atoms: C_7  and  O_8
REMARK    5  A    between atoms: C_10  and  C_11
REMARK    6  A    between atoms: C_11  and  S_12
REMARK    7  A    between atoms: S_12  and  N_14
REMARK                            x       y       z     vdW  Elec       q    Type
REMARK                         _______ _______ _______ _____ _____    ______ ____
ROOT
ATOM      1  CA  UNL     1      38.561 -25.119 -14.596  0.00  0.00    +0.037 C 
ENDROOT
BRANCH   1   2
ATOM      2  N   UNL     1      37.904 -23.977 -15.226  0.00  0.00    +0.389 N 
ATOM      3  H1  UNL     1      38.276 -23.112 -14.836  0.00  0.00    -0.088 HD
ATOM      4  H2  UNL     1      36.900 -24.024 -15.051  0.00  0.00    -0.088 HD
ATOM      5  H3  UNL     1      38.075 -23.998 -16.231  0.00  0.00    -0.088 HD
ENDBRANCH   1   2
BRANCH   1   7
ATOM      6  OXT UNL     1      38.123 -27.503 -14.834  0.00  0.00    -0.253 OA
ATOM      7  C   UNL     1      37.775 -26.344 -15.023  0.00  0.00    +0.293 C 
BRANCH   7   8
ATOM      8  O   UNL     1      36.604 -26.017 -15.629  0.00  0.00    -0.482 OA
ATOM      9  H   UNL     1      35.981 -25.476 -15.184  0.00  0.00    +0.295 HD
ENDBRANCH   7   8
ENDBRANCH   1   7
BRANCH   1  10
ATOM     10  C   UNL     1      38.575 -24.938 -13.072  0.00  0.00    +0.003 C 
BRANCH  10  11
ATOM     11  C   UNL     1      37.410 -25.653 -12.397  0.00  0.00    +0.081 C 
BRANCH  11  12
ATOM     12  S   UNL     1      36.082 -24.538 -12.062  0.00  0.00    -0.012 S 
ATOM     13  O   UNL     1      35.386 -24.315 -13.321  0.00  0.00    -0.156 OA
ATOM     14  C   UNL     1      36.930 -23.022 -11.674  0.00  0.00    +0.097 C 
BRANCH  12  15
ATOM     15  N   UNL     1      35.411 -25.017 -10.752  0.00  0.00    -0.183 NA
ATOM     16  H   UNL     1      34.845 -25.823 -10.755  0.00  0.00    +0.156 HD
ENDBRANCH  12  15
ENDBRANCH  11  12
ENDBRANCH  10  11
ENDBRANCH   1  10
TORSDOF 7
ENDMDL
MODEL 7
REMARK VINA RESULT:      -5.4      2.296      2.411
REMARK  Name = 89034
REMARK  7 active torsions:
REMARK  status: ('A' for Active; 'I' for Inactive)
REMARK    1  A    between atoms: CA_1  and  N_2
REMARK    2  A    between atoms: CA_1  and  C_7
REMARK    3  A    between atoms: CA_1  and  C_10
REMARK    4  A    between atoms: C_7  and  O_8
REMARK    5  A    between atoms: C_10  and  C_11
REMARK    6  A    between atoms: C_11  and  S_12
REMARK    7  A    between atoms: S_12  and  N_14
REMARK                            x       y       z     vdW  Elec       q    Type
REMARK                         _______ _______ _______ _____ _____    ______ ____
ROOT
ATOM      1  CA  UNL     1      38.812 -26.173 -14.380  0.00  0.00    +0.037 C 
ENDROOT
BRANCH   1   2
ATOM      2  N   UNL     1      38.787 -25.975 -12.934  0.00  0.00    +0.389 N 
ATOM      3  H1  UNL     1      38.322 -26.767 -12.490  0.00  0.00    -0.088 HD
ATOM      4  H2  UNL     1      38.279 -25.118 -12.717  0.00  0.00    -0.088 HD
ATOM      5  H3  UNL     1      39.742 -25.903 -12.584  0.00  0.00    -0.088 HD
ENDBRANCH   1   2
BRANCH   1   7
ATOM      6  OXT UNL     1      40.778 -24.743 -14.226  0.00  0.00    -0.253 OA
ATOM      7  C   UNL     1      40.094 -25.527 -14.871  0.00  0.00    +0.293 C 
BRANCH   7   8
ATOM      8  O   UNL     1      40.428 -25.936 -16.123  0.00  0.00    -0.482 OA
ATOM      9  H   UNL     1      41.242 -25.667 -16.502  0.00  0.00    +0.295 HD
ENDBRANCH   7   8
ENDBRANCH   1   7
BRANCH   1  10
ATOM     10  C   UNL     1      37.564 -25.545 -15.015  0.00  0.00    +0.003 C 
BRANCH  10  11
ATOM     11  C   UNL     1      36.519 -25.162 -13.974  0.00  0.00    +0.081 C 
BRANCH  11  12
ATOM     12  S   UNL     1      36.425 -23.410 -13.775  0.00  0.00    -0.012 S 
ATOM     13  O   UNL     1      37.624 -22.848 -14.379  0.00  0.00    -0.156 OA
ATOM     14  C   UNL     1      36.598 -23.204 -12.015  0.00  0.00    +0.097 C 
BRANCH  12  15
ATOM     15  N   UNL     1      34.977 -22.993 -14.128  0.00  0.00    -0.183 NA
ATOM     16  H   UNL     1      34.771 -22.645 -15.026  0.00  0.00    +0.156 HD
ENDBRANCH  12  15
ENDBRANCH  11  12
ENDBRANCH  10  11
ENDBRANCH   1  10
TORSDOF 7
ENDMDL
MODEL 8
REMARK VINA RESULT:      -5.4      2.547      2.631
REMARK  Name = 89034
REMARK  7 active torsions:
REMARK  status: ('A' for Active; 'I' for Inactive)
REMARK    1  A    between atoms: CA_1  and  N_2
REMARK    2  A    between atoms: CA_1  and  C_7
REMARK    3  A    between atoms: CA_1  and  C_10
REMARK    4  A    between atoms: C_7  and  O_8
REMARK    5  A    between atoms: C_10  and  C_11
REMARK    6  A    between atoms: C_11  and  S_12
REMARK    7  A    between atoms: S_12  and  N_14
REMARK                            x       y       z     vdW  Elec       q    Type
REMARK                         _______ _______ _______ _____ _____    ______ ____
ROOT
ATOM      1  CA  UNL     1      38.739 -25.574 -14.586  0.00  0.00    +0.037 C 
ENDROOT
BRANCH   1   2
ATOM      2  N   UNL     1      38.701 -26.037 -13.202  0.00  0.00    +0.389 N 
ATOM      3  H1  UNL     1      39.593 -26.472 -12.964  0.00  0.00    -0.088 HD
ATOM      4  H2  UNL     1      37.951 -26.720 -13.093  0.00  0.00    -0.088 HD
ATOM      5  H3  UNL     1      38.533 -25.246 -12.582  0.00  0.00    -0.088 HD
ENDBRANCH   1   2
BRANCH   1   7
ATOM      6  OXT UNL     1      40.991 -24.709 -14.253  0.00  0.00    -0.253 OA
ATOM      7  C   UNL     1      40.204 -25.367 -14.920  0.00  0.00    +0.293 C 
BRANCH   7   8
ATOM      8  O   UNL     1      40.570 -26.026 -16.052  0.00  0.00    -0.482 OA
ATOM      9  H   UNL     1      39.914 -26.395 -16.611  0.00  0.00    +0.295 HD
ENDBRANCH   7   8
ENDBRANCH   1   7
BRANCH   1  10
ATOM     10  C   UNL     1      37.923 -24.282 -14.727  0.00  0.00    +0.003 C 
BRANCH  10  11
ATOM     11  C   UNL     1      36.733 -24.246 -13.775  0.00  0.00    +0.081 C 
BRANCH  11  12
ATOM     12  S   UNL     1      35.219 -24.555 -14.630  0.00  0.00    -0.012 S 
ATOM     13  O   UNL     1      35.505 -25.545 -15.658  0.00  0.00    -0.156 OA
ATOM     14  C   UNL     1      34.923 -23.016 -15.474  0.00  0.00    +0.097 C 
BRANCH  12  15
ATOM     15  N   UNL     1      34.113 -24.689 -13.555  0.00  0.00    -0.183 NA
ATOM     16  H   UNL     1      33.766 -23.886 -13.103  0.00  0.00    +0.156 HD
ENDBRANCH  12  15
ENDBRANCH  11  12
ENDBRANCH  10  11
ENDBRANCH   1  10
TORSDOF 7
ENDMDL
MODEL 9
REMARK VINA RESULT:      -5.3      2.938      4.014
REMARK  Name = 89034
REMARK  7 active torsions:
REMARK  status: ('A' for Active; 'I' for Inactive)
REMARK    1  A    between atoms: CA_1  and  N_2
REMARK    2  A    between atoms: CA_1  and  C_7
REMARK    3  A    between atoms: CA_1  and  C_10
REMARK    4  A    between atoms: C_7  and  O_8
REMARK    5  A    between atoms: C_10  and  C_11
REMARK    6  A    between atoms: C_11  and  S_12
REMARK    7  A    between atoms: S_12  and  N_14
REMARK                            x       y       z     vdW  Elec       q    Type
REMARK                         _______ _______ _______ _____ _____    ______ ____
ROOT
ATOM      1  CA  UNL     1      38.096 -25.257 -12.853  0.00  0.00    +0.037 C 
ENDROOT
BRANCH   1   2
ATOM      2  N   UNL     1      37.041 -26.214 -12.533  0.00  0.00    +0.389 N 
ATOM      3  H1  UNL     1      36.131 -25.764 -12.633  0.00  0.00    -0.088 HD
ATOM      4  H2  UNL     1      37.157 -26.538 -11.573  0.00  0.00    -0.088 HD
ATOM      5  H3  UNL     1      37.098 -27.009 -13.169  0.00  0.00    -0.088 HD
ENDBRANCH   1   2
BRANCH   1   7
ATOM      6  OXT UNL     1      38.781 -23.220 -11.706  0.00  0.00    -0.253 OA
ATOM      7  C   UNL     1      38.023 -24.179 -11.788  0.00  0.00    +0.293 C 
BRANCH   7   8
ATOM      8  O   UNL     1      36.991 -24.377 -10.928  0.00  0.00    -0.482 OA
ATOM      9  H   UNL     1      36.110 -24.222 -11.210  0.00  0.00    +0.295 HD
ENDBRANCH   7   8
ENDBRANCH   1   7
BRANCH   1  10
ATOM     10  C   UNL     1      37.882 -24.695 -14.265  0.00  0.00    +0.003 C 
BRANCH  10  11
ATOM     11  C   UNL     1      36.658 -23.789 -14.344  0.00  0.00    +0.081 C 
BRANCH  11  12
ATOM     12  S   UNL     1      35.355 -24.552 -15.260  0.00  0.00    -0.012 S 
ATOM     13  O   UNL     1      35.086 -23.700 -16.409  0.00  0.00    -0.156 OA
ATOM     14  C   UNL     1      33.958 -24.389 -14.168  0.00  0.00    +0.097 C 
BRANCH  12  15
ATOM     15  N   UNL     1      35.681 -26.063 -15.336  0.00  0.00    -0.183 NA
ATOM     16  H   UNL     1      36.246 -26.409 -16.065  0.00  0.00    +0.156 HD
ENDBRANCH  12  15
ENDBRANCH  11  12
ENDBRANCH  10  11
ENDBRANCH   1  10
TORSDOF 7
ENDMDL
