MODEL 1
REMARK VINA RESULT:      -7.4      0.000      0.000
REMARK  Name = 14759
REMARK  5 active torsions:
REMARK  status: ('A' for Active; 'I' for Inactive)
REMARK    1  A    between atoms: C_1  and  C_10
REMARK    2  A    between atoms: C_2  and  O_8
REMARK    3  A    between atoms: C_10  and  C_11
REMARK    4  A    between atoms: C_11  and  C_12
REMARK    5  A    between atoms: C_12  and  C_13
REMARK                            x       y       z     vdW  Elec       q    Type
REMARK                         _______ _______ _______ _____ _____    ______ ____
ROOT
ATOM      1  C   UNL     1      34.683 -19.286 -20.936  0.00  0.00    +0.011 C 
ATOM      2  C   UNL     1      35.710 -20.031 -20.376  0.00  0.00    +0.129 C 
ATOM      3  C   UNL     1      33.357 -19.665 -20.785  0.00  0.00    -0.002 C 
ATOM      4  C   UNL     1      34.074 -21.572 -19.487  0.00  0.00    -0.019 C 
ATOM      5  C   UNL     1      35.403 -21.181 -19.646  0.00  0.00    +0.032 C 
ATOM      6  C   UNL     1      33.051 -20.815 -20.056  0.00  0.00    -0.004 C 
ATOM      7  C   UNL     1      33.747 -22.801 -18.709  0.00  0.00    +0.031 C 
ENDROOT
BRANCH   2   8
ATOM      8  O   UNL     1      37.013 -19.662 -20.522  0.00  0.00    -0.506 OA
ATOM      9  H   UNL     1      37.697 -20.233 -20.233  0.00  0.00    +0.292 HD
ENDBRANCH   2   8
BRANCH   1  10
ATOM     10  C   UNL     1      34.995 -18.040 -21.726  0.00  0.00    +0.029 C 
BRANCH  10  11
ATOM     11  C   UNL     1      35.688 -18.314 -23.066  0.00  0.00    +0.005 C 
BRANCH  11  12
ATOM     12  C   UNL     1      34.857 -19.198 -24.001  0.00  0.00    +0.000 C 
BRANCH  12  13
ATOM     13  C   UNL     1      34.220 -18.374 -25.121  0.00  0.00    +0.000 C 
ATOM     14  C   UNL     1      34.772 -16.959 -25.155  0.00  0.00    +0.000 C 
ENDBRANCH  12  13
ENDBRANCH  11  12
ENDBRANCH  10  11
ENDBRANCH   1  10
TORSDOF 5
ENDMDL
MODEL 2
REMARK VINA RESULT:      -7.3      1.742      2.501
REMARK  Name = 14759
REMARK  5 active torsions:
REMARK  status: ('A' for Active; 'I' for Inactive)
REMARK    1  A    between atoms: C_1  and  C_10
REMARK    2  A    between atoms: C_2  and  O_8
REMARK    3  A    between atoms: C_10  and  C_11
REMARK    4  A    between atoms: C_11  and  C_12
REMARK    5  A    between atoms: C_12  and  C_13
REMARK                            x       y       z     vdW  Elec       q    Type
REMARK                         _______ _______ _______ _____ _____    ______ ____
ROOT
ATOM      1  C   UNL     1      34.687 -19.125 -21.130  0.00  0.00    +0.011 C 
ATOM      2  C   UNL     1      35.721 -19.876 -20.590  0.00  0.00    +0.129 C 
ATOM      3  C   UNL     1      33.361 -19.476 -20.920  0.00  0.00    -0.002 C 
ATOM      4  C   UNL     1      34.093 -21.365 -19.604  0.00  0.00    -0.019 C 
ATOM      5  C   UNL     1      35.422 -21.003 -19.822  0.00  0.00    +0.032 C 
ATOM      6  C   UNL     1      33.062 -20.602 -20.153  0.00  0.00    -0.004 C 
ATOM      7  C   UNL     1      33.774 -22.569 -18.784  0.00  0.00    +0.031 C 
ENDROOT
BRANCH   2   8
ATOM      8  O   UNL     1      37.024 -19.535 -20.793  0.00  0.00    -0.506 OA
ATOM      9  H   UNL     1      37.436 -18.907 -20.234  0.00  0.00    +0.292 HD
ENDBRANCH   2   8
BRANCH   1  10
ATOM     10  C   UNL     1      34.990 -17.904 -21.961  0.00  0.00    +0.029 C 
BRANCH  10  11
ATOM     11  C   UNL     1      34.920 -16.589 -21.177  0.00  0.00    +0.005 C 
BRANCH  11  12
ATOM     12  C   UNL     1      34.433 -15.410 -22.027  0.00  0.00    +0.000 C 
BRANCH  12  13
ATOM     13  C   UNL     1      32.953 -15.120 -21.775  0.00  0.00    +0.000 C 
ATOM     14  C   UNL     1      32.641 -15.065 -20.289  0.00  0.00    +0.000 C 
ENDBRANCH  12  13
ENDBRANCH  11  12
ENDBRANCH  10  11
ENDBRANCH   1  10
TORSDOF 5
ENDMDL
MODEL 3
REMARK VINA RESULT:      -7.3      1.665      5.579
REMARK  Name = 14759
REMARK  5 active torsions:
REMARK  status: ('A' for Active; 'I' for Inactive)
REMARK    1  A    between atoms: C_1  and  C_10
REMARK    2  A    between atoms: C_2  and  O_8
REMARK    3  A    between atoms: C_10  and  C_11
REMARK    4  A    between atoms: C_11  and  C_12
REMARK    5  A    between atoms: C_12  and  C_13
REMARK                            x       y       z     vdW  Elec       q    Type
REMARK                         _______ _______ _______ _____ _____    ______ ____
ROOT
ATOM      1  C   UNL     1      35.276 -17.729 -22.671  0.00  0.00    +0.011 C 
ATOM      2  C   UNL     1      34.818 -16.444 -22.421  0.00  0.00    +0.129 C 
ATOM      3  C   UNL     1      35.175 -18.293 -23.935  0.00  0.00    -0.002 C 
ATOM      4  C   UNL     1      34.141 -16.260 -24.733  0.00  0.00    -0.019 C 
ATOM      5  C   UNL     1      34.248 -15.705 -23.459  0.00  0.00    +0.032 C 
ATOM      6  C   UNL     1      34.605 -17.554 -24.972  0.00  0.00    -0.004 C 
ATOM      7  C   UNL     1      33.532 -15.471 -25.842  0.00  0.00    +0.031 C 
ENDROOT
BRANCH   2   8
ATOM      8  O   UNL     1      34.915 -15.887 -21.181  0.00  0.00    -0.506 OA
ATOM      9  H   UNL     1      35.123 -14.978 -21.092  0.00  0.00    +0.292 HD
ENDBRANCH   2   8
BRANCH   1  10
ATOM     10  C   UNL     1      35.896 -18.542 -21.563  0.00  0.00    +0.029 C 
BRANCH  10  11
ATOM     11  C   UNL     1      35.115 -19.815 -21.218  0.00  0.00    +0.005 C 
BRANCH  11  12
ATOM     12  C   UNL     1      33.617 -19.563 -21.017  0.00  0.00    +0.000 C 
BRANCH  12  13
ATOM     13  C   UNL     1      33.023 -20.538 -19.999  0.00  0.00    +0.000 C 
ATOM     14  C   UNL     1      34.056 -21.545 -19.524  0.00  0.00    +0.000 C 
ENDBRANCH  12  13
ENDBRANCH  11  12
ENDBRANCH  10  11
ENDBRANCH   1  10
TORSDOF 5
ENDMDL
MODEL 4
REMARK VINA RESULT:      -7.3      3.092      5.965
REMARK  Name = 14759
REMARK  5 active torsions:
REMARK  status: ('A' for Active; 'I' for Inactive)
REMARK    1  A    between atoms: C_1  and  C_10
REMARK    2  A    between atoms: C_2  and  O_8
REMARK    3  A    between atoms: C_10  and  C_11
REMARK    4  A    between atoms: C_11  and  C_12
REMARK    5  A    between atoms: C_12  and  C_13
REMARK                            x       y       z     vdW  Elec       q    Type
REMARK                         _______ _______ _______ _____ _____    ______ ____
ROOT
ATOM      1  C   UNL     1      34.413 -16.323 -21.679  0.00  0.00    +0.011 C 
ATOM      2  C   UNL     1      34.719 -15.613 -22.830  0.00  0.00    +0.129 C 
ATOM      3  C   UNL     1      33.420 -15.891 -20.812  0.00  0.00    -0.002 C 
ATOM      4  C   UNL     1      33.014 -13.999 -22.258  0.00  0.00    -0.019 C 
ATOM      5  C   UNL     1      34.015 -14.443 -23.121  0.00  0.00    +0.032 C 
ATOM      6  C   UNL     1      32.716 -14.722 -21.103  0.00  0.00    -0.004 C 
ATOM      7  C   UNL     1      32.263 -12.749 -22.569  0.00  0.00    +0.031 C 
ENDROOT
BRANCH   2   8
ATOM      8  O   UNL     1      35.694 -16.034 -23.683  0.00  0.00    -0.506 OA
ATOM      9  H   UNL     1      36.301 -15.418 -24.042  0.00  0.00    +0.292 HD
ENDBRANCH   2   8
BRANCH   1  10
ATOM     10  C   UNL     1      35.162 -17.590 -21.347  0.00  0.00    +0.029 C 
BRANCH  10  11
ATOM     11  C   UNL     1      34.397 -18.871 -21.697  0.00  0.00    +0.005 C 
BRANCH  11  12
ATOM     12  C   UNL     1      34.594 -19.988 -20.667  0.00  0.00    +0.000 C 
BRANCH  12  13
ATOM     13  C   UNL     1      33.252 -20.545 -20.190  0.00  0.00    +0.000 C 
ATOM     14  C   UNL     1      33.441 -21.716 -19.241  0.00  0.00    +0.000 C 
ENDBRANCH  12  13
ENDBRANCH  11  12
ENDBRANCH  10  11
ENDBRANCH   1  10
TORSDOF 5
ENDMDL
MODEL 5
REMARK VINA RESULT:      -7.3      1.502      5.542
REMARK  Name = 14759
REMARK  5 active torsions:
REMARK  status: ('A' for Active; 'I' for Inactive)
REMARK    1  A    between atoms: C_1  and  C_10
REMARK    2  A    between atoms: C_2  and  O_8
REMARK    3  A    between atoms: C_10  and  C_11
REMARK    4  A    between atoms: C_11  and  C_12
REMARK    5  A    between atoms: C_12  and  C_13
REMARK                            x       y       z     vdW  Elec       q    Type
REMARK                         _______ _______ _______ _____ _____    ______ ____
ROOT
ATOM      1  C   UNL     1      35.215 -18.737 -22.032  0.00  0.00    +0.011 C 
ATOM      2  C   UNL     1      35.071 -17.377 -21.801  0.00  0.00    +0.129 C 
ATOM      3  C   UNL     1      35.012 -19.275 -23.294  0.00  0.00    -0.002 C 
ATOM      4  C   UNL     1      34.512 -17.064 -24.131  0.00  0.00    -0.019 C 
ATOM      5  C   UNL     1      34.718 -16.535 -22.857  0.00  0.00    +0.032 C 
ATOM      6  C   UNL     1      34.659 -18.434 -24.350  0.00  0.00    -0.004 C 
ATOM      7  C   UNL     1      34.134 -16.165 -25.258  0.00  0.00    +0.031 C 
ENDROOT
BRANCH   2   8
ATOM      8  O   UNL     1      35.270 -16.844 -20.562  0.00  0.00    -0.506 OA
ATOM      9  H   UNL     1      35.241 -15.916 -20.442  0.00  0.00    +0.292 HD
ENDBRANCH   2   8
BRANCH   1  10
ATOM     10  C   UNL     1      35.598 -19.661 -20.904  0.00  0.00    +0.029 C 
BRANCH  10  11
ATOM     11  C   UNL     1      34.418 -20.447 -20.321  0.00  0.00    +0.005 C 
BRANCH  11  12
ATOM     12  C   UNL     1      34.855 -21.572 -19.376  0.00  0.00    +0.000 C 
BRANCH  12  13
ATOM     13  C   UNL     1      36.346 -21.475 -19.053  0.00  0.00    +0.000 C 
ATOM     14  C   UNL     1      36.628 -21.845 -17.606  0.00  0.00    +0.000 C 
ENDBRANCH  12  13
ENDBRANCH  11  12
ENDBRANCH  10  11
ENDBRANCH   1  10
TORSDOF 5
ENDMDL
MODEL 6
REMARK VINA RESULT:      -7.2      2.562      6.077
REMARK  Name = 14759
REMARK  5 active torsions:
REMARK  status: ('A' for Active; 'I' for Inactive)
REMARK    1  A    between atoms: C_1  and  C_10
REMARK    2  A    between atoms: C_2  and  O_8
REMARK    3  A    between atoms: C_10  and  C_11
REMARK    4  A    between atoms: C_11  and  C_12
REMARK    5  A    between atoms: C_12  and  C_13
REMARK                            x       y       z     vdW  Elec       q    Type
REMARK                         _______ _______ _______ _____ _____    ______ ____
ROOT
ATOM      1  C   UNL     1      34.973 -17.032 -23.365  0.00  0.00    +0.011 C 
ATOM      2  C   UNL     1      34.446 -16.786 -24.624  0.00  0.00    +0.129 C 
ATOM      3  C   UNL     1      34.940 -16.064 -22.372  0.00  0.00    -0.002 C 
ATOM      4  C   UNL     1      33.830 -14.563 -23.906  0.00  0.00    -0.019 C 
ATOM      5  C   UNL     1      33.870 -15.544 -24.896  0.00  0.00    +0.032 C 
ATOM      6  C   UNL     1      34.364 -14.822 -22.643  0.00  0.00    -0.004 C 
ATOM      7  C   UNL     1      33.215 -13.236 -24.196  0.00  0.00    +0.031 C 
ENDROOT
BRANCH   2   8
ATOM      8  O   UNL     1      34.477 -17.734 -25.602  0.00  0.00    -0.506 OA
ATOM      9  H   UNL     1      33.713 -17.902 -26.116  0.00  0.00    +0.292 HD
ENDBRANCH   2   8
BRANCH   1  10
ATOM     10  C   UNL     1      35.598 -18.369 -23.053  0.00  0.00    +0.029 C 
BRANCH  10  11
ATOM     11  C   UNL     1      34.604 -19.408 -22.525  0.00  0.00    +0.005 C 
BRANCH  11  12
ATOM     12  C   UNL     1      34.354 -19.287 -21.018  0.00  0.00    +0.000 C 
BRANCH  12  13
ATOM     13  C   UNL     1      33.092 -20.044 -20.603  0.00  0.00    +0.000 C 
ATOM     14  C   UNL     1      33.419 -21.219 -19.697  0.00  0.00    +0.000 C 
ENDBRANCH  12  13
ENDBRANCH  11  12
ENDBRANCH  10  11
ENDBRANCH   1  10
TORSDOF 5
ENDMDL
MODEL 7
REMARK VINA RESULT:      -7.2      2.192      3.121
REMARK  Name = 14759
REMARK  5 active torsions:
REMARK  status: ('A' for Active; 'I' for Inactive)
REMARK    1  A    between atoms: C_1  and  C_10
REMARK    2  A    between atoms: C_2  and  O_8
REMARK    3  A    between atoms: C_10  and  C_11
REMARK    4  A    between atoms: C_11  and  C_12
REMARK    5  A    between atoms: C_12  and  C_13
REMARK                            x       y       z     vdW  Elec       q    Type
REMARK                         _______ _______ _______ _____ _____    ______ ____
ROOT
ATOM      1  C   UNL     1      34.726 -20.313 -20.606  0.00  0.00    +0.011 C 
ATOM      2  C   UNL     1      33.419 -20.632 -20.269  0.00  0.00    +0.129 C 
ATOM      3  C   UNL     1      35.799 -20.904 -19.955  0.00  0.00    -0.002 C 
ATOM      4  C   UNL     1      34.250 -22.167 -18.597  0.00  0.00    -0.019 C 
ATOM      5  C   UNL     1      33.180 -21.565 -19.259  0.00  0.00    +0.032 C 
ATOM      6  C   UNL     1      35.560 -21.837 -18.945  0.00  0.00    -0.004 C 
ATOM      7  C   UNL     1      33.994 -23.163 -17.518  0.00  0.00    +0.031 C 
ENDROOT
BRANCH   2   8
ATOM      8  O   UNL     1      32.363 -20.053 -20.906  0.00  0.00    -0.506 OA
ATOM      9  H   UNL     1      31.664 -19.680 -20.407  0.00  0.00    +0.292 HD
ENDBRANCH   2   8
BRANCH   1  10
ATOM     10  C   UNL     1      35.005 -19.308 -21.695  0.00  0.00    +0.029 C 
BRANCH  10  11
ATOM     11  C   UNL     1      35.364 -17.912 -21.172  0.00  0.00    +0.005 C 
BRANCH  11  12
ATOM     12  C   UNL     1      34.324 -16.849 -21.540  0.00  0.00    +0.000 C 
BRANCH  12  13
ATOM     13  C   UNL     1      34.431 -15.629 -20.624  0.00  0.00    +0.000 C 
ATOM     14  C   UNL     1      33.132 -14.843 -20.588  0.00  0.00    +0.000 C 
ENDBRANCH  12  13
ENDBRANCH  11  12
ENDBRANCH  10  11
ENDBRANCH   1  10
TORSDOF 5
ENDMDL
MODEL 8
REMARK VINA RESULT:      -7.0      1.594      2.323
REMARK  Name = 14759
REMARK  5 active torsions:
REMARK  status: ('A' for Active; 'I' for Inactive)
REMARK    1  A    between atoms: C_1  and  C_10
REMARK    2  A    between atoms: C_2  and  O_8
REMARK    3  A    between atoms: C_10  and  C_11
REMARK    4  A    between atoms: C_11  and  C_12
REMARK    5  A    between atoms: C_12  and  C_13
REMARK                            x       y       z     vdW  Elec       q    Type
REMARK                         _______ _______ _______ _____ _____    ______ ____
ROOT
ATOM      1  C   UNL     1      34.774 -20.445 -20.621  0.00  0.00    +0.011 C 
ATOM      2  C   UNL     1      33.489 -20.797 -20.239  0.00  0.00    +0.129 C 
ATOM      3  C   UNL     1      35.883 -20.936 -19.947  0.00  0.00    -0.002 C 
ATOM      4  C   UNL     1      34.413 -22.161 -18.472  0.00  0.00    -0.019 C 
ATOM      5  C   UNL     1      33.307 -21.661 -19.158  0.00  0.00    +0.032 C 
ATOM      6  C   UNL     1      35.702 -21.800 -18.866  0.00  0.00    -0.004 C 
ATOM      7  C   UNL     1      34.219 -23.084 -17.317  0.00  0.00    +0.031 C 
ENDROOT
BRANCH   2   8
ATOM      8  O   UNL     1      32.398 -20.317 -20.899  0.00  0.00    -0.506 OA
ATOM      9  H   UNL     1      32.332 -19.403 -21.092  0.00  0.00    +0.292 HD
ENDBRANCH   2   8
BRANCH   1  10
ATOM     10  C   UNL     1      34.991 -19.513 -21.787  0.00  0.00    +0.029 C 
BRANCH  10  11
ATOM     11  C   UNL     1      35.004 -18.030 -21.401  0.00  0.00    +0.005 C 
BRANCH  11  12
ATOM     12  C   UNL     1      35.240 -17.101 -22.596  0.00  0.00    +0.000 C 
BRANCH  12  13
ATOM     13  C   UNL     1      35.126 -17.861 -23.918  0.00  0.00    +0.000 C 
ATOM     14  C   UNL     1      34.628 -16.961 -25.037  0.00  0.00    +0.000 C 
ENDBRANCH  12  13
ENDBRANCH  11  12
ENDBRANCH  10  11
ENDBRANCH   1  10
TORSDOF 5
ENDMDL
MODEL 9
REMARK VINA RESULT:      -7.0      2.075      6.217
REMARK  Name = 14759
REMARK  5 active torsions:
REMARK  status: ('A' for Active; 'I' for Inactive)
REMARK    1  A    between atoms: C_1  and  C_10
REMARK    2  A    between atoms: C_2  and  O_8
REMARK    3  A    between atoms: C_10  and  C_11
REMARK    4  A    between atoms: C_11  and  C_12
REMARK    5  A    between atoms: C_12  and  C_13
REMARK                            x       y       z     vdW  Elec       q    Type
REMARK                         _______ _______ _______ _____ _____    ______ ____
ROOT
ATOM      1  C   UNL     1      34.172 -21.670 -19.189  0.00  0.00    +0.011 C 
ATOM      2  C   UNL     1      35.436 -21.230 -19.553  0.00  0.00    +0.129 C 
ATOM      3  C   UNL     1      33.031 -21.136 -19.772  0.00  0.00    -0.002 C 
ATOM      4  C   UNL     1      34.424 -19.689 -21.115  0.00  0.00    -0.019 C 
ATOM      5  C   UNL     1      35.562 -20.233 -20.522  0.00  0.00    +0.032 C 
ATOM      6  C   UNL     1      33.158 -20.140 -20.741  0.00  0.00    -0.004 C 
ATOM      7  C   UNL     1      34.560 -18.624 -22.150  0.00  0.00    +0.031 C 
ENDROOT
BRANCH   2   8
ATOM      8  O   UNL     1      36.558 -21.752 -18.983  0.00  0.00    -0.506 OA
ATOM      9  H   UNL     1      37.207 -21.182 -18.620  0.00  0.00    +0.292 HD
ENDBRANCH   2   8
BRANCH   1  10
ATOM     10  C   UNL     1      34.015 -22.747 -18.145  0.00  0.00    +0.029 C 
BRANCH  10  11
ATOM     11  C   UNL     1      32.614 -22.809 -17.526  0.00  0.00    +0.005 C 
BRANCH  11  12
ATOM     12  C   UNL     1      32.612 -23.373 -16.101  0.00  0.00    +0.000 C 
BRANCH  12  13
ATOM     13  C   UNL     1      31.319 -23.018 -15.366  0.00  0.00    +0.000 C 
ATOM     14  C   UNL     1      30.133 -22.972 -16.316  0.00  0.00    +0.000 C 
ENDBRANCH  12  13
ENDBRANCH  11  12
ENDBRANCH  10  11
ENDBRANCH   1  10
TORSDOF 5
ENDMDL
