MODEL 1
REMARK VINA RESULT:      -7.3      0.000      0.000
REMARK  Name = 7338
REMARK  3 active torsions:
REMARK  status: ('A' for Active; 'I' for Inactive)
REMARK    1  A    between atoms: C_1  and  C_7
REMARK    2  A    between atoms: C_2  and  O_10
REMARK    3  A    between atoms: C_5  and  O_12
REMARK                            x       y       z     vdW  Elec       q    Type
REMARK                         _______ _______ _______ _____ _____    ______ ____
ROOT
ATOM      1  C   UNL     1      34.602 -18.794 -22.490  0.00  0.00    +0.003 C 
ATOM      2  C   UNL     1      34.882 -16.611 -23.488  0.00  0.00    +0.172 C 
ATOM      3  C   UNL     1      34.796 -17.419 -22.354  0.00  0.00    +0.040 C 
ATOM      4  C   UNL     1      34.494 -19.361 -23.760  0.00  0.00    +0.003 C 
ATOM      5  C   UNL     1      34.773 -17.178 -24.757  0.00  0.00    +0.168 C 
ATOM      6  C   UNL     1      34.580 -18.553 -24.894  0.00  0.00    +0.040 C 
ENDROOT
BRANCH   1   7
ATOM      7  C   UNL     1      34.513 -19.636 -21.308  0.00  0.00    -0.004 C 
ATOM      8  C   UNL     1      33.380 -20.167 -20.794  0.00  0.00    -0.026 C 
ATOM      9  C   UNL     1      33.336 -21.022 -19.570  0.00  0.00    +0.031 C 
ENDBRANCH   1   7
BRANCH   2  10
ATOM     10  O   UNL     1      35.070 -15.270 -23.341  0.00  0.00    -0.468 OA
ATOM     11  C   UNL     1      34.320 -14.618 -22.319  0.00  0.00    +0.253 C 
ENDBRANCH   2  10
BRANCH   5  12
ATOM     12  O   UNL     1      34.855 -16.400 -25.872  0.00  0.00    -0.503 OA
ATOM     13  H   UNL     1      35.525 -16.561 -26.508  0.00  0.00    +0.292 HD
ENDBRANCH   5  12
TORSDOF 3
ENDMDL
MODEL 2
REMARK VINA RESULT:      -7.0      3.851      6.024
REMARK  Name = 7338
REMARK  3 active torsions:
REMARK  status: ('A' for Active; 'I' for Inactive)
REMARK    1  A    between atoms: C_1  and  C_7
REMARK    2  A    between atoms: C_2  and  O_10
REMARK    3  A    between atoms: C_5  and  O_12
REMARK                            x       y       z     vdW  Elec       q    Type
REMARK                         _______ _______ _______ _____ _____    ______ ____
ROOT
ATOM      1  C   UNL     1      34.639 -19.570 -21.020  0.00  0.00    +0.003 C 
ATOM      2  C   UNL     1      34.893 -21.434 -19.504  0.00  0.00    +0.172 C 
ATOM      3  C   UNL     1      35.460 -20.451 -20.315  0.00  0.00    +0.040 C 
ATOM      4  C   UNL     1      33.252 -19.673 -20.913  0.00  0.00    +0.003 C 
ATOM      5  C   UNL     1      33.507 -21.538 -19.398  0.00  0.00    +0.168 C 
ATOM      6  C   UNL     1      32.686 -20.656 -20.102  0.00  0.00    +0.040 C 
ENDROOT
BRANCH   1   7
ATOM      7  C   UNL     1      35.229 -18.544 -21.865  0.00  0.00    -0.004 C 
ATOM      8  C   UNL     1      34.613 -17.422 -22.299  0.00  0.00    -0.026 C 
ATOM      9  C   UNL     1      35.258 -16.397 -23.174  0.00  0.00    +0.031 C 
ENDBRANCH   1   7
BRANCH   2  10
ATOM     10  O   UNL     1      35.706 -22.288 -18.821  0.00  0.00    -0.468 OA
ATOM     11  C   UNL     1      36.691 -21.705 -17.971  0.00  0.00    +0.253 C 
ENDBRANCH   2  10
BRANCH   5  12
ATOM     12  O   UNL     1      32.942 -22.494 -18.610  0.00  0.00    -0.503 OA
ATOM     13  H   UNL     1      33.392 -22.796 -17.845  0.00  0.00    +0.292 HD
ENDBRANCH   5  12
TORSDOF 3
ENDMDL
MODEL 3
REMARK VINA RESULT:      -6.7      2.478      4.485
REMARK  Name = 7338
REMARK  3 active torsions:
REMARK  status: ('A' for Active; 'I' for Inactive)
REMARK    1  A    between atoms: C_1  and  C_7
REMARK    2  A    between atoms: C_2  and  O_10
REMARK    3  A    between atoms: C_5  and  O_12
REMARK                            x       y       z     vdW  Elec       q    Type
REMARK                         _______ _______ _______ _____ _____    ______ ____
ROOT
ATOM      1  C   UNL     1      34.558 -16.910 -24.076  0.00  0.00    +0.003 C 
ATOM      2  C   UNL     1      35.017 -16.837 -21.705  0.00  0.00    +0.172 C 
ATOM      3  C   UNL     1      34.609 -16.199 -22.877  0.00  0.00    +0.040 C 
ATOM      4  C   UNL     1      34.914 -18.259 -24.103  0.00  0.00    +0.003 C 
ATOM      5  C   UNL     1      35.373 -18.185 -21.732  0.00  0.00    +0.168 C 
ATOM      6  C   UNL     1      35.322 -18.896 -22.931  0.00  0.00    +0.040 C 
ENDROOT
BRANCH   1   7
ATOM      7  C   UNL     1      34.132 -16.246 -25.298  0.00  0.00    -0.004 C 
ATOM      8  C   UNL     1      33.396 -15.114 -25.370  0.00  0.00    -0.026 C 
ATOM      9  C   UNL     1      32.974 -14.470 -26.650  0.00  0.00    +0.031 C 
ENDBRANCH   1   7
BRANCH   2  10
ATOM     10  O   UNL     1      35.063 -16.131 -20.541  0.00  0.00    -0.468 OA
ATOM     11  C   UNL     1      34.342 -14.901 -20.500  0.00  0.00    +0.253 C 
ENDBRANCH   2  10
BRANCH   5  12
ATOM     12  O   UNL     1      35.774 -18.818 -20.595  0.00  0.00    -0.503 OA
ATOM     13  H   UNL     1      36.502 -19.409 -20.619  0.00  0.00    +0.292 HD
ENDBRANCH   5  12
TORSDOF 3
ENDMDL
MODEL 4
REMARK VINA RESULT:      -6.4      1.194      2.591
REMARK  Name = 7338
REMARK  3 active torsions:
REMARK  status: ('A' for Active; 'I' for Inactive)
REMARK    1  A    between atoms: C_1  and  C_7
REMARK    2  A    between atoms: C_2  and  O_10
REMARK    3  A    between atoms: C_5  and  O_12
REMARK                            x       y       z     vdW  Elec       q    Type
REMARK                         _______ _______ _______ _____ _____    ______ ____
ROOT
ATOM      1  C   UNL     1      34.550 -17.799 -21.525  0.00  0.00    +0.003 C 
ATOM      2  C   UNL     1      34.756 -16.369 -23.462  0.00  0.00    +0.172 C 
ATOM      3  C   UNL     1      34.693 -17.646 -22.905  0.00  0.00    +0.040 C 
ATOM      4  C   UNL     1      34.470 -16.674 -20.704  0.00  0.00    +0.003 C 
ATOM      5  C   UNL     1      34.676 -15.245 -22.641  0.00  0.00    +0.168 C 
ATOM      6  C   UNL     1      34.533 -15.397 -21.261  0.00  0.00    +0.040 C 
ENDROOT
BRANCH   1   7
ATOM      7  C   UNL     1      34.484 -19.130 -20.944  0.00  0.00    -0.004 C 
ATOM      8  C   UNL     1      33.356 -19.788 -20.594  0.00  0.00    -0.026 C 
ATOM      9  C   UNL     1      33.336 -21.155 -19.992  0.00  0.00    +0.031 C 
ENDBRANCH   1   7
BRANCH   2  10
ATOM     10  O   UNL     1      34.895 -16.234 -24.810  0.00  0.00    -0.468 OA
ATOM     11  C   UNL     1      33.699 -16.124 -25.578  0.00  0.00    +0.253 C 
ENDBRANCH   2  10
BRANCH   5  12
ATOM     12  O   UNL     1      34.737 -13.993 -23.173  0.00  0.00    -0.503 OA
ATOM     13  H   UNL     1      34.056 -13.374 -22.993  0.00  0.00    +0.292 HD
ENDBRANCH   5  12
TORSDOF 3
ENDMDL
MODEL 5
REMARK VINA RESULT:      -6.4      2.222      4.786
REMARK  Name = 7338
REMARK  3 active torsions:
REMARK  status: ('A' for Active; 'I' for Inactive)
REMARK    1  A    between atoms: C_1  and  C_7
REMARK    2  A    between atoms: C_2  and  O_10
REMARK    3  A    between atoms: C_5  and  O_12
REMARK                            x       y       z     vdW  Elec       q    Type
REMARK                         _______ _______ _______ _____ _____    ______ ____
ROOT
ATOM      1  C   UNL     1      33.896 -15.177 -21.575  0.00  0.00    +0.003 C 
ATOM      2  C   UNL     1      35.011 -17.318 -21.472  0.00  0.00    +0.172 C 
ATOM      3  C   UNL     1      34.263 -16.315 -20.856  0.00  0.00    +0.040 C 
ATOM      4  C   UNL     1      34.275 -15.044 -22.911  0.00  0.00    +0.003 C 
ATOM      5  C   UNL     1      35.392 -17.185 -22.807  0.00  0.00    +0.168 C 
ATOM      6  C   UNL     1      35.023 -16.048 -23.527  0.00  0.00    +0.040 C 
ENDROOT
BRANCH   1   7
ATOM      7  C   UNL     1      33.115 -14.132 -20.933  0.00  0.00    -0.004 C 
ATOM      8  C   UNL     1      32.367 -13.199 -21.564  0.00  0.00    -0.026 C 
ATOM      9  C   UNL     1      31.586 -12.137 -20.862  0.00  0.00    +0.031 C 
ENDBRANCH   1   7
BRANCH   2  10
ATOM     10  O   UNL     1      35.365 -18.423 -20.758  0.00  0.00    -0.468 OA
ATOM     11  C   UNL     1      34.484 -19.543 -20.820  0.00  0.00    +0.253 C 
ENDBRANCH   2  10
BRANCH   5  12
ATOM     12  O   UNL     1      36.122 -18.157 -23.420  0.00  0.00    -0.503 OA
ATOM     13  H   UNL     1      36.100 -18.242 -24.353  0.00  0.00    +0.292 HD
ENDBRANCH   5  12
TORSDOF 3
ENDMDL
MODEL 6
REMARK VINA RESULT:      -6.4      3.159      4.964
REMARK  Name = 7338
REMARK  3 active torsions:
REMARK  status: ('A' for Active; 'I' for Inactive)
REMARK    1  A    between atoms: C_1  and  C_7
REMARK    2  A    between atoms: C_2  and  O_10
REMARK    3  A    between atoms: C_5  and  O_12
REMARK                            x       y       z     vdW  Elec       q    Type
REMARK                         _______ _______ _______ _____ _____    ______ ____
ROOT
ATOM      1  C   UNL     1      33.146 -14.222 -23.345  0.00  0.00    +0.003 C 
ATOM      2  C   UNL     1      33.569 -15.063 -25.571  0.00  0.00    +0.172 C 
ATOM      3  C   UNL     1      33.027 -14.091 -24.729  0.00  0.00    +0.040 C 
ATOM      4  C   UNL     1      33.807 -15.324 -22.803  0.00  0.00    +0.003 C 
ATOM      5  C   UNL     1      34.229 -16.166 -25.029  0.00  0.00    +0.168 C 
ATOM      6  C   UNL     1      34.348 -16.296 -23.645  0.00  0.00    +0.040 C 
ENDROOT
BRANCH   1   7
ATOM      7  C   UNL     1      32.582 -13.209 -22.468  0.00  0.00    -0.004 C 
ATOM      8  C   UNL     1      32.369 -13.339 -21.139  0.00  0.00    -0.026 C 
ATOM      9  C   UNL     1      31.779 -12.271 -20.277  0.00  0.00    +0.031 C 
ENDBRANCH   1   7
BRANCH   2  10
ATOM     10  O   UNL     1      33.445 -14.924 -26.920  0.00  0.00    -0.468 OA
ATOM     11  C   UNL     1      33.385 -13.594 -27.432  0.00  0.00    +0.253 C 
ENDBRANCH   2  10
BRANCH   5  12
ATOM     12  O   UNL     1      34.761 -17.121 -25.840  0.00  0.00    -0.503 OA
ATOM     13  H   UNL     1      35.683 -17.127 -26.016  0.00  0.00    +0.292 HD
ENDBRANCH   5  12
TORSDOF 3
ENDMDL
MODEL 7
REMARK VINA RESULT:      -6.4      2.415      4.034
REMARK  Name = 7338
REMARK  3 active torsions:
REMARK  status: ('A' for Active; 'I' for Inactive)
REMARK    1  A    between atoms: C_1  and  C_7
REMARK    2  A    between atoms: C_2  and  O_10
REMARK    3  A    between atoms: C_5  and  O_12
REMARK                            x       y       z     vdW  Elec       q    Type
REMARK                         _______ _______ _______ _____ _____    ______ ____
ROOT
ATOM      1  C   UNL     1      34.129 -15.792 -21.541  0.00  0.00    +0.003 C 
ATOM      2  C   UNL     1      33.292 -14.187 -23.141  0.00  0.00    +0.172 C 
ATOM      3  C   UNL     1      34.116 -15.270 -22.834  0.00  0.00    +0.040 C 
ATOM      4  C   UNL     1      33.317 -15.232 -20.554  0.00  0.00    +0.003 C 
ATOM      5  C   UNL     1      32.481 -13.626 -22.155  0.00  0.00    +0.168 C 
ATOM      6  C   UNL     1      32.493 -14.149 -20.861  0.00  0.00    +0.040 C 
ENDROOT
BRANCH   1   7
ATOM      7  C   UNL     1      34.988 -16.921 -21.221  0.00  0.00    -0.004 C 
ATOM      8  C   UNL     1      34.652 -18.227 -21.322  0.00  0.00    -0.026 C 
ATOM      9  C   UNL     1      35.567 -19.356 -20.974  0.00  0.00    +0.031 C 
ENDBRANCH   1   7
BRANCH   2  10
ATOM     10  O   UNL     1      33.289 -13.686 -24.408  0.00  0.00    -0.468 OA
ATOM     11  C   UNL     1      33.051 -14.608 -25.469  0.00  0.00    +0.253 C 
ENDBRANCH   2  10
BRANCH   5  12
ATOM     12  O   UNL     1      31.672 -12.569 -22.442  0.00  0.00    -0.503 OA
ATOM     13  H   UNL     1      31.887 -11.993 -23.150  0.00  0.00    +0.292 HD
ENDBRANCH   5  12
TORSDOF 3
ENDMDL
MODEL 8
REMARK VINA RESULT:      -6.3      7.977     10.878
REMARK  Name = 7338
REMARK  3 active torsions:
REMARK  status: ('A' for Active; 'I' for Inactive)
REMARK    1  A    between atoms: C_1  and  C_7
REMARK    2  A    between atoms: C_2  and  O_10
REMARK    3  A    between atoms: C_5  and  O_12
REMARK                            x       y       z     vdW  Elec       q    Type
REMARK                         _______ _______ _______ _____ _____    ______ ____
ROOT
ATOM      1  C   UNL     1      31.984 -23.295 -16.224  0.00  0.00    +0.003 C 
ATOM      2  C   UNL     1      32.358 -24.148 -13.994  0.00  0.00    +0.172 C 
ATOM      3  C   UNL     1      32.860 -23.659 -15.201  0.00  0.00    +0.040 C 
ATOM      4  C   UNL     1      30.607 -23.419 -16.040  0.00  0.00    +0.003 C 
ATOM      5  C   UNL     1      30.982 -24.272 -13.810  0.00  0.00    +0.168 C 
ATOM      6  C   UNL     1      30.105 -23.907 -14.833  0.00  0.00    +0.040 C 
ENDROOT
BRANCH   1   7
ATOM      7  C   UNL     1      32.507 -22.785 -17.481  0.00  0.00    -0.004 C 
ATOM      8  C   UNL     1      33.791 -22.862 -17.896  0.00  0.00    -0.026 C 
ATOM      9  C   UNL     1      34.286 -22.316 -19.195  0.00  0.00    +0.031 C 
ENDBRANCH   1   7
BRANCH   2  10
ATOM     10  O   UNL     1      33.224 -24.500 -13.003  0.00  0.00    -0.468 OA
ATOM     11  C   UNL     1      34.594 -24.146 -13.184  0.00  0.00    +0.253 C 
ENDBRANCH   2  10
BRANCH   5  12
ATOM     12  O   UNL     1      30.480 -24.748 -12.637  0.00  0.00    -0.503 OA
ATOM     13  H   UNL     1      29.664 -24.421 -12.309  0.00  0.00    +0.292 HD
ENDBRANCH   5  12
TORSDOF 3
ENDMDL
MODEL 9
REMARK VINA RESULT:      -6.3      6.591      9.336
REMARK  Name = 7338
REMARK  3 active torsions:
REMARK  status: ('A' for Active; 'I' for Inactive)
REMARK    1  A    between atoms: C_1  and  C_7
REMARK    2  A    between atoms: C_2  and  O_10
REMARK    3  A    between atoms: C_5  and  O_12
REMARK                            x       y       z     vdW  Elec       q    Type
REMARK                         _______ _______ _______ _____ _____    ______ ____
ROOT
ATOM      1  C   UNL     1      31.523 -23.124 -15.576  0.00  0.00    +0.003 C 
ATOM      2  C   UNL     1      33.368 -23.324 -17.124  0.00  0.00    +0.172 C 
ATOM      3  C   UNL     1      32.008 -23.125 -16.884  0.00  0.00    +0.040 C 
ATOM      4  C   UNL     1      32.398 -23.321 -14.508  0.00  0.00    +0.003 C 
ATOM      5  C   UNL     1      34.242 -23.522 -16.056  0.00  0.00    +0.168 C 
ATOM      6  C   UNL     1      33.758 -23.521 -14.747  0.00  0.00    +0.040 C 
ENDROOT
BRANCH   1   7
ATOM      7  C   UNL     1      30.106 -22.916 -15.326  0.00  0.00    -0.004 C 
ATOM      8  C   UNL     1      29.149 -22.758 -16.268  0.00  0.00    -0.026 C 
ATOM      9  C   UNL     1      27.703 -22.538 -15.964  0.00  0.00    +0.031 C 
ENDBRANCH   1   7
BRANCH   2  10
ATOM     10  O   UNL     1      33.828 -23.323 -18.405  0.00  0.00    -0.468 OA
ATOM     11  C   UNL     1      33.742 -22.095 -19.124  0.00  0.00    +0.253 C 
ENDBRANCH   2  10
BRANCH   5  12
ATOM     12  O   UNL     1      35.572 -23.718 -16.276  0.00  0.00    -0.503 OA
ATOM     13  H   UNL     1      35.910 -23.695 -17.151  0.00  0.00    +0.292 HD
ENDBRANCH   5  12
TORSDOF 3
ENDMDL
