MODEL 1
REMARK VINA RESULT:      -8.9      0.000      0.000
REMARK  Name = 11646777
REMARK  9 active torsions:
REMARK  status: ('A' for Active; 'I' for Inactive)
REMARK    1  A    between atoms: N_3  and  C_17
REMARK    2  A    between atoms: C_8  and  C_24
REMARK    3  A    between atoms: C_15  and  O_19
REMARK    4  A    between atoms: C_18  and  C_21
REMARK    5  A    between atoms: C_21  and  O_22
REMARK    6  A    between atoms: C_24  and  C_25
REMARK    7  A    between atoms: C_24  and  C_28
REMARK    8  A    between atoms: C_25  and  C_26
REMARK    9  A    between atoms: C_28  and  C_29
REMARK                            x       y       z     vdW  Elec       q    Type
REMARK                         _______ _______ _______ _____ _____    ______ ____
ROOT
ATOM      1  O   UNL     1      36.507 -22.645 -17.147  0.00  0.00    -0.193 OA
ATOM      2  O   UNL     1      32.853 -19.156 -20.599  0.00  0.00    -0.275 OA
ATOM      3  N   UNL     1      34.267 -22.781 -17.697  0.00  0.00    -0.175 N 
ATOM      4  N   UNL     1      34.977 -20.105 -20.625  0.00  0.00    -0.259 N 
ATOM      5  N   UNL     1      35.791 -21.364 -18.884  0.00  0.00    -0.305 NA
ATOM      6  C   UNL     1      33.233 -22.368 -18.511  0.00  0.00    +0.084 C 
ATOM      7  C   UNL     1      35.575 -22.283 -17.869  0.00  0.00    +0.276 C 
ATOM      8  C   UNL     1      33.991 -19.223 -21.062  0.00  0.00    +0.227 C 
ATOM      9  C   UNL     1      34.796 -21.004 -19.623  0.00  0.00    +0.201 C 
ATOM     10  C   UNL     1      33.414 -21.485 -19.495  0.00  0.00    +0.066 C 
ATOM     11  H   UNL     1      35.856 -20.074 -21.067  0.00  0.00    +0.157 HD
ENDROOT
BRANCH   3  17
ATOM     12  F   UNL     1      34.906 -22.077 -15.185  0.00  0.00    -0.197 F 
ATOM     13  F   UNL     1      34.492 -24.061 -14.384  0.00  0.00    -0.197 F 
ATOM     14  O   UNL     1      32.662 -24.226 -16.819  0.00  0.00    -0.330 OA
ATOM     15  C   UNL     1      32.641 -22.738 -14.996  0.00  0.00    +0.206 C 
ATOM     16  C   UNL     1      34.071 -23.125 -15.268  0.00  0.00    +0.333 C 
ATOM     17  C   UNL     1      34.006 -23.735 -16.655  0.00  0.00    +0.272 C 
ATOM     18  C   UNL     1      31.903 -23.897 -15.640  0.00  0.00    +0.179 C 
BRANCH  15  19
ATOM     19  O   UNL     1      32.361 -22.642 -13.616  0.00  0.00    -0.377 OA
ATOM     20  H   UNL     1      33.186 -22.491 -13.128  0.00  0.00    +0.211 HD
ENDBRANCH  15  19
BRANCH  18  21
ATOM     21  C   UNL     1      30.474 -23.561 -16.028  0.00  0.00    +0.169 C 
BRANCH  21  22
ATOM     22  O   UNL     1      29.925 -22.694 -15.049  0.00  0.00    -0.379 OA
ATOM     23  H   UNL     1      30.145 -23.024 -14.165  0.00  0.00    +0.211 HD
ENDBRANCH  21  22
ENDBRANCH  18  21
ENDBRANCH   3  17
BRANCH   8  24
ATOM     24  C   UNL     1      34.470 -18.339 -22.218  0.00  0.00    +0.077 C 
BRANCH  24  25
ATOM     25  C   UNL     1      35.429 -17.250 -21.692  0.00  0.00    +0.009 C 
BRANCH  25  26
ATOM     26  C   UNL     1      34.744 -16.109 -20.932  0.00  0.00    +0.000 C 
ATOM     27  C   UNL     1      33.731 -15.390 -21.811  0.00  0.00    +0.000 C 
ENDBRANCH  25  26
ENDBRANCH  24  25
BRANCH  24  28
ATOM     28  C   UNL     1      35.098 -19.161 -23.358  0.00  0.00    +0.009 C 
BRANCH  28  29
ATOM     29  C   UNL     1      34.418 -18.898 -24.706  0.00  0.00    +0.000 C 
ATOM     30  C   UNL     1      34.588 -17.450 -25.140  0.00  0.00    +0.000 C 
ENDBRANCH  28  29
ENDBRANCH  24  28
ENDBRANCH   8  24
TORSDOF 9
ENDMDL
MODEL 2
REMARK VINA RESULT:      -8.9      6.108     10.359
REMARK  Name = 11646777
REMARK  9 active torsions:
REMARK  status: ('A' for Active; 'I' for Inactive)
REMARK    1  A    between atoms: N_3  and  C_17
REMARK    2  A    between atoms: C_8  and  C_24
REMARK    3  A    between atoms: C_15  and  O_19
REMARK    4  A    between atoms: C_18  and  C_21
REMARK    5  A    between atoms: C_21  and  O_22
REMARK    6  A    between atoms: C_24  and  C_25
REMARK    7  A    between atoms: C_24  and  C_28
REMARK    8  A    between atoms: C_25  and  C_26
REMARK    9  A    between atoms: C_28  and  C_29
REMARK                            x       y       z     vdW  Elec       q    Type
REMARK                         _______ _______ _______ _____ _____    ______ ____
ROOT
ATOM      1  O   UNL     1      32.992 -12.019 -23.706  0.00  0.00    -0.193 OA
ATOM      2  O   UNL     1      33.529 -17.421 -20.884  0.00  0.00    -0.275 OA
ATOM      3  N   UNL     1      32.205 -12.821 -21.687  0.00  0.00    -0.175 N 
ATOM      4  N   UNL     1      34.811 -15.873 -22.055  0.00  0.00    -0.259 N 
ATOM      5  N   UNL     1      33.926 -13.938 -22.924  0.00  0.00    -0.305 NA
ATOM      6  C   UNL     1      32.267 -13.789 -20.706  0.00  0.00    +0.084 C 
ATOM      7  C   UNL     1      33.039 -12.878 -22.823  0.00  0.00    +0.276 C 
ATOM      8  C   UNL     1      34.552 -17.124 -21.498  0.00  0.00    +0.227 C 
ATOM      9  C   UNL     1      33.953 -14.822 -21.984  0.00  0.00    +0.201 C 
ATOM     10  C   UNL     1      33.112 -14.819 -20.779  0.00  0.00    +0.066 C 
ATOM     11  H   UNL     1      35.665 -15.743 -22.527  0.00  0.00    +0.157 HD
ENDROOT
BRANCH   3  17
ATOM     12  F   UNL     1      31.700 -11.927 -19.205  0.00  0.00    -0.197 F 
ATOM     13  F   UNL     1      30.093 -10.611 -19.864  0.00  0.00    -0.197 F 
ATOM     14  O   UNL     1      31.629 -10.712 -22.498  0.00  0.00    -0.330 OA
ATOM     15  C   UNL     1      32.299  -9.957 -20.372  0.00  0.00    +0.206 C 
ATOM     16  C   UNL     1      31.321 -11.087 -20.181  0.00  0.00    +0.333 C 
ATOM     17  C   UNL     1      31.273 -11.737 -21.550  0.00  0.00    +0.272 C 
ATOM     18  C   UNL     1      31.944  -9.506 -21.777  0.00  0.00    +0.179 C 
BRANCH  15  19
ATOM     19  O   UNL     1      32.118  -8.922 -19.430  0.00  0.00    -0.377 OA
ATOM     20  H   UNL     1      32.971  -8.493 -19.253  0.00  0.00    +0.211 HD
ENDBRANCH  15  19
BRANCH  18  21
ATOM     21  C   UNL     1      33.072  -8.771 -22.477  0.00  0.00    +0.169 C 
BRANCH  21  22
ATOM     22  O   UNL     1      33.306  -7.543 -21.807  0.00  0.00    -0.379 OA
ATOM     23  H   UNL     1      32.573  -7.363 -21.198  0.00  0.00    +0.211 HD
ENDBRANCH  21  22
ENDBRANCH  18  21
ENDBRANCH   3  17
BRANCH   8  24
ATOM     24  C   UNL     1      35.706 -18.109 -21.716  0.00  0.00    +0.077 C 
BRANCH  24  25
ATOM     25  C   UNL     1      35.415 -19.438 -20.987  0.00  0.00    +0.009 C 
BRANCH  25  26
ATOM     26  C   UNL     1      36.618 -20.041 -20.254  0.00  0.00    +0.000 C 
ATOM     27  C   UNL     1      36.214 -21.266 -19.445  0.00  0.00    +0.000 C 
ENDBRANCH  25  26
ENDBRANCH  24  25
BRANCH  24  28
ATOM     28  C   UNL     1      36.013 -18.324 -23.209  0.00  0.00    +0.009 C 
BRANCH  28  29
ATOM     29  C   UNL     1      34.891 -19.084 -23.927  0.00  0.00    +0.000 C 
ATOM     30  C   UNL     1      34.307 -18.263 -25.067  0.00  0.00    +0.000 C 
ENDBRANCH  28  29
ENDBRANCH  24  28
ENDBRANCH   8  24
TORSDOF 9
ENDMDL
MODEL 3
REMARK VINA RESULT:      -8.7      3.129      5.073
REMARK  Name = 11646777
REMARK  9 active torsions:
REMARK  status: ('A' for Active; 'I' for Inactive)
REMARK    1  A    between atoms: N_3  and  C_17
REMARK    2  A    between atoms: C_8  and  C_24
REMARK    3  A    between atoms: C_15  and  O_19
REMARK    4  A    between atoms: C_18  and  C_21
REMARK    5  A    between atoms: C_21  and  O_22
REMARK    6  A    between atoms: C_24  and  C_25
REMARK    7  A    between atoms: C_24  and  C_28
REMARK    8  A    between atoms: C_25  and  C_26
REMARK    9  A    between atoms: C_28  and  C_29
REMARK                            x       y       z     vdW  Elec       q    Type
REMARK                         _______ _______ _______ _____ _____    ______ ____
ROOT
ATOM      1  O   UNL     1      34.294 -23.923 -15.117  0.00  0.00    -0.193 OA
ATOM      2  O   UNL     1      37.388 -21.648 -19.880  0.00  0.00    -0.275 OA
ATOM      3  N   UNL     1      36.527 -23.429 -15.447  0.00  0.00    -0.175 N 
ATOM      4  N   UNL     1      35.421 -21.303 -18.688  0.00  0.00    -0.259 N 
ATOM      5  N   UNL     1      34.807 -22.617 -16.906  0.00  0.00    -0.305 NA
ATOM      6  C   UNL     1      37.485 -22.788 -16.205  0.00  0.00    +0.084 C 
ATOM      7  C   UNL     1      35.160 -23.355 -15.786  0.00  0.00    +0.276 C 
ATOM      8  C   UNL     1      36.269 -21.149 -19.783  0.00  0.00    +0.227 C 
ATOM      9  C   UNL     1      35.735 -22.032 -17.586  0.00  0.00    +0.201 C 
ATOM     10  C   UNL     1      37.173 -22.071 -17.285  0.00  0.00    +0.066 C 
ATOM     11  H   UNL     1      34.544 -20.858 -18.714  0.00  0.00    +0.157 HD
ENDROOT
BRANCH   3  17
ATOM     12  F   UNL     1      35.764 -26.001 -15.327  0.00  0.00    -0.197 F 
ATOM     13  F   UNL     1      36.483 -26.255 -13.285  0.00  0.00    -0.197 F 
ATOM     14  O   UNL     1      38.335 -23.963 -14.076  0.00  0.00    -0.330 OA
ATOM     15  C   UNL     1      38.104 -26.120 -14.990  0.00  0.00    +0.206 C 
ATOM     16  C   UNL     1      36.756 -25.680 -14.481  0.00  0.00    +0.333 C 
ATOM     17  C   UNL     1      36.928 -24.185 -14.295  0.00  0.00    +0.272 C 
ATOM     18  C   UNL     1      39.022 -25.225 -14.178  0.00  0.00    +0.179 C 
BRANCH  15  19
ATOM     19  O   UNL     1      38.355 -27.487 -14.743  0.00  0.00    -0.377 OA
ATOM     20  H   UNL     1      37.826 -27.780 -13.983  0.00  0.00    +0.211 HD
ENDBRANCH  15  19
BRANCH  18  21
ATOM     21  C   UNL     1      40.382 -25.016 -14.820  0.00  0.00    +0.169 C 
BRANCH  21  22
ATOM     22  O   UNL     1      40.473 -25.831 -15.978  0.00  0.00    -0.379 OA
ATOM     23  H   UNL     1      40.880 -26.679 -15.744  0.00  0.00    +0.211 HD
ENDBRANCH  21  22
ENDBRANCH  18  21
ENDBRANCH   3  17
BRANCH   8  24
ATOM     24  C   UNL     1      35.660 -20.257 -20.871  0.00  0.00    +0.077 C 
BRANCH  24  25
ATOM     25  C   UNL     1      34.379 -19.576 -20.344  0.00  0.00    +0.009 C 
BRANCH  25  26
ATOM     26  C   UNL     1      33.072 -20.184 -20.865  0.00  0.00    +0.000 C 
ATOM     27  C   UNL     1      32.586 -21.306 -19.958  0.00  0.00    +0.000 C 
ENDBRANCH  25  26
ENDBRANCH  24  25
BRANCH  24  28
ATOM     28  C   UNL     1      36.673 -19.237 -21.420  0.00  0.00    +0.009 C 
BRANCH  28  29
ATOM     29  C   UNL     1      35.995 -18.126 -22.231  0.00  0.00    +0.000 C 
ATOM     30  C   UNL     1      35.524 -18.635 -23.584  0.00  0.00    +0.000 C 
ENDBRANCH  28  29
ENDBRANCH  24  28
ENDBRANCH   8  24
TORSDOF 9
ENDMDL
MODEL 4
REMARK VINA RESULT:      -8.4      8.889     13.334
REMARK  Name = 11646777
REMARK  9 active torsions:
REMARK  status: ('A' for Active; 'I' for Inactive)
REMARK    1  A    between atoms: N_3  and  C_17
REMARK    2  A    between atoms: C_8  and  C_24
REMARK    3  A    between atoms: C_15  and  O_19
REMARK    4  A    between atoms: C_18  and  C_21
REMARK    5  A    between atoms: C_21  and  O_22
REMARK    6  A    between atoms: C_24  and  C_25
REMARK    7  A    between atoms: C_24  and  C_28
REMARK    8  A    between atoms: C_25  and  C_26
REMARK    9  A    between atoms: C_28  and  C_29
REMARK                            x       y       z     vdW  Elec       q    Type
REMARK                         _______ _______ _______ _____ _____    ______ ____
ROOT
ATOM      1  O   UNL     1      35.195  -8.709 -25.230  0.00  0.00    -0.193 OA
ATOM      2  O   UNL     1      31.875 -13.448 -23.239  0.00  0.00    -0.275 OA
ATOM      3  N   UNL     1      33.497  -8.893 -23.674  0.00  0.00    -0.175 N 
ATOM      4  N   UNL     1      34.076 -12.881 -23.736  0.00  0.00    -0.259 N 
ATOM      5  N   UNL     1      34.673 -10.804 -24.516  0.00  0.00    -0.305 NA
ATOM      6  C   UNL     1      32.720  -9.710 -22.878  0.00  0.00    +0.084 C 
ATOM      7  C   UNL     1      34.495  -9.429 -24.514  0.00  0.00    +0.276 C 
ATOM      8  C   UNL     1      33.037 -13.773 -23.477  0.00  0.00    +0.227 C 
ATOM      9  C   UNL     1      33.925 -11.531 -23.756  0.00  0.00    +0.201 C 
ATOM     10  C   UNL     1      32.871 -11.034 -22.860  0.00  0.00    +0.066 C 
ATOM     11  H   UNL     1      34.970 -13.250 -23.915  0.00  0.00    +0.157 HD
ENDROOT
BRANCH   3  17
ATOM     12  F   UNL     1      31.210  -7.963 -24.734  0.00  0.00    -0.197 F 
ATOM     13  F   UNL     1      31.822  -5.879 -24.555  0.00  0.00    -0.197 F 
ATOM     14  O   UNL     1      33.568  -6.998 -22.318  0.00  0.00    -0.330 OA
ATOM     15  C   UNL     1      31.228  -7.002 -22.571  0.00  0.00    +0.206 C 
ATOM     16  C   UNL     1      31.847  -7.086 -23.941  0.00  0.00    +0.333 C 
ATOM     17  C   UNL     1      33.284  -7.473 -23.648  0.00  0.00    +0.272 C 
ATOM     18  C   UNL     1      32.373  -6.404 -21.776  0.00  0.00    +0.179 C 
BRANCH  15  19
ATOM     19  O   UNL     1      30.085  -6.174 -22.545  0.00  0.00    -0.377 OA
ATOM     20  H   UNL     1      29.803  -5.984 -23.454  0.00  0.00    +0.211 HD
ENDBRANCH  15  19
BRANCH  18  21
ATOM     21  C   UNL     1      32.289  -6.692 -20.288  0.00  0.00    +0.169 C 
BRANCH  21  22
ATOM     22  O   UNL     1      33.140  -7.785 -19.983  0.00  0.00    -0.379 OA
ATOM     23  H   UNL     1      33.813  -7.502 -19.346  0.00  0.00    +0.211 HD
ENDBRANCH  21  22
ENDBRANCH  18  21
ENDBRANCH   3  17
BRANCH   8  24
ATOM     24  C   UNL     1      33.502 -15.233 -23.500  0.00  0.00    +0.077 C 
BRANCH  24  25
ATOM     25  C   UNL     1      33.697 -15.706 -24.957  0.00  0.00    +0.009 C 
BRANCH  25  26
ATOM     26  C   UNL     1      34.814 -16.737 -25.150  0.00  0.00    +0.000 C 
ATOM     27  C   UNL     1      34.268 -18.157 -25.103  0.00  0.00    +0.000 C 
ENDBRANCH  25  26
ENDBRANCH  24  25
BRANCH  24  28
ATOM     28  C   UNL     1      34.764 -15.455 -22.647  0.00  0.00    +0.009 C 
BRANCH  28  29
ATOM     29  C   UNL     1      34.451 -16.159 -21.322  0.00  0.00    +0.000 C 
ATOM     30  C   UNL     1      34.922 -17.605 -21.338  0.00  0.00    +0.000 C 
ENDBRANCH  28  29
ENDBRANCH  24  28
ENDBRANCH   8  24
TORSDOF 9
ENDMDL
MODEL 5
REMARK VINA RESULT:      -8.3      7.427     11.926
REMARK  Name = 11646777
REMARK  9 active torsions:
REMARK  status: ('A' for Active; 'I' for Inactive)
REMARK    1  A    between atoms: N_3  and  C_17
REMARK    2  A    between atoms: C_8  and  C_24
REMARK    3  A    between atoms: C_15  and  O_19
REMARK    4  A    between atoms: C_18  and  C_21
REMARK    5  A    between atoms: C_21  and  O_22
REMARK    6  A    between atoms: C_24  and  C_25
REMARK    7  A    between atoms: C_24  and  C_28
REMARK    8  A    between atoms: C_25  and  C_26
REMARK    9  A    between atoms: C_28  and  C_29
REMARK                            x       y       z     vdW  Elec       q    Type
REMARK                         _______ _______ _______ _____ _____    ______ ____
ROOT
ATOM      1  O   UNL     1      30.479 -11.336 -20.577  0.00  0.00    -0.193 OA
ATOM      2  O   UNL     1      35.053 -14.573 -23.034  0.00  0.00    -0.275 OA
ATOM      3  N   UNL     1      31.889 -10.953 -22.366  0.00  0.00    -0.175 N 
ATOM      4  N   UNL     1      32.892 -14.853 -22.218  0.00  0.00    -0.259 N 
ATOM      5  N   UNL     1      31.659 -13.115 -21.360  0.00  0.00    -0.305 NA
ATOM      6  C   UNL     1      32.803 -11.459 -23.268  0.00  0.00    +0.084 C 
ATOM      7  C   UNL     1      31.296 -11.777 -21.388  0.00  0.00    +0.276 C 
ATOM      8  C   UNL     1      34.148 -15.299 -22.626  0.00  0.00    +0.227 C 
ATOM      9  C   UNL     1      32.517 -13.548 -22.221  0.00  0.00    +0.201 C 
ATOM     10  C   UNL     1      33.169 -12.741 -23.263  0.00  0.00    +0.066 C 
ATOM     11  H   UNL     1      32.241 -15.522 -21.909  0.00  0.00    +0.157 HD
ENDROOT
BRANCH   3  17
ATOM     12  F   UNL     1      32.421  -9.449 -20.205  0.00  0.00    -0.197 F 
ATOM     13  F   UNL     1      31.369  -7.711 -20.994  0.00  0.00    -0.197 F 
ATOM     14  O   UNL     1      32.028  -9.023 -23.668  0.00  0.00    -0.330 OA
ATOM     15  C   UNL     1      33.450  -8.243 -21.963  0.00  0.00    +0.206 C 
ATOM     16  C   UNL     1      32.182  -8.743 -21.322  0.00  0.00    +0.333 C 
ATOM     17  C   UNL     1      31.538  -9.561 -22.425  0.00  0.00    +0.272 C 
ATOM     18  C   UNL     1      32.969  -7.974 -23.376  0.00  0.00    +0.179 C 
BRANCH  15  19
ATOM     19  O   UNL     1      33.941  -7.073 -21.346  0.00  0.00    -0.377 OA
ATOM     20  H   UNL     1      34.476  -6.572 -21.982  0.00  0.00    +0.211 HD
ENDBRANCH  15  19
BRANCH  18  21
ATOM     21  C   UNL     1      34.085  -7.987 -24.406  0.00  0.00    +0.169 C 
BRANCH  21  22
ATOM     22  O   UNL     1      35.201  -8.676 -23.864  0.00  0.00    -0.379 OA
ATOM     23  H   UNL     1      35.906  -8.721 -24.527  0.00  0.00    +0.211 HD
ENDBRANCH  21  22
ENDBRANCH  18  21
ENDBRANCH   3  17
BRANCH   8  24
ATOM     24  C   UNL     1      34.284 -16.823 -22.534  0.00  0.00    +0.077 C 
BRANCH  24  25
ATOM     25  C   UNL     1      35.255 -17.337 -23.619  0.00  0.00    +0.009 C 
BRANCH  25  26
ATOM     26  C   UNL     1      34.575 -17.989 -24.827  0.00  0.00    +0.000 C 
ATOM     27  C   UNL     1      34.590 -19.508 -24.716  0.00  0.00    +0.000 C 
ENDBRANCH  25  26
ENDBRANCH  24  25
BRANCH  24  28
ATOM     28  C   UNL     1      34.694 -17.286 -21.125  0.00  0.00    +0.009 C 
BRANCH  28  29
ATOM     29  C   UNL     1      35.043 -18.779 -21.084  0.00  0.00    +0.000 C 
ATOM     30  C   UNL     1      33.796 -19.635 -20.925  0.00  0.00    +0.000 C 
ENDBRANCH  28  29
ENDBRANCH  24  28
ENDBRANCH   8  24
TORSDOF 9
ENDMDL
MODEL 6
REMARK VINA RESULT:      -8.2      1.592      2.018
REMARK  Name = 11646777
REMARK  9 active torsions:
REMARK  status: ('A' for Active; 'I' for Inactive)
REMARK    1  A    between atoms: N_3  and  C_17
REMARK    2  A    between atoms: C_8  and  C_24
REMARK    3  A    between atoms: C_15  and  O_19
REMARK    4  A    between atoms: C_18  and  C_21
REMARK    5  A    between atoms: C_21  and  O_22
REMARK    6  A    between atoms: C_24  and  C_25
REMARK    7  A    between atoms: C_24  and  C_28
REMARK    8  A    between atoms: C_25  and  C_26
REMARK    9  A    between atoms: C_28  and  C_29
REMARK                            x       y       z     vdW  Elec       q    Type
REMARK                         _______ _______ _______ _____ _____    ______ ____
ROOT
ATOM      1  O   UNL     1      31.764 -22.672 -17.858  0.00  0.00    -0.193 OA
ATOM      2  O   UNL     1      35.766 -20.228 -21.789  0.00  0.00    -0.275 OA
ATOM      3  N   UNL     1      34.072 -22.705 -17.974  0.00  0.00    -0.175 N 
ATOM      4  N   UNL     1      33.832 -19.675 -20.620  0.00  0.00    -0.259 N 
ATOM      5  N   UNL     1      32.750 -21.163 -19.245  0.00  0.00    -0.305 NA
ATOM      6  C   UNL     1      35.226 -22.175 -18.513  0.00  0.00    +0.084 C 
ATOM      7  C   UNL     1      32.803 -22.206 -18.333  0.00  0.00    +0.276 C 
ATOM      8  C   UNL     1      34.795 -19.494 -21.611  0.00  0.00    +0.227 C 
ATOM      9  C   UNL     1      33.853 -20.696 -19.725  0.00  0.00    +0.201 C 
ATOM     10  C   UNL     1      35.203 -21.171 -19.391  0.00  0.00    +0.066 C 
ATOM     11  H   UNL     1      33.095 -19.026 -20.566  0.00  0.00    +0.157 HD
ENDROOT
BRANCH   3  17
ATOM     12  F   UNL     1      36.277 -22.830 -16.445  0.00  0.00    -0.197 F 
ATOM     13  F   UNL     1      35.750 -24.776 -15.616  0.00  0.00    -0.197 F 
ATOM     14  O   UNL     1      32.923 -23.860 -16.306  0.00  0.00    -0.330 OA
ATOM     15  C   UNL     1      34.521 -22.913 -14.860  0.00  0.00    +0.206 C 
ATOM     16  C   UNL     1      35.253 -23.575 -15.998  0.00  0.00    +0.333 C 
ATOM     17  C   UNL     1      34.165 -23.786 -17.033  0.00  0.00    +0.272 C 
ATOM     18  C   UNL     1      33.194 -23.648 -14.908  0.00  0.00    +0.179 C 
BRANCH  15  19
ATOM     19  O   UNL     1      35.173 -23.092 -13.622  0.00  0.00    -0.377 OA
ATOM     20  H   UNL     1      35.061 -24.009 -13.327  0.00  0.00    +0.211 HD
ENDBRANCH  15  19
BRANCH  18  21
ATOM     21  C   UNL     1      32.052 -22.872 -14.277  0.00  0.00    +0.169 C 
BRANCH  21  22
ATOM     22  O   UNL     1      32.255 -22.816 -12.874  0.00  0.00    -0.379 OA
ATOM     23  H   UNL     1      31.761 -22.068 -12.506  0.00  0.00    +0.211 HD
ENDBRANCH  21  22
ENDBRANCH  18  21
ENDBRANCH   3  17
BRANCH   8  24
ATOM     24  C   UNL     1      34.529 -18.248 -22.463  0.00  0.00    +0.077 C 
BRANCH  24  25
ATOM     25  C   UNL     1      34.801 -16.972 -21.638  0.00  0.00    +0.009 C 
BRANCH  25  26
ATOM     26  C   UNL     1      33.854 -15.805 -21.936  0.00  0.00    +0.000 C 
ATOM     27  C   UNL     1      32.796 -15.663 -20.849  0.00  0.00    +0.000 C 
ENDBRANCH  25  26
ENDBRANCH  24  25
BRANCH  24  28
ATOM     28  C   UNL     1      35.322 -18.265 -23.782  0.00  0.00    +0.009 C 
BRANCH  28  29
ATOM     29  C   UNL     1      34.421 -18.048 -25.003  0.00  0.00    +0.000 C 
ATOM     30  C   UNL     1      34.465 -16.603 -25.475  0.00  0.00    +0.000 C 
ENDBRANCH  28  29
ENDBRANCH  24  28
ENDBRANCH   8  24
TORSDOF 9
ENDMDL
MODEL 7
REMARK VINA RESULT:      -8.1      7.034     11.407
REMARK  Name = 11646777
REMARK  9 active torsions:
REMARK  status: ('A' for Active; 'I' for Inactive)
REMARK    1  A    between atoms: N_3  and  C_17
REMARK    2  A    between atoms: C_8  and  C_24
REMARK    3  A    between atoms: C_15  and  O_19
REMARK    4  A    between atoms: C_18  and  C_21
REMARK    5  A    between atoms: C_21  and  O_22
REMARK    6  A    between atoms: C_24  and  C_25
REMARK    7  A    between atoms: C_24  and  C_28
REMARK    8  A    between atoms: C_25  and  C_26
REMARK    9  A    between atoms: C_28  and  C_29
REMARK                            x       y       z     vdW  Elec       q    Type
REMARK                         _______ _______ _______ _____ _____    ______ ____
ROOT
ATOM      1  O   UNL     1      32.316 -10.553 -23.534  0.00  0.00    -0.193 OA
ATOM      2  O   UNL     1      32.471 -16.091 -20.935  0.00  0.00    -0.275 OA
ATOM      3  N   UNL     1      31.895 -11.292 -21.385  0.00  0.00    -0.175 N 
ATOM      4  N   UNL     1      33.707 -14.752 -22.381  0.00  0.00    -0.259 N 
ATOM      5  N   UNL     1      33.025 -12.648 -23.005  0.00  0.00    -0.305 NA
ATOM      6  C   UNL     1      32.005 -12.301 -20.450  0.00  0.00    +0.084 C 
ATOM      7  C   UNL     1      32.407 -11.448 -22.690  0.00  0.00    +0.276 C 
ATOM      8  C   UNL     1      33.354 -15.959 -21.780  0.00  0.00    +0.227 C 
ATOM      9  C   UNL     1      33.107 -13.566 -22.101  0.00  0.00    +0.201 C 
ATOM     10  C   UNL     1      32.595 -13.464 -20.727  0.00  0.00    +0.066 C 
ATOM     11  H   UNL     1      34.431 -14.759 -23.047  0.00  0.00    +0.157 HD
ENDROOT
BRANCH   3  17
ATOM     12  F   UNL     1      32.519 -10.217 -19.003  0.00  0.00    -0.197 F 
ATOM     13  F   UNL     1      30.979  -8.681 -19.147  0.00  0.00    -0.197 F 
ATOM     14  O   UNL     1      31.347  -9.155 -22.137  0.00  0.00    -0.330 OA
ATOM     15  C   UNL     1      32.884  -8.428 -20.510  0.00  0.00    +0.206 C 
ATOM     16  C   UNL     1      31.911  -9.369 -19.849  0.00  0.00    +0.333 C 
ATOM     17  C   UNL     1      31.248 -10.062 -21.023  0.00  0.00    +0.272 C 
ATOM     18  C   UNL     1      32.079  -7.988 -21.718  0.00  0.00    +0.179 C 
BRANCH  15  19
ATOM     19  O   UNL     1      33.226  -7.337 -19.684  0.00  0.00    -0.377 OA
ATOM     20  H   UNL     1      33.296  -7.638 -18.763  0.00  0.00    +0.211 HD
ENDBRANCH  15  19
BRANCH  18  21
ATOM     21  C   UNL     1      32.938  -7.484 -22.864  0.00  0.00    +0.169 C 
BRANCH  21  22
ATOM     22  O   UNL     1      34.304  -7.632 -22.512  0.00  0.00    -0.379 OA
ATOM     23  H   UNL     1      34.383  -8.260 -21.779  0.00  0.00    +0.211 HD
ENDBRANCH  21  22
ENDBRANCH  18  21
ENDBRANCH   3  17
BRANCH   8  24
ATOM     24  C   UNL     1      34.213 -17.128 -22.274  0.00  0.00    +0.077 C 
BRANCH  24  25
ATOM     25  C   UNL     1      35.167 -16.653 -23.390  0.00  0.00    +0.009 C 
BRANCH  25  26
ATOM     26  C   UNL     1      34.803 -17.147 -24.795  0.00  0.00    +0.000 C 
ATOM     27  C   UNL     1      34.392 -18.613 -24.774  0.00  0.00    +0.000 C 
ENDBRANCH  25  26
ENDBRANCH  24  25
BRANCH  24  28
ATOM     28  C   UNL     1      34.967 -17.822 -21.125  0.00  0.00    +0.009 C 
BRANCH  28  29
ATOM     29  C   UNL     1      34.825 -19.347 -21.177  0.00  0.00    +0.000 C 
ATOM     30  C   UNL     1      33.421 -19.787 -20.792  0.00  0.00    +0.000 C 
ENDBRANCH  28  29
ENDBRANCH  24  28
ENDBRANCH   8  24
TORSDOF 9
ENDMDL
MODEL 8
REMARK VINA RESULT:      -8.1      6.065     10.669
REMARK  Name = 11646777
REMARK  9 active torsions:
REMARK  status: ('A' for Active; 'I' for Inactive)
REMARK    1  A    between atoms: N_3  and  C_17
REMARK    2  A    between atoms: C_8  and  C_24
REMARK    3  A    between atoms: C_15  and  O_19
REMARK    4  A    between atoms: C_18  and  C_21
REMARK    5  A    between atoms: C_21  and  O_22
REMARK    6  A    between atoms: C_24  and  C_25
REMARK    7  A    between atoms: C_24  and  C_28
REMARK    8  A    between atoms: C_25  and  C_26
REMARK    9  A    between atoms: C_28  and  C_29
REMARK                            x       y       z     vdW  Elec       q    Type
REMARK                         _______ _______ _______ _____ _____    ______ ____
ROOT
ATOM      1  O   UNL     1      31.925 -13.028 -21.547  0.00  0.00    -0.193 OA
ATOM      2  O   UNL     1      35.849 -17.632 -22.466  0.00  0.00    -0.275 OA
ATOM      3  N   UNL     1      32.915 -13.892 -23.448  0.00  0.00    -0.175 N 
ATOM      4  N   UNL     1      33.917 -17.132 -21.271  0.00  0.00    -0.259 N 
ATOM      5  N   UNL     1      32.903 -15.072 -21.363  0.00  0.00    -0.305 NA
ATOM      6  C   UNL     1      33.610 -14.926 -24.041  0.00  0.00    +0.084 C 
ATOM      7  C   UNL     1      32.546 -13.946 -22.088  0.00  0.00    +0.276 C 
ATOM      8  C   UNL     1      35.053 -17.885 -21.564  0.00  0.00    +0.227 C 
ATOM      9  C   UNL     1      33.553 -16.017 -21.956  0.00  0.00    +0.201 C 
ATOM     10  C   UNL     1      33.965 -16.021 -23.366  0.00  0.00    +0.066 C 
ATOM     11  H   UNL     1      33.346 -17.425 -20.525  0.00  0.00    +0.157 HD
ENDROOT
BRANCH   3  17
ATOM     12  F   UNL     1      34.323 -11.641 -23.042  0.00  0.00    -0.197 F 
ATOM     13  F   UNL     1      33.019 -10.441 -24.311  0.00  0.00    -0.197 F 
ATOM     14  O   UNL     1      32.458 -13.145 -25.608  0.00  0.00    -0.330 OA
ATOM     15  C   UNL     1      34.475 -11.953 -25.384  0.00  0.00    +0.206 C 
ATOM     16  C   UNL     1      33.616 -11.651 -24.184  0.00  0.00    +0.333 C 
ATOM     17  C   UNL     1      32.562 -12.740 -24.230  0.00  0.00    +0.272 C 
ATOM     18  C   UNL     1      33.424 -12.407 -26.380  0.00  0.00    +0.179 C 
BRANCH  15  19
ATOM     19  O   UNL     1      35.177 -10.818 -25.844  0.00  0.00    -0.377 OA
ATOM     20  H   UNL     1      34.564 -10.070 -25.925  0.00  0.00    +0.211 HD
ENDBRANCH  15  19
BRANCH  18  21
ATOM     21  C   UNL     1      33.981 -13.289 -27.482  0.00  0.00    +0.169 C 
BRANCH  21  22
ATOM     22  O   UNL     1      33.475 -14.605 -27.316  0.00  0.00    -0.379 OA
ATOM     23  H   UNL     1      32.691 -14.722 -27.873  0.00  0.00    +0.211 HD
ENDBRANCH  21  22
ENDBRANCH  18  21
ENDBRANCH   3  17
BRANCH   8  24
ATOM     24  C   UNL     1      35.201 -19.099 -20.641  0.00  0.00    +0.077 C 
BRANCH  24  25
ATOM     25  C   UNL     1      34.214 -20.210 -21.060  0.00  0.00    +0.009 C 
BRANCH  25  26
ATOM     26  C   UNL     1      33.014 -20.385 -20.124  0.00  0.00    +0.000 C 
ATOM     27  C   UNL     1      33.179 -21.613 -19.239  0.00  0.00    +0.000 C 
ENDBRANCH  25  26
ENDBRANCH  24  25
BRANCH  24  28
ATOM     28  C   UNL     1      36.653 -19.609 -20.579  0.00  0.00    +0.009 C 
BRANCH  28  29
ATOM     29  C   UNL     1      36.731 -21.088 -20.185  0.00  0.00    +0.000 C 
ATOM     30  C   UNL     1      36.731 -21.260 -18.673  0.00  0.00    +0.000 C 
ENDBRANCH  28  29
ENDBRANCH  24  28
ENDBRANCH   8  24
TORSDOF 9
ENDMDL
MODEL 9
REMARK VINA RESULT:      -8.0      3.048      5.358
REMARK  Name = 11646777
REMARK  9 active torsions:
REMARK  status: ('A' for Active; 'I' for Inactive)
REMARK    1  A    between atoms: N_3  and  C_17
REMARK    2  A    between atoms: C_8  and  C_24
REMARK    3  A    between atoms: C_15  and  O_19
REMARK    4  A    between atoms: C_18  and  C_21
REMARK    5  A    between atoms: C_21  and  O_22
REMARK    6  A    between atoms: C_24  and  C_25
REMARK    7  A    between atoms: C_24  and  C_28
REMARK    8  A    between atoms: C_25  and  C_26
REMARK    9  A    between atoms: C_28  and  C_29
REMARK                            x       y       z     vdW  Elec       q    Type
REMARK                         _______ _______ _______ _____ _____    ______ ____
ROOT
ATOM      1  O   UNL     1      32.707 -20.443 -20.597  0.00  0.00    -0.193 OA
ATOM      2  O   UNL     1      35.129 -15.312 -22.888  0.00  0.00    -0.275 OA
ATOM      3  N   UNL     1      34.885 -19.749 -20.936  0.00  0.00    -0.175 N 
ATOM      4  N   UNL     1      33.460 -16.012 -21.427  0.00  0.00    -0.259 N 
ATOM      5  N   UNL     1      33.033 -18.230 -21.007  0.00  0.00    -0.305 NA
ATOM      6  C   UNL     1      35.757 -18.714 -21.201  0.00  0.00    +0.084 C 
ATOM      7  C   UNL     1      33.496 -19.525 -20.833  0.00  0.00    +0.276 C 
ATOM      8  C   UNL     1      34.108 -15.085 -22.241  0.00  0.00    +0.227 C 
ATOM      9  C   UNL     1      33.883 -17.290 -21.252  0.00  0.00    +0.201 C 
ATOM     10  C   UNL     1      35.338 -17.459 -21.371  0.00  0.00    +0.066 C 
ATOM     11  H   UNL     1      32.648 -15.723 -20.952  0.00  0.00    +0.157 HD
ENDROOT
BRANCH   3  17
ATOM     12  F   UNL     1      37.327 -20.001 -19.847  0.00  0.00    -0.197 F 
ATOM     13  F   UNL     1      37.416 -22.146 -20.219  0.00  0.00    -0.197 F 
ATOM     14  O   UNL     1      34.378 -21.882 -20.142  0.00  0.00    -0.330 OA
ATOM     15  C   UNL     1      35.990 -21.409 -18.494  0.00  0.00    +0.206 C 
ATOM     16  C   UNL     1      36.603 -21.131 -19.841  0.00  0.00    +0.333 C 
ATOM     17  C   UNL     1      35.400 -21.079 -20.763  0.00  0.00    +0.272 C 
ATOM     18  C   UNL     1      34.874 -22.363 -18.879  0.00  0.00    +0.179 C 
BRANCH  15  19
ATOM     19  O   UNL     1      36.903 -22.007 -17.599  0.00  0.00    -0.377 OA
ATOM     20  H   UNL     1      36.862 -21.552 -16.743  0.00  0.00    +0.211 HD
ENDBRANCH  15  19
BRANCH  18  21
ATOM     21  C   UNL     1      33.742 -22.405 -17.868  0.00  0.00    +0.169 C 
BRANCH  21  22
ATOM     22  O   UNL     1      32.506 -22.338 -18.560  0.00  0.00    -0.379 OA
ATOM     23  H   UNL     1      31.789 -22.185 -17.926  0.00  0.00    +0.211 HD
ENDBRANCH  21  22
ENDBRANCH  18  21
ENDBRANCH   3  17
BRANCH   8  24
ATOM     24  C   UNL     1      33.418 -13.717 -22.231  0.00  0.00    +0.077 C 
BRANCH  24  25
ATOM     25  C   UNL     1      32.740 -13.454 -23.593  0.00  0.00    +0.009 C 
BRANCH  25  26
ATOM     26  C   UNL     1      33.574 -12.621 -24.572  0.00  0.00    +0.000 C 
ATOM     27  C   UNL     1      33.801 -11.212 -24.043  0.00  0.00    +0.000 C 
ENDBRANCH  25  26
ENDBRANCH  24  25
BRANCH  24  28
ATOM     28  C   UNL     1      32.434 -13.570 -21.057  0.00  0.00    +0.009 C 
BRANCH  28  29
ATOM     29  C   UNL     1      31.613 -12.278 -21.147  0.00  0.00    +0.000 C 
ATOM     30  C   UNL     1      31.617 -11.526 -19.824  0.00  0.00    +0.000 C 
ENDBRANCH  28  29
ENDBRANCH  24  28
ENDBRANCH   8  24
TORSDOF 9
ENDMDL
