MODEL 1
REMARK VINA RESULT:      -9.8      0.000      0.000
REMARK  Name = 57899889
REMARK  1 active torsions:
REMARK  status: ('A' for Active; 'I' for Inactive)
REMARK    1  A    between atoms: C_6  and  C_18
REMARK                            x       y       z     vdW  Elec       q    Type
REMARK                         _______ _______ _______ _____ _____    ______ ____
ROOT
ATOM      1 CL   UNL     1      34.070 -19.437 -22.060  0.00  0.00    -0.082 Cl
ATOM      2  O   UNL     1      35.198 -22.905 -17.507  0.00  0.00    -0.440 OA
ATOM      3  O   UNL     1      34.490 -24.455 -15.198  0.00  0.00    -0.206 OA
ATOM      4  N   UNL     1      31.736 -22.401 -17.414  0.00  0.00    -0.289 N 
ATOM      5  N   UNL     1      32.287 -23.841 -15.544  0.00  0.00    -0.322 NA
ATOM      6  C   UNL     1      31.444 -23.167 -16.286  0.00  0.00    +0.154 C 
ATOM      7  C   UNL     1      33.033 -22.368 -17.756  0.00  0.00    +0.100 A 
ATOM      8  C   UNL     1      33.947 -23.058 -17.008  0.00  0.00    +0.252 A 
ATOM      9  C   UNL     1      33.730 -21.731 -18.798  0.00  0.00    +0.053 A 
ATOM     10  C   UNL     1      35.067 -22.092 -18.604  0.00  0.00    +0.148 A 
ATOM     11  C   UNL     1      33.648 -23.847 -15.848  0.00  0.00    +0.242 C 
ATOM     12  C   UNL     1      33.410 -20.896 -19.883  0.00  0.00    +0.016 C 
ATOM     13  C   UNL     1      36.112 -21.671 -19.425  0.00  0.00    +0.038 C 
ATOM     14  C   UNL     1      34.444 -20.461 -20.724  0.00  0.00    +0.058 C 
ATOM     15  C   UNL     1      35.768 -20.842 -20.497  0.00  0.00    +0.015 C 
ATOM     16  H   UNL     1      31.042 -21.920 -17.921  0.00  0.00    +0.154 HD
ENDROOT
BRANCH   6  18
ATOM     17  N   UNL     1      29.248 -22.495 -16.915  0.00  0.00    +0.390 N 
ATOM     18  C   UNL     1      30.004 -23.216 -15.891  0.00  0.00    +0.008 C 
ATOM     19  C   UNL     1      29.444 -24.636 -15.875  0.00  0.00    -0.015 C 
ATOM     20  C   UNL     1      28.341 -24.630 -16.923  0.00  0.00    -0.025 C 
ATOM     21  C   UNL     1      27.958 -23.168 -17.021  0.00  0.00    -0.081 C 
ATOM     22  H   UNL     1      29.740 -22.530 -17.807  0.00  0.00    -0.084 HD
ATOM     23  H   UNL     1      29.134 -21.512 -16.668  0.00  0.00    -0.084 HD
ENDBRANCH   6  18
TORSDOF 1
ENDMDL
MODEL 2
REMARK VINA RESULT:      -9.6      3.284      4.602
REMARK  Name = 57899889
REMARK  1 active torsions:
REMARK  status: ('A' for Active; 'I' for Inactive)
REMARK    1  A    between atoms: C_6  and  C_18
REMARK                            x       y       z     vdW  Elec       q    Type
REMARK                         _______ _______ _______ _____ _____    ______ ____
ROOT
ATOM      1 CL   UNL     1      36.959 -24.332 -11.448  0.00  0.00    -0.082 Cl
ATOM      2  O   UNL     1      35.335 -23.206 -16.936  0.00  0.00    -0.440 OA
ATOM      3  O   UNL     1      33.425 -22.691 -19.014  0.00  0.00    -0.206 OA
ATOM      4  N   UNL     1      32.343 -23.341 -15.126  0.00  0.00    -0.289 N 
ATOM      5  N   UNL     1      31.751 -22.874 -17.429  0.00  0.00    -0.322 NA
ATOM      6  C   UNL     1      31.456 -23.088 -16.171  0.00  0.00    +0.154 C 
ATOM      7  C   UNL     1      33.639 -23.363 -15.476  0.00  0.00    +0.100 A 
ATOM      8  C   UNL     1      33.991 -23.145 -16.780  0.00  0.00    +0.252 A 
ATOM      9  C   UNL     1      34.822 -23.579 -14.746  0.00  0.00    +0.053 A 
ATOM     10  C   UNL     1      35.847 -23.471 -15.691  0.00  0.00    +0.148 A 
ATOM     11  C   UNL     1      33.079 -22.883 -17.855  0.00  0.00    +0.242 C 
ATOM     12  C   UNL     1      35.165 -23.849 -13.410  0.00  0.00    +0.016 C 
ATOM     13  C   UNL     1      37.199 -23.619 -15.389  0.00  0.00    +0.038 C 
ATOM     14  C   UNL     1      36.519 -24.000 -13.082  0.00  0.00    +0.058 C 
ATOM     15  C   UNL     1      37.515 -23.887 -14.054  0.00  0.00    +0.015 C 
ATOM     16  H   UNL     1      32.042 -23.493 -14.201  0.00  0.00    +0.154 HD
ENDROOT
BRANCH   6  18
ATOM     17  N   UNL     1      29.303 -22.344 -16.862  0.00  0.00    +0.390 N 
ATOM     18  C   UNL     1      30.009 -23.058 -15.799  0.00  0.00    +0.008 C 
ATOM     19  C   UNL     1      29.386 -24.451 -15.741  0.00  0.00    -0.015 C 
ATOM     20  C   UNL     1      28.301 -24.436 -16.808  0.00  0.00    -0.025 C 
ATOM     21  C   UNL     1      27.985 -22.963 -16.967  0.00  0.00    -0.081 C 
ATOM     22  H   UNL     1      29.806 -22.434 -17.744  0.00  0.00    -0.084 HD
ATOM     23  H   UNL     1      29.229 -21.348 -16.654  0.00  0.00    -0.084 HD
ENDBRANCH   6  18
TORSDOF 1
ENDMDL
MODEL 3
REMARK VINA RESULT:      -9.5      6.251      8.942
REMARK  Name = 57899889
REMARK  1 active torsions:
REMARK  status: ('A' for Active; 'I' for Inactive)
REMARK    1  A    between atoms: C_6  and  C_18
REMARK                            x       y       z     vdW  Elec       q    Type
REMARK                         _______ _______ _______ _____ _____    ______ ____
ROOT
ATOM      1 CL   UNL     1      33.374 -11.543 -23.817  0.00  0.00    -0.082 Cl
ATOM      2  O   UNL     1      33.990 -17.037 -25.678  0.00  0.00    -0.440 OA
ATOM      3  O   UNL     1      34.547 -19.832 -25.349  0.00  0.00    -0.206 OA
ATOM      4  N   UNL     1      34.673 -17.171 -22.248  0.00  0.00    -0.289 N 
ATOM      5  N   UNL     1      34.909 -19.428 -23.101  0.00  0.00    -0.322 NA
ATOM      6  C   UNL     1      34.936 -18.536 -22.141  0.00  0.00    +0.154 C 
ATOM      7  C   UNL     1      34.361 -16.749 -23.484  0.00  0.00    +0.100 A 
ATOM      8  C   UNL     1      34.322 -17.648 -24.515  0.00  0.00    +0.252 A 
ATOM      9  C   UNL     1      34.037 -15.485 -24.008  0.00  0.00    +0.053 A 
ATOM     10  C   UNL     1      33.815 -15.712 -25.370  0.00  0.00    +0.148 A 
ATOM     11  C   UNL     1      34.590 -19.052 -24.405  0.00  0.00    +0.242 C 
ATOM     12  C   UNL     1      33.900 -14.177 -23.513  0.00  0.00    +0.016 C 
ATOM     13  C   UNL     1      33.464 -14.713 -26.276  0.00  0.00    +0.038 C 
ATOM     14  C   UNL     1      33.547 -13.155 -24.405  0.00  0.00    +0.058 C 
ATOM     15  C   UNL     1      33.333 -13.420 -25.760  0.00  0.00    +0.015 C 
ATOM     16  H   UNL     1      34.715 -16.562 -21.476  0.00  0.00    +0.154 HD
ENDROOT
BRANCH   6  18
ATOM     17  N   UNL     1      34.450 -20.194 -20.503  0.00  0.00    +0.390 N 
ATOM     18  C   UNL     1      35.285 -19.023 -20.773  0.00  0.00    +0.008 C 
ATOM     19  C   UNL     1      36.731 -19.503 -20.668  0.00  0.00    -0.015 C 
ATOM     20  C   UNL     1      36.625 -20.977 -20.307  0.00  0.00    -0.025 C 
ATOM     21  C   UNL     1      35.254 -21.088 -19.675  0.00  0.00    -0.081 C 
ATOM     22  H   UNL     1      34.196 -20.655 -21.376  0.00  0.00    -0.084 HD
ATOM     23  H   UNL     1      33.584 -19.931 -20.033  0.00  0.00    -0.084 HD
ENDBRANCH   6  18
TORSDOF 1
ENDMDL
MODEL 4
REMARK VINA RESULT:      -9.5      8.981     11.895
REMARK  Name = 57899889
REMARK  1 active torsions:
REMARK  status: ('A' for Active; 'I' for Inactive)
REMARK    1  A    between atoms: C_6  and  C_18
REMARK                            x       y       z     vdW  Elec       q    Type
REMARK                         _______ _______ _______ _____ _____    ______ ____
ROOT
ATOM      1 CL   UNL     1      35.683 -19.237 -21.411  0.00  0.00    -0.082 Cl
ATOM      2  O   UNL     1      33.775 -16.124 -25.960  0.00  0.00    -0.440 OA
ATOM      3  O   UNL     1      32.983 -13.709 -27.291  0.00  0.00    -0.206 OA
ATOM      4  N   UNL     1      34.208 -13.786 -23.392  0.00  0.00    -0.289 N 
ATOM      5  N   UNL     1      33.413 -12.564 -25.328  0.00  0.00    -0.322 NA
ATOM      6  C   UNL     1      33.813 -12.641 -24.083  0.00  0.00    +0.154 C 
ATOM      7  C   UNL     1      34.164 -14.922 -24.105  0.00  0.00    +0.100 A 
ATOM      8  C   UNL     1      33.752 -14.886 -25.409  0.00  0.00    +0.252 A 
ATOM      9  C   UNL     1      34.471 -16.259 -23.793  0.00  0.00    +0.053 A 
ATOM     10  C   UNL     1      34.216 -16.966 -24.971  0.00  0.00    +0.148 A 
ATOM     11  C   UNL     1      33.347 -13.709 -26.121  0.00  0.00    +0.242 C 
ATOM     12  C   UNL     1      34.932 -16.967 -22.670  0.00  0.00    +0.016 C 
ATOM     13  C   UNL     1      34.390 -18.343 -25.103  0.00  0.00    +0.038 C 
ATOM     14  C   UNL     1      35.117 -18.352 -22.778  0.00  0.00    +0.058 C 
ATOM     15  C   UNL     1      34.850 -19.025 -23.973  0.00  0.00    +0.015 C 
ATOM     16  H   UNL     1      34.497 -13.763 -22.451  0.00  0.00    +0.154 HD
ENDROOT
BRANCH   6  18
ATOM     17  N   UNL     1      34.542 -10.376 -24.133  0.00  0.00    +0.390 N 
ATOM     18  C   UNL     1      33.856 -11.367 -23.305  0.00  0.00    +0.008 C 
ATOM     19  C   UNL     1      32.467 -10.797 -23.027  0.00  0.00    -0.015 C 
ATOM     20  C   UNL     1      32.455  -9.447 -23.729  0.00  0.00    -0.025 C 
ATOM     21  C   UNL     1      33.923  -9.089 -23.829  0.00  0.00    -0.081 C 
ATOM     22  H   UNL     1      34.425 -10.599 -25.121  0.00  0.00    -0.084 HD
ATOM     23  H   UNL     1      35.543 -10.360 -23.940  0.00  0.00    -0.084 HD
ENDBRANCH   6  18
TORSDOF 1
ENDMDL
MODEL 5
REMARK VINA RESULT:      -9.4      8.379     10.794
REMARK  Name = 57899889
REMARK  1 active torsions:
REMARK  status: ('A' for Active; 'I' for Inactive)
REMARK    1  A    between atoms: C_6  and  C_18
REMARK                            x       y       z     vdW  Elec       q    Type
REMARK                         _______ _______ _______ _____ _____    ______ ____
ROOT
ATOM      1 CL   UNL     1      34.284 -19.450 -20.651  0.00  0.00    -0.082 Cl
ATOM      2  O   UNL     1      34.573 -14.792 -24.150  0.00  0.00    -0.440 OA
ATOM      3  O   UNL     1      33.947 -12.105 -24.936  0.00  0.00    -0.206 OA
ATOM      4  N   UNL     1      32.470 -13.815 -21.530  0.00  0.00    -0.289 N 
ATOM      5  N   UNL     1      32.643 -11.923 -23.035  0.00  0.00    -0.322 NA
ATOM      6  C   UNL     1      32.196 -12.516 -21.956  0.00  0.00    +0.154 C 
ATOM      7  C   UNL     1      33.285 -14.515 -22.335  0.00  0.00    +0.100 A 
ATOM      8  C   UNL     1      33.773 -13.934 -23.473  0.00  0.00    +0.252 A 
ATOM      9  C   UNL     1      33.796 -15.824 -22.271  0.00  0.00    +0.053 A 
ATOM     10  C   UNL     1      34.589 -15.951 -23.417  0.00  0.00    +0.148 A 
ATOM     11  C   UNL     1      33.493 -12.597 -23.911  0.00  0.00    +0.242 C 
ATOM     12  C   UNL     1      33.696 -16.920 -21.398  0.00  0.00    +0.016 C 
ATOM     13  C   UNL     1      35.292 -17.107 -23.749  0.00  0.00    +0.038 C 
ATOM     14  C   UNL     1      34.395 -18.095 -21.711  0.00  0.00    +0.058 C 
ATOM     15  C   UNL     1      35.176 -18.184 -22.865  0.00  0.00    +0.015 C 
ATOM     16  H   UNL     1      32.093 -14.191 -20.701  0.00  0.00    +0.154 HD
ENDROOT
BRANCH   6  18
ATOM     17  N   UNL     1      31.756 -11.907 -19.697  0.00  0.00    +0.390 N 
ATOM     18  C   UNL     1      31.291 -11.721 -21.072  0.00  0.00    +0.008 C 
ATOM     19  C   UNL     1      31.368 -10.221 -21.345  0.00  0.00    -0.015 C 
ATOM     20  C   UNL     1      31.873  -9.616 -20.043  0.00  0.00    -0.025 C 
ATOM     21  C   UNL     1      31.494 -10.649 -19.004  0.00  0.00    -0.081 C 
ATOM     22  H   UNL     1      32.753 -12.115 -19.686  0.00  0.00    -0.084 HD
ATOM     23  H   UNL     1      31.276 -12.686 -19.246  0.00  0.00    -0.084 HD
ENDBRANCH   6  18
TORSDOF 1
ENDMDL
MODEL 6
REMARK VINA RESULT:      -9.4      3.411      6.030
REMARK  Name = 57899889
REMARK  1 active torsions:
REMARK  status: ('A' for Active; 'I' for Inactive)
REMARK    1  A    between atoms: C_6  and  C_18
REMARK                            x       y       z     vdW  Elec       q    Type
REMARK                         _______ _______ _______ _____ _____    ______ ____
ROOT
ATOM      1 CL   UNL     1      38.688 -24.677 -13.251  0.00  0.00    -0.082 Cl
ATOM      2  O   UNL     1      32.998 -23.836 -14.220  0.00  0.00    -0.440 OA
ATOM      3  O   UNL     1      30.723 -23.133 -15.821  0.00  0.00    -0.206 OA
ATOM      4  N   UNL     1      34.549 -23.063 -17.260  0.00  0.00    -0.289 N 
ATOM      5  N   UNL     1      32.168 -22.736 -17.582  0.00  0.00    -0.322 NA
ATOM      6  C   UNL     1      33.412 -22.730 -17.995  0.00  0.00    +0.154 C 
ATOM      7  C   UNL     1      34.315 -23.426 -15.989  0.00  0.00    +0.100 A 
ATOM      8  C   UNL     1      33.032 -23.445 -15.517  0.00  0.00    +0.252 A 
ATOM      9  C   UNL     1      35.162 -23.825 -14.939  0.00  0.00    +0.053 A 
ATOM     10  C   UNL     1      34.301 -24.069 -13.864  0.00  0.00    +0.148 A 
ATOM     11  C   UNL     1      31.861 -23.105 -16.273  0.00  0.00    +0.242 C 
ATOM     12  C   UNL     1      36.542 -24.014 -14.753  0.00  0.00    +0.016 C 
ATOM     13  C   UNL     1      34.732 -24.491 -12.607  0.00  0.00    +0.038 C 
ATOM     14  C   UNL     1      36.998 -24.440 -13.498  0.00  0.00    +0.058 C 
ATOM     15  C   UNL     1      36.109 -24.673 -12.447  0.00  0.00    +0.015 C 
ATOM     16  H   UNL     1      35.455 -23.032 -17.644  0.00  0.00    +0.154 HD
ENDROOT
BRANCH   6  18
ATOM     17  N   UNL     1      32.905 -21.088 -19.643  0.00  0.00    +0.390 N 
ATOM     18  C   UNL     1      33.652 -22.324 -19.413  0.00  0.00    +0.008 C 
ATOM     19  C   UNL     1      35.116 -21.990 -19.690  0.00  0.00    -0.015 C 
ATOM     20  C   UNL     1      35.108 -20.525 -20.101  0.00  0.00    -0.025 C 
ATOM     21  C   UNL     1      33.692 -20.304 -20.590  0.00  0.00    -0.081 C 
ATOM     22  H   UNL     1      32.790 -20.576 -18.770  0.00  0.00    -0.084 HD
ATOM     23  H   UNL     1      31.972 -21.282 -20.008  0.00  0.00    -0.084 HD
ENDBRANCH   6  18
TORSDOF 1
ENDMDL
MODEL 7
REMARK VINA RESULT:      -9.3      3.174      5.369
REMARK  Name = 57899889
REMARK  1 active torsions:
REMARK  status: ('A' for Active; 'I' for Inactive)
REMARK    1  A    between atoms: C_6  and  C_18
REMARK                            x       y       z     vdW  Elec       q    Type
REMARK                         _______ _______ _______ _____ _____    ______ ____
ROOT
ATOM      1 CL   UNL     1      36.779 -21.290 -19.862  0.00  0.00    -0.082 Cl
ATOM      2  O   UNL     1      32.414 -23.281 -16.546  0.00  0.00    -0.440 OA
ATOM      3  O   UNL     1      31.284 -24.414 -14.164  0.00  0.00    -0.206 OA
ATOM      4  N   UNL     1      35.281 -23.660 -14.575  0.00  0.00    -0.289 N 
ATOM      5  N   UNL     1      33.412 -24.469 -13.260  0.00  0.00    -0.322 NA
ATOM      6  C   UNL     1      34.683 -24.209 -13.441  0.00  0.00    +0.154 C 
ATOM      7  C   UNL     1      34.436 -23.376 -15.580  0.00  0.00    +0.100 A 
ATOM      8  C   UNL     1      33.101 -23.633 -15.432  0.00  0.00    +0.252 A 
ATOM      9  C   UNL     1      34.626 -22.828 -16.861  0.00  0.00    +0.053 A 
ATOM     10  C   UNL     1      33.346 -22.788 -17.422  0.00  0.00    +0.148 A 
ATOM     11  C   UNL     1      32.485 -24.196 -14.265  0.00  0.00    +0.242 C 
ATOM     12  C   UNL     1      35.710 -22.359 -17.622  0.00  0.00    +0.016 C 
ATOM     13  C   UNL     1      33.075 -22.308 -18.702  0.00  0.00    +0.038 C 
ATOM     14  C   UNL     1      35.462 -21.870 -18.913  0.00  0.00    +0.058 C 
ATOM     15  C   UNL     1      34.169 -21.846 -19.441  0.00  0.00    +0.015 C 
ATOM     16  H   UNL     1      36.250 -23.493 -14.635  0.00  0.00    +0.154 HD
ENDROOT
BRANCH   6  18
ATOM     17  N   UNL     1      36.475 -25.620 -12.759  0.00  0.00    +0.390 N 
ATOM     18  C   UNL     1      35.608 -24.530 -12.313  0.00  0.00    +0.008 C 
ATOM     19  C   UNL     1      36.536 -23.369 -11.962  0.00  0.00    -0.015 C 
ATOM     20  C   UNL     1      37.938 -23.902 -12.221  0.00  0.00    -0.025 C 
ATOM     21  C   UNL     1      37.769 -25.403 -12.119  0.00  0.00    -0.081 C 
ATOM     22  H   UNL     1      36.575 -25.599 -13.773  0.00  0.00    -0.084 HD
ATOM     23  H   UNL     1      36.086 -26.529 -12.509  0.00  0.00    -0.084 HD
ENDBRANCH   6  18
TORSDOF 1
ENDMDL
MODEL 8
REMARK VINA RESULT:      -9.3      7.534     10.193
REMARK  Name = 57899889
REMARK  1 active torsions:
REMARK  status: ('A' for Active; 'I' for Inactive)
REMARK    1  A    between atoms: C_6  and  C_18
REMARK                            x       y       z     vdW  Elec       q    Type
REMARK                         _______ _______ _______ _____ _____    ______ ____
ROOT
ATOM      1 CL   UNL     1      31.631 -11.732 -19.057  0.00  0.00    -0.082 Cl
ATOM      2  O   UNL     1      32.724 -13.687 -24.443  0.00  0.00    -0.440 OA
ATOM      3  O   UNL     1      33.803 -15.534 -26.354  0.00  0.00    -0.206 OA
ATOM      4  N   UNL     1      34.180 -16.055 -22.317  0.00  0.00    -0.289 N 
ATOM      5  N   UNL     1      34.593 -16.800 -24.587  0.00  0.00    -0.322 NA
ATOM      6  C   UNL     1      34.686 -16.921 -23.285  0.00  0.00    +0.154 C 
ATOM      7  C   UNL     1      33.529 -14.984 -22.799  0.00  0.00    +0.100 A 
ATOM      8  C   UNL     1      33.409 -14.819 -24.151  0.00  0.00    +0.252 A 
ATOM      9  C   UNL     1      32.887 -13.898 -22.178  0.00  0.00    +0.053 A 
ATOM     10  C   UNL     1      32.403 -13.121 -23.236  0.00  0.00    +0.148 A 
ATOM     11  C   UNL     1      33.928 -15.710 -25.148  0.00  0.00    +0.242 C 
ATOM     12  C   UNL     1      32.647 -13.467 -20.862  0.00  0.00    +0.016 C 
ATOM     13  C   UNL     1      31.692 -11.934 -23.064  0.00  0.00    +0.038 C 
ATOM     14  C   UNL     1      31.934 -12.277 -20.664  0.00  0.00    +0.058 C 
ATOM     15  C   UNL     1      31.467 -11.526 -21.746  0.00  0.00    +0.015 C 
ATOM     16  H   UNL     1      34.293 -16.216 -21.352  0.00  0.00    +0.154 HD
ENDROOT
BRANCH   6  18
ATOM     17  N   UNL     1      35.702 -17.873 -21.354  0.00  0.00    +0.390 N 
ATOM     18  C   UNL     1      35.413 -18.119 -22.767  0.00  0.00    +0.008 C 
ATOM     19  C   UNL     1      34.565 -19.388 -22.811  0.00  0.00    -0.015 C 
ATOM     20  C   UNL     1      34.436 -19.818 -21.357  0.00  0.00    -0.025 C 
ATOM     21  C   UNL     1      35.633 -19.172 -20.691  0.00  0.00    -0.081 C 
ATOM     22  H   UNL     1      35.011 -17.238 -20.958  0.00  0.00    -0.084 HD
ATOM     23  H   UNL     1      36.618 -17.443 -21.233  0.00  0.00    -0.084 HD
ENDBRANCH   6  18
TORSDOF 1
ENDMDL
MODEL 9
REMARK VINA RESULT:      -9.2     11.619     13.602
REMARK  Name = 57899889
REMARK  1 active torsions:
REMARK  status: ('A' for Active; 'I' for Inactive)
REMARK    1  A    between atoms: C_6  and  C_18
REMARK                            x       y       z     vdW  Elec       q    Type
REMARK                         _______ _______ _______ _____ _____    ______ ____
ROOT
ATOM      1 CL   UNL     1      32.554  -5.595 -25.121  0.00  0.00    -0.082 Cl
ATOM      2  O   UNL     1      31.657  -8.544 -20.169  0.00  0.00    -0.440 OA
ATOM      3  O   UNL     1      31.410 -10.922 -18.583  0.00  0.00    -0.206 OA
ATOM      4  N   UNL     1      32.199 -11.008 -22.594  0.00  0.00    -0.289 N 
ATOM      5  N   UNL     1      31.817 -12.159 -20.495  0.00  0.00    -0.322 NA
ATOM      6  C   UNL     1      32.068 -12.133 -21.781  0.00  0.00    +0.154 C 
ATOM      7  C   UNL     1      32.044  -9.832 -21.964  0.00  0.00    +0.100 A 
ATOM      8  C   UNL     1      31.780  -9.815 -20.622  0.00  0.00    +0.252 A 
ATOM      9  C   UNL     1      32.095  -8.498 -22.406  0.00  0.00    +0.053 A 
ATOM     10  C   UNL     1      31.850  -7.736 -21.260  0.00  0.00    +0.148 A 
ATOM     11  C   UNL     1      31.647 -10.971 -19.784  0.00  0.00    +0.242 C 
ATOM     12  C   UNL     1      32.317  -7.832 -23.623  0.00  0.00    +0.016 C 
ATOM     13  C   UNL     1      31.811  -6.342 -21.249  0.00  0.00    +0.038 C 
ATOM     14  C   UNL     1      32.284  -6.430 -23.637  0.00  0.00    +0.058 C 
ATOM     15  C   UNL     1      32.035  -5.702 -22.471  0.00  0.00    +0.015 C 
ATOM     16  H   UNL     1      32.389 -11.071 -23.558  0.00  0.00    +0.154 HD
ENDROOT
BRANCH   6  18
ATOM     17  N   UNL     1      33.376 -13.323 -23.375  0.00  0.00    +0.390 N 
ATOM     18  C   UNL     1      32.238 -13.450 -22.465  0.00  0.00    +0.008 C 
ATOM     19  C   UNL     1      32.596 -14.576 -21.497  0.00  0.00    -0.015 C 
ATOM     20  C   UNL     1      33.967 -15.055 -21.950  0.00  0.00    -0.025 C 
ATOM     21  C   UNL     1      34.027 -14.629 -23.401  0.00  0.00    -0.081 C 
ATOM     22  H   UNL     1      34.023 -12.612 -23.034  0.00  0.00    -0.084 HD
ATOM     23  H   UNL     1      33.074 -13.040 -24.307  0.00  0.00    -0.084 HD
ENDBRANCH   6  18
TORSDOF 1
ENDMDL
