MODEL 1
REMARK VINA RESULT:      -6.0      0.000      0.000
REMARK  Name = 2537
REMARK  0 active torsions:
REMARK  status: ('A' for Active; 'I' for Inactive)
REMARK                            x       y       z     vdW  Elec       q    Type
REMARK                         _______ _______ _______ _____ _____    ______ ____
ROOT
ATOM      1  O   UNL     1      36.140 -26.468 -15.800  0.00  0.00    -0.296 OA
ATOM      2  C   UNL     1      36.933 -24.477 -13.038  0.00  0.00    +0.007 C 
ATOM      3  C   UNL     1      37.116 -24.570 -14.577  0.00  0.00    +0.052 C 
ATOM      4  C   UNL     1      37.808 -25.736 -12.789  0.00  0.00    +0.008 C 
ATOM      5  C   UNL     1      38.650 -24.611 -14.766  0.00  0.00    +0.007 C 
ATOM      6  C   UNL     1      39.129 -25.392 -13.523  0.00  0.00    +0.001 C 
ATOM      7  C   UNL     1      37.109 -26.853 -13.603  0.00  0.00    +0.064 C 
ATOM      8  C   UNL     1      36.697 -26.027 -14.806  0.00  0.00    +0.150 C 
ATOM      9  C   UNL     1      37.492 -23.194 -12.393  0.00  0.00    +0.000 C 
ATOM     10  C   UNL     1      35.473 -24.610 -12.554  0.00  0.00    +0.000 C 
ATOM     11  C   UNL     1      36.391 -23.564 -15.438  0.00  0.00    +0.007 C 
ENDROOT
TORSDOF 0
ENDMDL
MODEL 2
REMARK VINA RESULT:      -6.0      1.537      3.013
REMARK  Name = 2537
REMARK  0 active torsions:
REMARK  status: ('A' for Active; 'I' for Inactive)
REMARK                            x       y       z     vdW  Elec       q    Type
REMARK                         _______ _______ _______ _____ _____    ______ ____
ROOT
ATOM      1  O   UNL     1      37.172 -26.425 -11.709  0.00  0.00    -0.296 OA
ATOM      2  C   UNL     1      37.827 -24.635 -14.640  0.00  0.00    +0.007 C 
ATOM      3  C   UNL     1      37.079 -24.536 -13.281  0.00  0.00    +0.052 C 
ATOM      4  C   UNL     1      36.887 -25.761 -15.153  0.00  0.00    +0.008 C 
ATOM      5  C   UNL     1      35.604 -24.316 -13.686  0.00  0.00    +0.007 C 
ATOM      6  C   UNL     1      35.476 -25.139 -14.987  0.00  0.00    +0.001 C 
ATOM      7  C   UNL     1      37.021 -26.881 -14.092  0.00  0.00    +0.064 C 
ATOM      8  C   UNL     1      37.109 -26.008 -12.856  0.00  0.00    +0.150 C 
ATOM      9  C   UNL     1      37.789 -23.355 -15.497  0.00  0.00    +0.000 C 
ATOM     10  C   UNL     1      39.310 -25.045 -14.529  0.00  0.00    +0.000 C 
ATOM     11  C   UNL     1      37.612 -23.571 -12.250  0.00  0.00    +0.007 C 
ENDROOT
TORSDOF 0
ENDMDL
MODEL 3
REMARK VINA RESULT:      -5.8      1.633      2.846
REMARK  Name = 2537
REMARK  0 active torsions:
REMARK  status: ('A' for Active; 'I' for Inactive)
REMARK                            x       y       z     vdW  Elec       q    Type
REMARK                         _______ _______ _______ _____ _____    ______ ____
ROOT
ATOM      1  O   UNL     1      37.010 -26.752 -11.835  0.00  0.00    -0.296 OA
ATOM      2  C   UNL     1      36.796 -24.023 -14.010  0.00  0.00    +0.007 C 
ATOM      3  C   UNL     1      37.809 -24.844 -13.165  0.00  0.00    +0.052 C 
ATOM      4  C   UNL     1      36.073 -23.484 -12.744  0.00  0.00    +0.008 C 
ATOM      5  C   UNL     1      38.416 -23.801 -12.199  0.00  0.00    +0.007 C 
ATOM      6  C   UNL     1      37.229 -22.851 -11.927  0.00  0.00    +0.001 C 
ATOM      7  C   UNL     1      35.624 -24.760 -11.990  0.00  0.00    +0.064 C 
ATOM      8  C   UNL     1      36.838 -25.624 -12.273  0.00  0.00    +0.150 C 
ATOM      9  C   UNL     1      37.422 -22.920 -14.885  0.00  0.00    +0.000 C 
ATOM     10  C   UNL     1      35.902 -24.868 -14.942  0.00  0.00    +0.000 C 
ATOM     11  C   UNL     1      38.814 -25.698 -13.899  0.00  0.00    +0.007 C 
ENDROOT
TORSDOF 0
ENDMDL
MODEL 4
REMARK VINA RESULT:      -5.7      1.690      2.662
REMARK  Name = 2537
REMARK  0 active torsions:
REMARK  status: ('A' for Active; 'I' for Inactive)
REMARK                            x       y       z     vdW  Elec       q    Type
REMARK                         _______ _______ _______ _____ _____    ______ ____
ROOT
ATOM      1  O   UNL     1      39.763 -24.753 -13.870  0.00  0.00    -0.296 OA
ATOM      2  C   UNL     1      36.298 -25.129 -14.140  0.00  0.00    +0.007 C 
ATOM      3  C   UNL     1      37.421 -24.056 -14.150  0.00  0.00    +0.052 C 
ATOM      4  C   UNL     1      36.544 -25.471 -12.645  0.00  0.00    +0.008 C 
ATOM      5  C   UNL     1      37.051 -23.122 -12.975  0.00  0.00    +0.007 C 
ATOM      6  C   UNL     1      36.425 -24.091 -11.948  0.00  0.00    +0.001 C 
ATOM      7  C   UNL     1      38.035 -25.886 -12.589  0.00  0.00    +0.064 C 
ATOM      8  C   UNL     1      38.582 -24.883 -13.586  0.00  0.00    +0.150 C 
ATOM      9  C   UNL     1      34.883 -24.592 -14.430  0.00  0.00    +0.000 C 
ATOM     10  C   UNL     1      36.527 -26.309 -15.108  0.00  0.00    +0.000 C 
ATOM     11  C   UNL     1      37.720 -23.358 -15.454  0.00  0.00    +0.007 C 
ENDROOT
TORSDOF 0
ENDMDL
MODEL 5
REMARK VINA RESULT:      -5.7     18.642     19.971
REMARK  Name = 2537
REMARK  0 active torsions:
REMARK  status: ('A' for Active; 'I' for Inactive)
REMARK                            x       y       z     vdW  Elec       q    Type
REMARK                         _______ _______ _______ _____ _____    ______ ____
ROOT
ATOM      1  O   UNL     1      33.783  -9.897 -24.185  0.00  0.00    -0.296 OA
ATOM      2  C   UNL     1      31.938  -7.138 -23.087  0.00  0.00    +0.007 C 
ATOM      3  C   UNL     1      33.394  -7.649 -23.267  0.00  0.00    +0.052 C 
ATOM      4  C   UNL     1      31.632  -8.189 -21.985  0.00  0.00    +0.008 C 
ATOM      5  C   UNL     1      33.982  -7.602 -21.838  0.00  0.00    +0.007 C 
ATOM      6  C   UNL     1      32.765  -7.950 -20.953  0.00  0.00    +0.001 C 
ATOM      7  C   UNL     1      31.915  -9.550 -22.667  0.00  0.00    +0.064 C 
ATOM      8  C   UNL     1      33.125  -9.141 -23.485  0.00  0.00    +0.150 C 
ATOM      9  C   UNL     1      31.815  -5.679 -22.606  0.00  0.00    +0.000 C 
ATOM     10  C   UNL     1      31.053  -7.260 -24.346  0.00  0.00    +0.000 C 
ATOM     11  C   UNL     1      34.244  -6.999 -24.331  0.00  0.00    +0.007 C 
ENDROOT
TORSDOF 0
ENDMDL
MODEL 6
REMARK VINA RESULT:      -5.6      9.273     10.833
REMARK  Name = 2537
REMARK  0 active torsions:
REMARK  status: ('A' for Active; 'I' for Inactive)
REMARK                            x       y       z     vdW  Elec       q    Type
REMARK                         _______ _______ _______ _____ _____    ______ ____
ROOT
ATOM      1  O   UNL     1      35.528 -20.237 -20.093  0.00  0.00    -0.296 OA
ATOM      2  C   UNL     1      34.717 -17.331 -21.860  0.00  0.00    +0.007 C 
ATOM      3  C   UNL     1      34.258 -18.797 -21.630  0.00  0.00    +0.052 C 
ATOM      4  C   UNL     1      36.028 -17.781 -22.562  0.00  0.00    +0.008 C 
ATOM      5  C   UNL     1      34.313 -19.429 -23.040  0.00  0.00    +0.007 C 
ATOM      6  C   UNL     1      35.516 -18.713 -23.691  0.00  0.00    +0.001 C 
ATOM      7  C   UNL     1      36.734 -18.677 -21.515  0.00  0.00    +0.064 C 
ATOM      8  C   UNL     1      35.507 -19.362 -20.945  0.00  0.00    +0.150 C 
ATOM      9  C   UNL     1      33.788 -16.491 -22.757  0.00  0.00    +0.000 C 
ATOM     10  C   UNL     1      34.935 -16.515 -20.568  0.00  0.00    +0.000 C 
ATOM     11  C   UNL     1      32.970 -19.024 -20.876  0.00  0.00    +0.007 C 
ENDROOT
TORSDOF 0
ENDMDL
MODEL 7
REMARK VINA RESULT:      -5.5     18.473     20.168
REMARK  Name = 2537
REMARK  0 active torsions:
REMARK  status: ('A' for Active; 'I' for Inactive)
REMARK                            x       y       z     vdW  Elec       q    Type
REMARK                         _______ _______ _______ _____ _____    ______ ____
ROOT
ATOM      1  O   UNL     1      32.211  -8.936 -20.494  0.00  0.00    -0.296 OA
ATOM      2  C   UNL     1      33.163  -7.391 -23.482  0.00  0.00    +0.007 C 
ATOM      3  C   UNL     1      32.200  -7.238 -22.273  0.00  0.00    +0.052 C 
ATOM      4  C   UNL     1      32.426  -8.659 -23.995  0.00  0.00    +0.008 C 
ATOM      5  C   UNL     1      30.796  -7.222 -22.917  0.00  0.00    +0.007 C 
ATOM      6  C   UNL     1      30.956  -8.181 -24.117  0.00  0.00    +0.001 C 
ATOM      7  C   UNL     1      32.489  -9.645 -22.803  0.00  0.00    +0.064 C 
ATOM      8  C   UNL     1      32.296  -8.647 -21.678  0.00  0.00    +0.150 C 
ATOM      9  C   UNL     1      33.147  -6.216 -24.479  0.00  0.00    +0.000 C 
ATOM     10  C   UNL     1      34.641  -7.624 -23.102  0.00  0.00    +0.000 C 
ATOM     11  C   UNL     1      32.468  -6.121 -21.293  0.00  0.00    +0.007 C 
ENDROOT
TORSDOF 0
ENDMDL
MODEL 8
REMARK VINA RESULT:      -5.5      1.980      3.319
REMARK  Name = 2537
REMARK  0 active torsions:
REMARK  status: ('A' for Active; 'I' for Inactive)
REMARK                            x       y       z     vdW  Elec       q    Type
REMARK                         _______ _______ _______ _____ _____    ______ ____
ROOT
ATOM      1  O   UNL     1      38.612 -23.147 -11.779  0.00  0.00    -0.296 OA
ATOM      2  C   UNL     1      36.954 -25.550 -13.702  0.00  0.00    +0.007 C 
ATOM      3  C   UNL     1      38.086 -24.488 -13.773  0.00  0.00    +0.052 C 
ATOM      4  C   UNL     1      35.855 -24.467 -13.523  0.00  0.00    +0.008 C 
ATOM      5  C   UNL     1      37.624 -23.528 -14.893  0.00  0.00    +0.007 C 
ATOM      6  C   UNL     1      36.087 -23.531 -14.738  0.00  0.00    +0.001 C 
ATOM      7  C   UNL     1      36.290 -23.688 -12.256  0.00  0.00    +0.064 C 
ATOM      8  C   UNL     1      37.788 -23.700 -12.492  0.00  0.00    +0.150 C 
ATOM      9  C   UNL     1      36.784 -26.404 -14.974  0.00  0.00    +0.000 C 
ATOM     10  C   UNL     1      37.072 -26.538 -12.523  0.00  0.00    +0.000 C 
ATOM     11  C   UNL     1      39.508 -24.977 -13.894  0.00  0.00    +0.007 C 
ENDROOT
TORSDOF 0
ENDMDL
MODEL 9
REMARK VINA RESULT:      -5.5     18.802     20.042
REMARK  Name = 2537
REMARK  0 active torsions:
REMARK  status: ('A' for Active; 'I' for Inactive)
REMARK                            x       y       z     vdW  Elec       q    Type
REMARK                         _______ _______ _______ _____ _____    ______ ____
ROOT
ATOM      1  O   UNL     1      33.756 -10.078 -23.669  0.00  0.00    -0.296 OA
ATOM      2  C   UNL     1      32.368  -7.292 -22.078  0.00  0.00    +0.007 C 
ATOM      3  C   UNL     1      32.020  -8.448 -23.054  0.00  0.00    +0.052 C 
ATOM      4  C   UNL     1      33.337  -6.631 -23.097  0.00  0.00    +0.008 C 
ATOM      5  C   UNL     1      31.562  -7.722 -24.340  0.00  0.00    +0.007 C 
ATOM      6  C   UNL     1      32.450  -6.459 -24.358  0.00  0.00    +0.001 C 
ATOM      7  C   UNL     1      34.371  -7.740 -23.413  0.00  0.00    +0.064 C 
ATOM      8  C   UNL     1      33.431  -8.929 -23.409  0.00  0.00    +0.150 C 
ATOM      9  C   UNL     1      31.179  -6.396 -21.680  0.00  0.00    +0.000 C 
ATOM     10  C   UNL     1      33.039  -7.740 -20.762  0.00  0.00    +0.000 C 
ATOM     11  C   UNL     1      31.090  -9.532 -22.564  0.00  0.00    +0.007 C 
ENDROOT
TORSDOF 0
ENDMDL
