MODEL 1
REMARK VINA RESULT:      -8.2      0.000      0.000
REMARK  Name = 92180
REMARK  2 active torsions:
REMARK  status: ('A' for Active; 'I' for Inactive)
REMARK    1  A    between atoms: N_1  and  C_14
REMARK    2  A    between atoms: C_14  and  C_15
REMARK                            x       y       z     vdW  Elec       q    Type
REMARK                         _______ _______ _______ _____ _____    ______ ____
ROOT
ATOM      1  N   UNL     1      34.840 -17.831 -23.619  0.00  0.00    -0.317 N 
ATOM      2  N   UNL     1      33.586 -16.094 -25.828  0.00  0.00    -0.270 NA
ATOM      3  N   UNL     1      34.721 -15.804 -22.342  0.00  0.00    -0.232 NA
ATOM      4  N   UNL     1      33.074 -13.939 -25.578  0.00  0.00    -0.307 N 
ATOM      5  N   UNL     1      33.821 -13.737 -23.273  0.00  0.00    -0.232 NA
ATOM      6  C   UNL     1      33.944 -15.775 -24.550  0.00  0.00    +0.164 C 
ATOM      7  C   UNL     1      34.508 -16.488 -23.499  0.00  0.00    +0.124 C 
ATOM      8  C   UNL     1      33.615 -14.432 -24.417  0.00  0.00    +0.125 C 
ATOM      9  C   UNL     1      33.071 -14.963 -26.404  0.00  0.00    +0.163 C 
ATOM     10  C   UNL     1      34.372 -14.497 -22.302  0.00  0.00    +0.252 C 
ATOM     11  H   UNL     1      34.664 -18.276 -24.478  0.00  0.00    +0.148 HD
ATOM     12  H   UNL     1      33.682 -16.975 -26.258  0.00  0.00    +0.126 HD
ATOM     13  H   UNL     1      32.758 -13.023 -25.753  0.00  0.00    +0.149 HD
ENDROOT
BRANCH   1  14
ATOM     14  C   UNL     1      35.427 -18.609 -22.557  0.00  0.00    +0.114 C 
BRANCH  14  15
ATOM     15  C   UNL     1      34.328 -19.246 -21.764  0.00  0.00    -0.013 C 
ATOM     16  C   UNL     1      34.446 -20.114 -20.741  0.00  0.00    -0.046 C 
ATOM     17  C   UNL     1      33.298 -20.720 -19.984  0.00  0.00    +0.026 C 
ATOM     18  C   UNL     1      35.805 -20.567 -20.277  0.00  0.00    +0.026 C 
ENDBRANCH  14  15
ENDBRANCH   1  14
TORSDOF 2
ENDMDL
MODEL 2
REMARK VINA RESULT:      -8.1      1.045      2.194
REMARK  Name = 92180
REMARK  2 active torsions:
REMARK  status: ('A' for Active; 'I' for Inactive)
REMARK    1  A    between atoms: N_1  and  C_14
REMARK    2  A    between atoms: C_14  and  C_15
REMARK                            x       y       z     vdW  Elec       q    Type
REMARK                         _______ _______ _______ _____ _____    ______ ____
ROOT
ATOM      1  N   UNL     1      35.281 -17.295 -21.879  0.00  0.00    -0.317 N 
ATOM      2  N   UNL     1      34.170 -14.581 -22.814  0.00  0.00    -0.270 NA
ATOM      3  N   UNL     1      34.894 -17.926 -24.160  0.00  0.00    -0.232 NA
ATOM      4  N   UNL     1      33.497 -14.162 -24.897  0.00  0.00    -0.307 N 
ATOM      5  N   UNL     1      33.972 -16.370 -25.797  0.00  0.00    -0.232 NA
ATOM      6  C   UNL     1      34.363 -15.742 -23.505  0.00  0.00    +0.164 C 
ATOM      7  C   UNL     1      34.854 -16.998 -23.165  0.00  0.00    +0.124 C 
ATOM      8  C   UNL     1      33.939 -15.457 -24.797  0.00  0.00    +0.125 C 
ATOM      9  C   UNL     1      33.650 -13.665 -23.688  0.00  0.00    +0.163 C 
ATOM     10  C   UNL     1      34.460 -17.562 -25.389  0.00  0.00    +0.252 C 
ATOM     11  H   UNL     1      35.230 -16.586 -21.199  0.00  0.00    +0.148 HD
ATOM     12  H   UNL     1      34.367 -14.431 -21.860  0.00  0.00    +0.126 HD
ATOM     13  H   UNL     1      33.145 -13.707 -25.695  0.00  0.00    +0.149 HD
ENDROOT
BRANCH   1  14
ATOM     14  C   UNL     1      35.797 -18.581 -21.482  0.00  0.00    +0.114 C 
BRANCH  14  15
ATOM     15  C   UNL     1      34.669 -19.406 -20.944  0.00  0.00    -0.013 C 
ATOM     16  C   UNL     1      34.749 -20.524 -20.197  0.00  0.00    -0.046 C 
ATOM     17  C   UNL     1      33.574 -21.309 -19.687  0.00  0.00    +0.026 C 
ATOM     18  C   UNL     1      36.090 -21.095 -19.818  0.00  0.00    +0.026 C 
ENDBRANCH  14  15
ENDBRANCH   1  14
TORSDOF 2
ENDMDL
MODEL 3
REMARK VINA RESULT:      -8.0      8.547     12.273
REMARK  Name = 92180
REMARK  2 active torsions:
REMARK  status: ('A' for Active; 'I' for Inactive)
REMARK    1  A    between atoms: N_1  and  C_14
REMARK    2  A    between atoms: C_14  and  C_15
REMARK                            x       y       z     vdW  Elec       q    Type
REMARK                         _______ _______ _______ _____ _____    ______ ____
ROOT
ATOM      1  N   UNL     1      37.427 -23.091 -16.182  0.00  0.00    -0.317 N 
ATOM      2  N   UNL     1      39.776 -24.857 -15.266  0.00  0.00    -0.270 NA
ATOM      3  N   UNL     1      36.289 -24.136 -14.347  0.00  0.00    -0.232 NA
ATOM      4  N   UNL     1      39.679 -26.260 -13.536  0.00  0.00    -0.307 N 
ATOM      5  N   UNL     1      37.375 -25.790 -12.921  0.00  0.00    -0.232 NA
ATOM      6  C   UNL     1      38.512 -24.738 -14.764  0.00  0.00    +0.164 C 
ATOM      7  C   UNL     1      37.404 -23.974 -15.111  0.00  0.00    +0.124 C 
ATOM      8  C   UNL     1      38.476 -25.618 -13.690  0.00  0.00    +0.125 C 
ATOM      9  C   UNL     1      40.437 -25.780 -14.499  0.00  0.00    +0.163 C 
ATOM     10  C   UNL     1      36.342 -25.016 -13.320  0.00  0.00    +0.252 C 
ATOM     11  H   UNL     1      38.260 -23.014 -16.700  0.00  0.00    +0.148 HD
ATOM     12  H   UNL     1      40.145 -24.370 -16.039  0.00  0.00    +0.126 HD
ATOM     13  H   UNL     1      39.921 -26.930 -12.857  0.00  0.00    +0.149 HD
ENDROOT
BRANCH   1  14
ATOM     14  C   UNL     1      36.303 -22.281 -16.577  0.00  0.00    +0.114 C 
BRANCH  14  15
ATOM     15  C   UNL     1      36.622 -21.619 -17.882  0.00  0.00    -0.013 C 
ATOM     16  C   UNL     1      35.848 -21.549 -18.981  0.00  0.00    -0.046 C 
ATOM     17  C   UNL     1      36.228 -20.867 -20.265  0.00  0.00    +0.026 C 
ATOM     18  C   UNL     1      34.487 -22.193 -18.999  0.00  0.00    +0.026 C 
ENDBRANCH  14  15
ENDBRANCH   1  14
TORSDOF 2
ENDMDL
MODEL 4
REMARK VINA RESULT:      -7.9      6.528      9.750
REMARK  Name = 92180
REMARK  2 active torsions:
REMARK  status: ('A' for Active; 'I' for Inactive)
REMARK    1  A    between atoms: N_1  and  C_14
REMARK    2  A    between atoms: C_14  and  C_15
REMARK                            x       y       z     vdW  Elec       q    Type
REMARK                         _______ _______ _______ _____ _____    ______ ____
ROOT
ATOM      1  N   UNL     1      32.601 -22.441 -18.416  0.00  0.00    -0.317 N 
ATOM      2  N   UNL     1      29.883 -22.529 -16.974  0.00  0.00    -0.270 NA
ATOM      3  N   UNL     1      33.418 -23.318 -16.339  0.00  0.00    -0.232 NA
ATOM      4  N   UNL     1      29.607 -23.239 -14.879  0.00  0.00    -0.307 N 
ATOM      5  N   UNL     1      31.942 -23.764 -14.449  0.00  0.00    -0.232 NA
ATOM      6  C   UNL     1      31.127 -22.883 -16.536  0.00  0.00    +0.164 C 
ATOM      7  C   UNL     1      32.391 -22.876 -17.114  0.00  0.00    +0.124 C 
ATOM      8  C   UNL     1      30.930 -23.322 -15.233  0.00  0.00    +0.125 C 
ATOM      9  C   UNL     1      29.007 -22.759 -15.947  0.00  0.00    +0.163 C 
ATOM     10  C   UNL     1      33.136 -23.726 -15.079  0.00  0.00    +0.252 C 
ATOM     11  H   UNL     1      31.822 -22.132 -18.932  0.00  0.00    +0.148 HD
ATOM     12  H   UNL     1      29.657 -22.172 -17.864  0.00  0.00    +0.126 HD
ATOM     13  H   UNL     1      29.199 -23.484 -14.017  0.00  0.00    +0.149 HD
ENDROOT
BRANCH   1  14
ATOM     14  C   UNL     1      33.892 -22.416 -19.054  0.00  0.00    +0.114 C 
BRANCH  14  15
ATOM     15  C   UNL     1      34.010 -21.155 -19.855  0.00  0.00    -0.013 C 
ATOM     16  C   UNL     1      35.136 -20.536 -20.255  0.00  0.00    -0.046 C 
ATOM     17  C   UNL     1      35.185 -19.268 -21.060  0.00  0.00    +0.026 C 
ATOM     18  C   UNL     1      36.486 -21.096 -19.894  0.00  0.00    +0.026 C 
ENDBRANCH  14  15
ENDBRANCH   1  14
TORSDOF 2
ENDMDL
MODEL 5
REMARK VINA RESULT:      -7.9      6.960     10.064
REMARK  Name = 92180
REMARK  2 active torsions:
REMARK  status: ('A' for Active; 'I' for Inactive)
REMARK    1  A    between atoms: N_1  and  C_14
REMARK    2  A    between atoms: C_14  and  C_15
REMARK                            x       y       z     vdW  Elec       q    Type
REMARK                         _______ _______ _______ _____ _____    ______ ____
ROOT
ATOM      1  N   UNL     1      32.248 -22.658 -17.905  0.00  0.00    -0.317 N 
ATOM      2  N   UNL     1      29.266 -22.463 -17.168  0.00  0.00    -0.270 NA
ATOM      3  N   UNL     1      32.455 -23.532 -15.681  0.00  0.00    -0.232 NA
ATOM      4  N   UNL     1      28.428 -23.075 -15.195  0.00  0.00    -0.307 N 
ATOM      5  N   UNL     1      30.531 -23.784 -14.203  0.00  0.00    -0.232 NA
ATOM      6  C   UNL     1      30.330 -22.908 -16.437  0.00  0.00    +0.164 C 
ATOM      7  C   UNL     1      31.691 -23.029 -16.689  0.00  0.00    +0.124 C 
ATOM      8  C   UNL     1      29.784 -23.283 -15.216  0.00  0.00    +0.125 C 
ATOM      9  C   UNL     1      28.150 -22.582 -16.383  0.00  0.00    +0.163 C 
ATOM     10  C   UNL     1      31.840 -23.871 -14.524  0.00  0.00    +0.252 C 
ATOM     11  H   UNL     1      31.649 -22.301 -18.599  0.00  0.00    +0.148 HD
ATOM     12  H   UNL     1      29.296 -22.118 -18.090  0.00  0.00    +0.126 HD
ATOM     13  H   UNL     1      27.803 -23.255 -14.457  0.00  0.00    +0.149 HD
ENDROOT
BRANCH   1  14
ATOM     14  C   UNL     1      33.653 -22.766 -18.210  0.00  0.00    +0.114 C 
BRANCH  14  15
ATOM     15  C   UNL     1      33.983 -21.801 -19.306  0.00  0.00    -0.013 C 
ATOM     16  C   UNL     1      35.177 -21.241 -19.578  0.00  0.00    -0.046 C 
ATOM     17  C   UNL     1      35.444 -20.275 -20.698  0.00  0.00    +0.026 C 
ATOM     18  C   UNL     1      36.379 -21.552 -18.726  0.00  0.00    +0.026 C 
ENDBRANCH  14  15
ENDBRANCH   1  14
TORSDOF 2
ENDMDL
MODEL 6
REMARK VINA RESULT:      -7.8      1.578      2.195
REMARK  Name = 92180
REMARK  2 active torsions:
REMARK  status: ('A' for Active; 'I' for Inactive)
REMARK    1  A    between atoms: N_1  and  C_14
REMARK    2  A    between atoms: C_14  and  C_15
REMARK                            x       y       z     vdW  Elec       q    Type
REMARK                         _______ _______ _______ _____ _____    ______ ____
ROOT
ATOM      1  N   UNL     1      35.897 -18.870 -21.816  0.00  0.00    -0.317 N 
ATOM      2  N   UNL     1      35.020 -17.278 -24.300  0.00  0.00    -0.270 NA
ATOM      3  N   UNL     1      35.170 -16.908 -20.644  0.00  0.00    -0.232 NA
ATOM      4  N   UNL     1      34.163 -15.222 -24.222  0.00  0.00    -0.307 N 
ATOM      5  N   UNL     1      34.258 -14.967 -21.807  0.00  0.00    -0.232 NA
ATOM      6  C   UNL     1      34.989 -16.940 -22.977  0.00  0.00    +0.164 C 
ATOM      7  C   UNL     1      35.360 -17.590 -21.807  0.00  0.00    +0.124 C 
ATOM      8  C   UNL     1      34.452 -15.659 -22.954  0.00  0.00    +0.125 C 
ATOM      9  C   UNL     1      34.517 -16.218 -25.006  0.00  0.00    +0.163 C 
ATOM     10  C   UNL     1      34.642 -15.664 -20.715  0.00  0.00    +0.252 C 
ATOM     11  H   UNL     1      36.012 -19.317 -22.685  0.00  0.00    +0.148 HD
ATOM     12  H   UNL     1      35.347 -18.127 -24.677  0.00  0.00    +0.126 HD
ATOM     13  H   UNL     1      33.777 -14.356 -24.487  0.00  0.00    +0.149 HD
ENDROOT
BRANCH   1  14
ATOM     14  C   UNL     1      36.295 -19.582 -20.628  0.00  0.00    +0.114 C 
BRANCH  14  15
ATOM     15  C   UNL     1      35.221 -20.563 -20.272  0.00  0.00    -0.013 C 
ATOM     16  C   UNL     1      35.250 -21.503 -19.309  0.00  0.00    -0.046 C 
ATOM     17  C   UNL     1      34.134 -22.461 -19.001  0.00  0.00    +0.026 C 
ATOM     18  C   UNL     1      36.470 -21.672 -18.443  0.00  0.00    +0.026 C 
ENDBRANCH  14  15
ENDBRANCH   1  14
TORSDOF 2
ENDMDL
MODEL 7
REMARK VINA RESULT:      -7.7      2.697      6.071
REMARK  Name = 92180
REMARK  2 active torsions:
REMARK  status: ('A' for Active; 'I' for Inactive)
REMARK    1  A    between atoms: N_1  and  C_14
REMARK    2  A    between atoms: C_14  and  C_15
REMARK                            x       y       z     vdW  Elec       q    Type
REMARK                         _______ _______ _______ _____ _____    ______ ____
ROOT
ATOM      1  N   UNL     1      33.096 -14.036 -22.487  0.00  0.00    -0.317 N 
ATOM      2  N   UNL     1      34.903 -16.520 -22.293  0.00  0.00    -0.270 NA
ATOM      3  N   UNL     1      33.082 -14.571 -24.825  0.00  0.00    -0.232 NA
ATOM      4  N   UNL     1      35.498 -17.767 -24.042  0.00  0.00    -0.307 N 
ATOM      5  N   UNL     1      34.297 -16.486 -25.724  0.00  0.00    -0.232 NA
ATOM      6  C   UNL     1      34.308 -15.943 -23.378  0.00  0.00    +0.164 C 
ATOM      7  C   UNL     1      33.486 -14.835 -23.552  0.00  0.00    +0.124 C 
ATOM      8  C   UNL     1      34.691 -16.736 -24.452  0.00  0.00    +0.125 C 
ATOM      9  C   UNL     1      35.605 -17.607 -22.741  0.00  0.00    +0.163 C 
ATOM     10  C   UNL     1      33.504 -15.396 -25.812  0.00  0.00    +0.252 C 
ATOM     11  H   UNL     1      33.418 -14.273 -21.588  0.00  0.00    +0.148 HD
ATOM     12  H   UNL     1      34.841 -16.210 -21.360  0.00  0.00    +0.126 HD
ATOM     13  H   UNL     1      35.906 -18.469 -24.598  0.00  0.00    +0.149 HD
ENDROOT
BRANCH   1  14
ATOM     14  C   UNL     1      32.246 -12.880 -22.622  0.00  0.00    +0.114 C 
BRANCH  14  15
ATOM     15  C   UNL     1      31.840 -12.419 -21.256  0.00  0.00    -0.013 C 
ATOM     16  C   UNL     1      31.508 -11.172 -20.872  0.00  0.00    -0.046 C 
ATOM     17  C   UNL     1      31.108 -10.774 -19.479  0.00  0.00    +0.026 C 
ATOM     18  C   UNL     1      31.531 -10.037 -21.860  0.00  0.00    +0.026 C 
ENDBRANCH  14  15
ENDBRANCH   1  14
TORSDOF 2
ENDMDL
MODEL 8
REMARK VINA RESULT:      -7.7      6.874     10.501
REMARK  Name = 92180
REMARK  2 active torsions:
REMARK  status: ('A' for Active; 'I' for Inactive)
REMARK    1  A    between atoms: N_1  and  C_14
REMARK    2  A    between atoms: C_14  and  C_15
REMARK                            x       y       z     vdW  Elec       q    Type
REMARK                         _______ _______ _______ _____ _____    ______ ____
ROOT
ATOM      1  N   UNL     1      34.335 -22.814 -17.925  0.00  0.00    -0.317 N 
ATOM      2  N   UNL     1      35.832 -24.148 -15.589  0.00  0.00    -0.270 NA
ATOM      3  N   UNL     1      32.410 -23.200 -16.547  0.00  0.00    -0.232 NA
ATOM      4  N   UNL     1      34.839 -24.894 -13.738  0.00  0.00    -0.307 N 
ATOM      5  N   UNL     1      32.573 -24.272 -14.362  0.00  0.00    -0.232 NA
ATOM      6  C   UNL     1      34.502 -23.882 -15.749  0.00  0.00    +0.164 C 
ATOM      7  C   UNL     1      33.752 -23.290 -16.758  0.00  0.00    +0.124 C 
ATOM      8  C   UNL     1      33.906 -24.354 -14.587  0.00  0.00    +0.125 C 
ATOM      9  C   UNL     1      35.984 -24.755 -14.371  0.00  0.00    +0.163 C 
ATOM     10  C   UNL     1      31.914 -23.687 -15.385  0.00  0.00    +0.252 C 
ATOM     11  H   UNL     1      35.310 -22.905 -18.025  0.00  0.00    +0.148 HD
ATOM     12  H   UNL     1      36.549 -23.943 -16.232  0.00  0.00    +0.126 HD
ATOM     13  H   UNL     1      34.685 -25.297 -12.853  0.00  0.00    +0.149 HD
ENDROOT
BRANCH   1  14
ATOM     14  C   UNL     1      33.596 -22.194 -18.996  0.00  0.00    +0.114 C 
BRANCH  14  15
ATOM     15  C   UNL     1      34.505 -21.255 -19.726  0.00  0.00    -0.013 C 
ATOM     16  C   UNL     1      34.159 -20.197 -20.485  0.00  0.00    -0.046 C 
ATOM     17  C   UNL     1      35.124 -19.290 -21.194  0.00  0.00    +0.026 C 
ATOM     18  C   UNL     1      32.710 -19.847 -20.691  0.00  0.00    +0.026 C 
ENDBRANCH  14  15
ENDBRANCH   1  14
TORSDOF 2
ENDMDL
MODEL 9
REMARK VINA RESULT:      -7.7      4.496      7.197
REMARK  Name = 92180
REMARK  2 active torsions:
REMARK  status: ('A' for Active; 'I' for Inactive)
REMARK    1  A    between atoms: N_1  and  C_14
REMARK    2  A    between atoms: C_14  and  C_15
REMARK                            x       y       z     vdW  Elec       q    Type
REMARK                         _______ _______ _______ _____ _____    ______ ____
ROOT
ATOM      1  N   UNL     1      33.027 -22.428 -18.513  0.00  0.00    -0.317 N 
ATOM      2  N   UNL     1      33.241 -20.317 -20.742  0.00  0.00    -0.270 NA
ATOM      3  N   UNL     1      35.405 -22.142 -18.395  0.00  0.00    -0.232 NA
ATOM      4  N   UNL     1      35.158 -19.388 -21.398  0.00  0.00    -0.307 N 
ATOM      5  N   UNL     1      36.598 -20.589 -19.851  0.00  0.00    -0.232 NA
ATOM      6  C   UNL     1      34.211 -20.881 -19.964  0.00  0.00    +0.164 C 
ATOM      7  C   UNL     1      34.201 -21.828 -18.947  0.00  0.00    +0.124 C 
ATOM      8  C   UNL     1      35.392 -20.288 -20.389  0.00  0.00    +0.125 C 
ATOM      9  C   UNL     1      33.857 -19.430 -21.585  0.00  0.00    +0.163 C 
ATOM     10  C   UNL     1      36.507 -21.516 -18.872  0.00  0.00    +0.252 C 
ATOM     11  H   UNL     1      32.185 -22.164 -18.947  0.00  0.00    +0.148 HD
ATOM     12  H   UNL     1      32.276 -20.513 -20.706  0.00  0.00    +0.126 HD
ATOM     13  H   UNL     1      35.818 -18.834 -21.875  0.00  0.00    +0.149 HD
ENDROOT
BRANCH   1  14
ATOM     14  C   UNL     1      32.971 -23.414 -17.463  0.00  0.00    +0.114 C 
BRANCH  14  15
ATOM     15  C   UNL     1      31.759 -23.153 -16.622  0.00  0.00    -0.013 C 
ATOM     16  C   UNL     1      31.626 -23.326 -15.294  0.00  0.00    -0.046 C 
ATOM     17  C   UNL     1      30.377 -23.044 -14.507  0.00  0.00    +0.026 C 
ATOM     18  C   UNL     1      32.773 -23.850 -14.473  0.00  0.00    +0.026 C 
ENDBRANCH  14  15
ENDBRANCH   1  14
TORSDOF 2
ENDMDL
