MODEL 1
REMARK VINA RESULT:     -11.4      0.000      0.000
REMARK  Name = 11659487
REMARK  5 active torsions:
REMARK  status: ('A' for Active; 'I' for Inactive)
REMARK    1  A    between atoms: C_1  and  C_15
REMARK    2  A    between atoms: C_2  and  C_7
REMARK    3  A    between atoms: C_10  and  O_13
REMARK    4  A    between atoms: C_15  and  C_16
REMARK    5  A    between atoms: C_16  and  C_18
REMARK                            x       y       z     vdW  Elec       q    Type
REMARK                         _______ _______ _______ _____ _____    ______ ____
ROOT
ATOM      1  C   UNL     1      34.529 -21.012 -19.876  0.00  0.00    -0.022 C 
ATOM      2  C   UNL     1      35.341 -19.384 -21.465  0.00  0.00    -0.000 C 
ATOM      3  C   UNL     1      34.291 -20.129 -20.928  0.00  0.00    -0.004 C 
ATOM      4  C   UNL     1      35.819 -21.152 -19.361  0.00  0.00    -0.004 C 
ATOM      5  C   UNL     1      36.630 -19.523 -20.951  0.00  0.00    -0.000 C 
ATOM      6  C   UNL     1      36.869 -20.408 -19.899  0.00  0.00    -0.000 C 
ENDROOT
BRANCH   2   7
ATOM      7  C   UNL     1      35.093 -18.466 -22.556  0.00  0.00    +0.003 C 
ATOM      8  C   UNL     1      35.146 -17.090 -22.335  0.00  0.00    +0.037 C 
ATOM      9  C   UNL     1      34.803 -18.957 -23.828  0.00  0.00    +0.000 C 
ATOM     10  C   UNL     1      34.908 -16.205 -23.387  0.00  0.00    +0.139 C 
ATOM     11  C   UNL     1      34.564 -18.074 -24.880  0.00  0.00    +0.003 C 
ATOM     12  C   UNL     1      34.617 -16.697 -24.660  0.00  0.00    +0.037 C 
BRANCH  10  13
ATOM     13  O   UNL     1      34.959 -14.862 -23.172  0.00  0.00    -0.471 OA
ATOM     14  C   UNL     1      33.797 -14.105 -23.507  0.00  0.00    +0.252 C 
ENDBRANCH  10  13
ENDBRANCH   2   7
BRANCH   1  15
ATOM     15  C   UNL     1      33.407 -21.809 -19.301  0.00  0.00    +0.034 C 
BRANCH  15  16
ATOM     16  C   UNL     1      33.844 -22.821 -18.223  0.00  0.00    +0.064 C 
BRANCH  16  18
ATOM     17  N   UNL     1      31.547 -22.750 -17.457  0.00  0.00    -0.396 NA
ATOM     18  C   UNL     1      32.826 -22.991 -17.120  0.00  0.00    +0.110 C 
ATOM     19  C   UNL     1      33.262 -23.370 -15.870  0.00  0.00    +0.023 C 
ATOM     20  C   UNL     1      32.300 -23.518 -14.877  0.00  0.00    -0.015 C 
ATOM     21  C   UNL     1      30.641 -22.903 -16.467  0.00  0.00    +0.158 C 
ATOM     22  C   UNL     1      30.962 -23.282 -15.173  0.00  0.00    +0.100 C 
ATOM     23  N   UNL     1      29.273 -22.666 -16.753  0.00  0.00    -0.336 N 
ATOM     24  H   UNL     1      29.000 -22.395 -17.658  0.00  0.00    +0.144 HD
ATOM     25  H   UNL     1      28.597 -22.772 -16.045  0.00  0.00    +0.144 HD
ENDBRANCH  16  18
ENDBRANCH  15  16
ENDBRANCH   1  15
TORSDOF 5
ENDMDL
MODEL 2
REMARK VINA RESULT:     -11.3      4.565      9.366
REMARK  Name = 11659487
REMARK  5 active torsions:
REMARK  status: ('A' for Active; 'I' for Inactive)
REMARK    1  A    between atoms: C_1  and  C_15
REMARK    2  A    between atoms: C_2  and  C_7
REMARK    3  A    between atoms: C_10  and  O_13
REMARK    4  A    between atoms: C_15  and  C_16
REMARK    5  A    between atoms: C_16  and  C_18
REMARK                            x       y       z     vdW  Elec       q    Type
REMARK                         _______ _______ _______ _____ _____    ______ ____
ROOT
ATOM      1  C   UNL     1      34.575 -16.717 -22.626  0.00  0.00    -0.022 C 
ATOM      2  C   UNL     1      34.833 -19.019 -21.938  0.00  0.00    -0.000 C 
ATOM      3  C   UNL     1      34.662 -17.672 -21.613  0.00  0.00    -0.004 C 
ATOM      4  C   UNL     1      34.660 -17.108 -23.963  0.00  0.00    -0.004 C 
ATOM      5  C   UNL     1      34.918 -19.410 -23.274  0.00  0.00    -0.000 C 
ATOM      6  C   UNL     1      34.831 -18.454 -24.286  0.00  0.00    -0.000 C 
ENDROOT
BRANCH   2   7
ATOM      7  C   UNL     1      34.922 -20.010 -20.887  0.00  0.00    +0.003 C 
ATOM      8  C   UNL     1      33.764 -20.611 -20.396  0.00  0.00    +0.037 C 
ATOM      9  C   UNL     1      36.167 -20.365 -20.367  0.00  0.00    +0.000 C 
ATOM     10  C   UNL     1      33.851 -21.567 -19.383  0.00  0.00    +0.139 C 
ATOM     11  C   UNL     1      36.254 -21.320 -19.355  0.00  0.00    +0.003 C 
ATOM     12  C   UNL     1      35.095 -21.922 -18.863  0.00  0.00    +0.037 C 
BRANCH  10  13
ATOM     13  O   UNL     1      32.720 -22.155 -18.903  0.00  0.00    -0.471 OA
ATOM     14  C   UNL     1      32.824 -22.846 -17.660  0.00  0.00    +0.252 C 
ENDBRANCH  10  13
ENDBRANCH   2   7
BRANCH   1  15
ATOM     15  C   UNL     1      34.392 -15.278 -22.281  0.00  0.00    +0.034 C 
BRANCH  15  16
ATOM     16  C   UNL     1      33.097 -14.658 -22.841  0.00  0.00    +0.064 C 
BRANCH  16  18
ATOM     17  N   UNL     1      33.882 -12.533 -23.698  0.00  0.00    -0.396 NA
ATOM     18  C   UNL     1      33.339 -13.725 -24.003  0.00  0.00    +0.110 C 
ATOM     19  C   UNL     1      32.996 -14.143 -25.270  0.00  0.00    +0.023 C 
ATOM     20  C   UNL     1      33.232 -13.260 -26.318  0.00  0.00    -0.015 C 
ATOM     21  C   UNL     1      34.096 -11.702 -24.741  0.00  0.00    +0.158 C 
ATOM     22  C   UNL     1      33.792 -12.014 -26.058  0.00  0.00    +0.100 C 
ATOM     23  N   UNL     1      34.667 -10.429 -24.493  0.00  0.00    -0.336 N 
ATOM     24  H   UNL     1      34.899 -10.165 -23.573  0.00  0.00    +0.144 HD
ATOM     25  H   UNL     1      34.831  -9.808 -25.240  0.00  0.00    +0.144 HD
ENDBRANCH  16  18
ENDBRANCH  15  16
ENDBRANCH   1  15
TORSDOF 5
ENDMDL
MODEL 3
REMARK VINA RESULT:     -11.3      4.576      9.147
REMARK  Name = 11659487
REMARK  5 active torsions:
REMARK  status: ('A' for Active; 'I' for Inactive)
REMARK    1  A    between atoms: C_1  and  C_15
REMARK    2  A    between atoms: C_2  and  C_7
REMARK    3  A    between atoms: C_10  and  O_13
REMARK    4  A    between atoms: C_15  and  C_16
REMARK    5  A    between atoms: C_16  and  C_18
REMARK                            x       y       z     vdW  Elec       q    Type
REMARK                         _______ _______ _______ _____ _____    ______ ____
ROOT
ATOM      1  C   UNL     1      34.486 -16.491 -22.248  0.00  0.00    -0.022 C 
ATOM      2  C   UNL     1      34.842 -18.829 -21.752  0.00  0.00    -0.000 C 
ATOM      3  C   UNL     1      34.589 -17.526 -21.319  0.00  0.00    -0.004 C 
ATOM      4  C   UNL     1      34.637 -16.757 -23.609  0.00  0.00    -0.004 C 
ATOM      5  C   UNL     1      34.992 -19.095 -23.112  0.00  0.00    -0.000 C 
ATOM      6  C   UNL     1      34.890 -18.060 -24.041  0.00  0.00    -0.000 C 
ENDROOT
BRANCH   2   7
ATOM      7  C   UNL     1      34.947 -19.903 -20.788  0.00  0.00    +0.003 C 
ATOM      8  C   UNL     1      33.796 -20.524 -20.307  0.00  0.00    +0.037 C 
ATOM      9  C   UNL     1      36.202 -20.318 -20.341  0.00  0.00    +0.000 C 
ATOM     10  C   UNL     1      33.898 -21.560 -19.379  0.00  0.00    +0.139 C 
ATOM     11  C   UNL     1      36.305 -21.353 -19.413  0.00  0.00    +0.003 C 
ATOM     12  C   UNL     1      35.152 -21.975 -18.932  0.00  0.00    +0.037 C 
BRANCH  10  13
ATOM     13  O   UNL     1      32.773 -22.167 -18.909  0.00  0.00    -0.471 OA
ATOM     14  C   UNL     1      32.894 -22.912 -17.699  0.00  0.00    +0.252 C 
ENDBRANCH  10  13
ENDBRANCH   2   7
BRANCH   1  15
ATOM     15  C   UNL     1      34.216 -15.098 -21.787  0.00  0.00    +0.034 C 
BRANCH  15  16
ATOM     16  C   UNL     1      32.813 -14.576 -22.157  0.00  0.00    +0.064 C 
BRANCH  16  18
ATOM     17  N   UNL     1      33.707 -12.795 -23.534  0.00  0.00    -0.396 NA
ATOM     18  C   UNL     1      32.813 -13.128 -22.586  0.00  0.00    +0.110 C 
ATOM     19  C   UNL     1      31.920 -12.262 -21.994  0.00  0.00    +0.023 C 
ATOM     20  C   UNL     1      31.946 -10.936 -22.412  0.00  0.00    -0.015 C 
ATOM     21  C   UNL     1      33.703 -11.498 -23.914  0.00  0.00    +0.158 C 
ATOM     22  C   UNL     1      32.851 -10.539 -23.390  0.00  0.00    +0.100 C 
ATOM     23  N   UNL     1      34.618 -11.077 -24.911  0.00  0.00    -0.336 N 
ATOM     24  H   UNL     1      35.242 -11.725 -25.310  0.00  0.00    +0.144 HD
ATOM     25  H   UNL     1      34.631 -10.136 -25.201  0.00  0.00    +0.144 HD
ENDBRANCH  16  18
ENDBRANCH  15  16
ENDBRANCH   1  15
TORSDOF 5
ENDMDL
MODEL 4
REMARK VINA RESULT:     -11.2      1.381      1.809
REMARK  Name = 11659487
REMARK  5 active torsions:
REMARK  status: ('A' for Active; 'I' for Inactive)
REMARK    1  A    between atoms: C_1  and  C_15
REMARK    2  A    between atoms: C_2  and  C_7
REMARK    3  A    between atoms: C_10  and  O_13
REMARK    4  A    between atoms: C_15  and  C_16
REMARK    5  A    between atoms: C_16  and  C_18
REMARK                            x       y       z     vdW  Elec       q    Type
REMARK                         _______ _______ _______ _____ _____    ______ ____
ROOT
ATOM      1  C   UNL     1      34.488 -20.883 -19.977  0.00  0.00    -0.022 C 
ATOM      2  C   UNL     1      35.313 -19.237 -21.541  0.00  0.00    -0.000 C 
ATOM      3  C   UNL     1      34.256 -19.982 -21.016  0.00  0.00    -0.004 C 
ATOM      4  C   UNL     1      35.776 -21.041 -19.464  0.00  0.00    -0.004 C 
ATOM      5  C   UNL     1      36.600 -19.394 -21.028  0.00  0.00    -0.000 C 
ATOM      6  C   UNL     1      36.832 -20.296 -19.990  0.00  0.00    -0.000 C 
ENDROOT
BRANCH   2   7
ATOM      7  C   UNL     1      35.073 -18.301 -22.618  0.00  0.00    +0.003 C 
ATOM      8  C   UNL     1      35.078 -16.930 -22.364  0.00  0.00    +0.037 C 
ATOM      9  C   UNL     1      34.837 -18.770 -23.910  0.00  0.00    +0.000 C 
ATOM     10  C   UNL     1      34.847 -16.027 -23.403  0.00  0.00    +0.139 C 
ATOM     11  C   UNL     1      34.606 -17.869 -24.948  0.00  0.00    +0.003 C 
ATOM     12  C   UNL     1      34.611 -16.496 -24.695  0.00  0.00    +0.037 C 
BRANCH  10  13
ATOM     13  O   UNL     1      34.852 -14.688 -23.156  0.00  0.00    -0.471 OA
ATOM     14  C   UNL     1      33.641 -13.977 -23.405  0.00  0.00    +0.252 C 
ENDBRANCH  10  13
ENDBRANCH   2   7
BRANCH   1  15
ATOM     15  C   UNL     1      33.359 -21.680 -19.414  0.00  0.00    +0.034 C 
BRANCH  15  16
ATOM     16  C   UNL     1      33.791 -23.015 -18.776  0.00  0.00    +0.064 C 
BRANCH  16  18
ATOM     17  N   UNL     1      34.497 -23.142 -16.462  0.00  0.00    -0.396 NA
ATOM     18  C   UNL     1      33.451 -23.108 -17.307  0.00  0.00    +0.110 C 
ATOM     19  C   UNL     1      32.125 -23.153 -16.936  0.00  0.00    +0.023 C 
ATOM     20  C   UNL     1      31.847 -23.238 -15.576  0.00  0.00    -0.015 C 
ATOM     21  C   UNL     1      34.187 -23.226 -15.150  0.00  0.00    +0.158 C 
ATOM     22  C   UNL     1      32.891 -23.276 -14.660  0.00  0.00    +0.100 C 
ATOM     23  N   UNL     1      35.240 -23.265 -14.202  0.00  0.00    -0.336 N 
ATOM     24  H   UNL     1      36.176 -23.232 -14.505  0.00  0.00    +0.144 HD
ATOM     25  H   UNL     1      35.036 -23.326 -13.241  0.00  0.00    +0.144 HD
ENDBRANCH  16  18
ENDBRANCH  15  16
ENDBRANCH   1  15
TORSDOF 5
ENDMDL
MODEL 5
REMARK VINA RESULT:     -11.1      2.988      3.910
REMARK  Name = 11659487
REMARK  5 active torsions:
REMARK  status: ('A' for Active; 'I' for Inactive)
REMARK    1  A    between atoms: C_1  and  C_15
REMARK    2  A    between atoms: C_2  and  C_7
REMARK    3  A    between atoms: C_10  and  O_13
REMARK    4  A    between atoms: C_15  and  C_16
REMARK    5  A    between atoms: C_16  and  C_18
REMARK                            x       y       z     vdW  Elec       q    Type
REMARK                         _______ _______ _______ _____ _____    ______ ____
ROOT
ATOM      1  C   UNL     1      35.615 -21.349 -19.201  0.00  0.00    -0.022 C 
ATOM      2  C   UNL     1      34.564 -19.905 -20.828  0.00  0.00    -0.000 C 
ATOM      3  C   UNL     1      35.713 -20.360 -20.179  0.00  0.00    -0.004 C 
ATOM      4  C   UNL     1      34.369 -21.882 -18.870  0.00  0.00    -0.004 C 
ATOM      5  C   UNL     1      33.319 -20.438 -20.497  0.00  0.00    -0.000 C 
ATOM      6  C   UNL     1      33.221 -21.426 -19.518  0.00  0.00    -0.000 C 
ENDROOT
BRANCH   2   7
ATOM      7  C   UNL     1      34.665 -18.880 -21.844  0.00  0.00    +0.003 C 
ATOM      8  C   UNL     1      34.603 -17.534 -21.486  0.00  0.00    +0.037 C 
ATOM      9  C   UNL     1      34.827 -19.238 -23.182  0.00  0.00    +0.000 C 
ATOM     10  C   UNL     1      34.701 -16.546 -22.466  0.00  0.00    +0.139 C 
ATOM     11  C   UNL     1      34.925 -18.251 -24.162  0.00  0.00    +0.003 C 
ATOM     12  C   UNL     1      34.863 -16.904 -23.804  0.00  0.00    +0.037 C 
BRANCH  10  13
ATOM     13  O   UNL     1      34.641 -15.231 -22.116  0.00  0.00    -0.471 OA
ATOM     14  C   UNL     1      34.480 -14.934 -20.730  0.00  0.00    +0.252 C 
ENDBRANCH  10  13
ENDBRANCH   2   7
BRANCH   1  15
ATOM     15  C   UNL     1      36.842 -21.836 -18.507  0.00  0.00    +0.034 C 
BRANCH  15  16
ATOM     16  C   UNL     1      36.899 -21.480 -17.008  0.00  0.00    +0.064 C 
BRANCH  16  18
ATOM     17  N   UNL     1      37.970 -23.233 -15.726  0.00  0.00    -0.396 NA
ATOM     18  C   UNL     1      36.802 -22.687 -16.106  0.00  0.00    +0.110 C 
ATOM     19  C   UNL     1      35.554 -23.142 -15.741  0.00  0.00    +0.023 C 
ATOM     20  C   UNL     1      35.499 -24.255 -14.910  0.00  0.00    -0.015 C 
ATOM     21  C   UNL     1      37.878 -24.313 -14.920  0.00  0.00    +0.158 C 
ATOM     22  C   UNL     1      36.679 -24.858 -14.487  0.00  0.00    +0.100 C 
ATOM     23  N   UNL     1      39.071 -24.939 -14.479  0.00  0.00    -0.336 N 
ATOM     24  H   UNL     1      39.944 -24.586 -14.762  0.00  0.00    +0.144 HD
ATOM     25  H   UNL     1      39.025 -25.728 -13.891  0.00  0.00    +0.144 HD
ENDBRANCH  16  18
ENDBRANCH  15  16
ENDBRANCH   1  15
TORSDOF 5
ENDMDL
MODEL 6
REMARK VINA RESULT:     -11.1      4.798      8.780
REMARK  Name = 11659487
REMARK  5 active torsions:
REMARK  status: ('A' for Active; 'I' for Inactive)
REMARK    1  A    between atoms: C_1  and  C_15
REMARK    2  A    between atoms: C_2  and  C_7
REMARK    3  A    between atoms: C_10  and  O_13
REMARK    4  A    between atoms: C_15  and  C_16
REMARK    5  A    between atoms: C_16  and  C_18
REMARK                            x       y       z     vdW  Elec       q    Type
REMARK                         _______ _______ _______ _____ _____    ______ ____
ROOT
ATOM      1  C   UNL     1      34.327 -15.984 -22.443  0.00  0.00    -0.022 C 
ATOM      2  C   UNL     1      34.537 -18.349 -21.996  0.00  0.00    -0.000 C 
ATOM      3  C   UNL     1      34.235 -17.058 -21.559  0.00  0.00    -0.004 C 
ATOM      4  C   UNL     1      34.722 -16.199 -23.764  0.00  0.00    -0.004 C 
ATOM      5  C   UNL     1      34.932 -18.564 -23.315  0.00  0.00    -0.000 C 
ATOM      6  C   UNL     1      35.025 -17.489 -24.200  0.00  0.00    -0.000 C 
ENDROOT
BRANCH   2   7
ATOM      7  C   UNL     1      34.441 -19.464 -21.078  0.00  0.00    +0.003 C 
ATOM      8  C   UNL     1      35.598 -20.047 -20.564  0.00  0.00    +0.037 C 
ATOM      9  C   UNL     1      33.189 -19.954 -20.707  0.00  0.00    +0.000 C 
ATOM     10  C   UNL     1      35.504 -21.121 -19.680  0.00  0.00    +0.139 C 
ATOM     11  C   UNL     1      33.095 -21.028 -19.823  0.00  0.00    +0.003 C 
ATOM     12  C   UNL     1      34.253 -21.612 -19.308  0.00  0.00    +0.037 C 
BRANCH  10  13
ATOM     13  O   UNL     1      36.635 -21.691 -19.177  0.00  0.00    -0.471 OA
ATOM     14  C   UNL     1      36.772 -21.721 -17.758  0.00  0.00    +0.252 C 
ENDBRANCH  10  13
ENDBRANCH   2   7
BRANCH   1  15
ATOM     15  C   UNL     1      34.004 -14.604 -21.978  0.00  0.00    +0.034 C 
BRANCH  15  16
ATOM     16  C   UNL     1      32.661 -14.061 -22.508  0.00  0.00    +0.064 C 
BRANCH  16  18
ATOM     17  N   UNL     1      32.011 -11.730 -22.610  0.00  0.00    -0.396 NA
ATOM     18  C   UNL     1      32.218 -12.795 -21.815  0.00  0.00    +0.110 C 
ATOM     19  C   UNL     1      32.058 -12.810 -20.447  0.00  0.00    +0.023 C 
ATOM     20  C   UNL     1      31.648 -11.628 -19.840  0.00  0.00    -0.015 C 
ATOM     21  C   UNL     1      31.615 -10.600 -21.986  0.00  0.00    +0.158 C 
ATOM     22  C   UNL     1      31.420 -10.497 -20.617  0.00  0.00    +0.100 C 
ATOM     23  N   UNL     1      31.377  -9.439 -22.763  0.00  0.00    -0.336 N 
ATOM     24  H   UNL     1      31.503  -9.466 -23.738  0.00  0.00    +0.144 HD
ATOM     25  H   UNL     1      31.088  -8.605 -22.326  0.00  0.00    +0.144 HD
ENDBRANCH  16  18
ENDBRANCH  15  16
ENDBRANCH   1  15
TORSDOF 5
ENDMDL
MODEL 7
REMARK VINA RESULT:     -11.1      4.692      9.389
REMARK  Name = 11659487
REMARK  5 active torsions:
REMARK  status: ('A' for Active; 'I' for Inactive)
REMARK    1  A    between atoms: C_1  and  C_15
REMARK    2  A    between atoms: C_2  and  C_7
REMARK    3  A    between atoms: C_10  and  O_13
REMARK    4  A    between atoms: C_15  and  C_16
REMARK    5  A    between atoms: C_16  and  C_18
REMARK                            x       y       z     vdW  Elec       q    Type
REMARK                         _______ _______ _______ _____ _____    ______ ____
ROOT
ATOM      1  C   UNL     1      34.465 -16.347 -22.457  0.00  0.00    -0.022 C 
ATOM      2  C   UNL     1      34.632 -18.692 -21.900  0.00  0.00    -0.000 C 
ATOM      3  C   UNL     1      34.358 -17.376 -21.523  0.00  0.00    -0.004 C 
ATOM      4  C   UNL     1      34.847 -16.631 -23.768  0.00  0.00    -0.004 C 
ATOM      5  C   UNL     1      35.013 -18.977 -23.211  0.00  0.00    -0.000 C 
ATOM      6  C   UNL     1      35.121 -17.946 -24.145  0.00  0.00    -0.000 C 
ENDROOT
BRANCH   2   7
ATOM      7  C   UNL     1      34.519 -19.760 -20.931  0.00  0.00    +0.003 C 
ATOM      8  C   UNL     1      35.668 -20.325 -20.379  0.00  0.00    +0.037 C 
ATOM      9  C   UNL     1      33.261 -20.225 -20.549  0.00  0.00    +0.000 C 
ATOM     10  C   UNL     1      35.559 -21.355 -19.444  0.00  0.00    +0.139 C 
ATOM     11  C   UNL     1      33.151 -21.254 -19.615  0.00  0.00    +0.003 C 
ATOM     12  C   UNL     1      34.301 -21.819 -19.061  0.00  0.00    +0.037 C 
BRANCH  10  13
ATOM     13  O   UNL     1      36.681 -21.906 -18.904  0.00  0.00    -0.471 OA
ATOM     14  C   UNL     1      36.818 -21.844 -17.486  0.00  0.00    +0.252 C 
ENDBRANCH  10  13
ENDBRANCH   2   7
BRANCH   1  15
ATOM     15  C   UNL     1      34.172 -14.940 -22.055  0.00  0.00    +0.034 C 
BRANCH  15  16
ATOM     16  C   UNL     1      32.926 -14.339 -22.736  0.00  0.00    +0.064 C 
BRANCH  16  18
ATOM     17  N   UNL     1      33.846 -12.290 -23.642  0.00  0.00    -0.396 NA
ATOM     18  C   UNL     1      33.261 -13.467 -23.923  0.00  0.00    +0.110 C 
ATOM     19  C   UNL     1      32.952 -13.921 -25.186  0.00  0.00    +0.023 C 
ATOM     20  C   UNL     1      33.273 -13.094 -26.257  0.00  0.00    -0.015 C 
ATOM     21  C   UNL     1      34.143 -11.513 -24.706  0.00  0.00    +0.158 C 
ATOM     22  C   UNL     1      33.880 -11.865 -26.021  0.00  0.00    +0.100 C 
ATOM     23  N   UNL     1      34.763 -10.258 -24.483  0.00  0.00    -0.336 N 
ATOM     24  H   UNL     1      34.968  -9.967 -23.566  0.00  0.00    +0.144 HD
ATOM     25  H   UNL     1      34.987  -9.677 -25.246  0.00  0.00    +0.144 HD
ENDBRANCH  16  18
ENDBRANCH  15  16
ENDBRANCH   1  15
TORSDOF 5
ENDMDL
MODEL 8
REMARK VINA RESULT:     -11.0      4.568      9.286
REMARK  Name = 11659487
REMARK  5 active torsions:
REMARK  status: ('A' for Active; 'I' for Inactive)
REMARK    1  A    between atoms: C_1  and  C_15
REMARK    2  A    between atoms: C_2  and  C_7
REMARK    3  A    between atoms: C_10  and  O_13
REMARK    4  A    between atoms: C_15  and  C_16
REMARK    5  A    between atoms: C_16  and  C_18
REMARK                            x       y       z     vdW  Elec       q    Type
REMARK                         _______ _______ _______ _____ _____    ______ ____
ROOT
ATOM      1  C   UNL     1      34.568 -16.315 -23.320  0.00  0.00    -0.022 C 
ATOM      2  C   UNL     1      34.539 -18.600 -22.534  0.00  0.00    -0.000 C 
ATOM      3  C   UNL     1      34.495 -17.230 -22.270  0.00  0.00    -0.004 C 
ATOM      4  C   UNL     1      34.689 -16.769 -24.634  0.00  0.00    -0.004 C 
ATOM      5  C   UNL     1      34.659 -19.054 -23.847  0.00  0.00    -0.000 C 
ATOM      6  C   UNL     1      34.734 -18.139 -24.898  0.00  0.00    -0.000 C 
ENDROOT
BRANCH   2   7
ATOM      7  C   UNL     1      34.461 -19.549 -21.445  0.00  0.00    +0.003 C 
ATOM      8  C   UNL     1      35.629 -20.064 -20.883  0.00  0.00    +0.037 C 
ATOM      9  C   UNL     1      33.218 -19.948 -20.957  0.00  0.00    +0.000 C 
ATOM     10  C   UNL     1      35.553 -20.979 -19.833  0.00  0.00    +0.139 C 
ATOM     11  C   UNL     1      33.141 -20.863 -19.907  0.00  0.00    +0.003 C 
ATOM     12  C   UNL     1      34.309 -21.378 -19.344  0.00  0.00    +0.037 C 
BRANCH  10  13
ATOM     13  O   UNL     1      36.693 -21.481 -19.284  0.00  0.00    -0.471 OA
ATOM     14  C   UNL     1      36.667 -21.776 -17.888  0.00  0.00    +0.252 C 
ENDBRANCH  10  13
ENDBRANCH   2   7
BRANCH   1  15
ATOM     15  C   UNL     1      34.520 -14.851 -23.039  0.00  0.00    +0.034 C 
BRANCH  15  16
ATOM     16  C   UNL     1      33.104 -14.246 -23.107  0.00  0.00    +0.064 C 
BRANCH  16  18
ATOM     17  N   UNL     1      32.307 -12.036 -22.515  0.00  0.00    -0.396 NA
ATOM     18  C   UNL     1      33.107 -12.751 -23.326  0.00  0.00    +0.110 C 
ATOM     19  C   UNL     1      33.907 -12.229 -24.318  0.00  0.00    +0.023 C 
ATOM     20  C   UNL     1      33.887 -10.850 -24.493  0.00  0.00    -0.015 C 
ATOM     21  C   UNL     1      32.313 -10.700 -22.715  0.00  0.00    +0.158 C 
ATOM     22  C   UNL     1      33.077 -10.063 -23.681  0.00  0.00    +0.100 C 
ATOM     23  N   UNL     1      31.495  -9.885 -21.894  0.00  0.00    -0.336 N 
ATOM     24  H   UNL     1      30.935 -10.294 -21.196  0.00  0.00    +0.144 HD
ATOM     25  H   UNL     1      31.485  -8.908 -22.024  0.00  0.00    +0.144 HD
ENDBRANCH  16  18
ENDBRANCH  15  16
ENDBRANCH   1  15
TORSDOF 5
ENDMDL
MODEL 9
REMARK VINA RESULT:     -10.8      3.159      6.155
REMARK  Name = 11659487
REMARK  5 active torsions:
REMARK  status: ('A' for Active; 'I' for Inactive)
REMARK    1  A    between atoms: C_1  and  C_15
REMARK    2  A    between atoms: C_2  and  C_7
REMARK    3  A    between atoms: C_10  and  O_13
REMARK    4  A    between atoms: C_15  and  C_16
REMARK    5  A    between atoms: C_16  and  C_18
REMARK                            x       y       z     vdW  Elec       q    Type
REMARK                         _______ _______ _______ _____ _____    ______ ____
ROOT
ATOM      1  C   UNL     1      34.700 -16.308 -22.710  0.00  0.00    -0.022 C 
ATOM      2  C   UNL     1      33.683 -14.285 -23.553  0.00  0.00    -0.000 C 
ATOM      3  C   UNL     1      34.249 -15.006 -22.500  0.00  0.00    -0.004 C 
ATOM      4  C   UNL     1      34.584 -16.892 -23.972  0.00  0.00    -0.004 C 
ATOM      5  C   UNL     1      33.568 -14.868 -24.814  0.00  0.00    -0.000 C 
ATOM      6  C   UNL     1      34.018 -16.172 -25.024  0.00  0.00    -0.000 C 
ENDROOT
BRANCH   2   7
ATOM      7  C   UNL     1      33.217 -12.933 -23.336  0.00  0.00    +0.003 C 
ATOM      8  C   UNL     1      32.223 -12.681 -22.390  0.00  0.00    +0.037 C 
ATOM      9  C   UNL     1      33.762 -11.881 -24.071  0.00  0.00    +0.000 C 
ATOM     10  C   UNL     1      31.774 -11.377 -22.181  0.00  0.00    +0.139 C 
ATOM     11  C   UNL     1      33.314 -10.577 -23.862  0.00  0.00    +0.003 C 
ATOM     12  C   UNL     1      32.320 -10.325 -22.916  0.00  0.00    +0.037 C 
BRANCH  10  13
ATOM     13  O   UNL     1      30.804 -11.131 -21.257  0.00  0.00    -0.471 OA
ATOM     14  C   UNL     1      31.205 -11.089 -19.889  0.00  0.00    +0.252 C 
ENDBRANCH  10  13
ENDBRANCH   2   7
BRANCH   1  15
ATOM     15  C   UNL     1      35.305 -17.079 -21.585  0.00  0.00    +0.034 C 
BRANCH  15  16
ATOM     16  C   UNL     1      35.657 -18.537 -21.942  0.00  0.00    +0.064 C 
BRANCH  16  18
ATOM     17  N   UNL     1      35.730 -20.270 -20.251  0.00  0.00    -0.396 NA
ATOM     18  C   UNL     1      34.948 -19.549 -21.074  0.00  0.00    +0.110 C 
ATOM     19  C   UNL     1      33.580 -19.668 -21.179  0.00  0.00    +0.023 C 
ATOM     20  C   UNL     1      32.957 -20.609 -20.366  0.00  0.00    -0.015 C 
ATOM     21  C   UNL     1      35.091 -21.174 -19.477  0.00  0.00    +0.158 C 
ATOM     22  C   UNL     1      33.720 -21.380 -19.496  0.00  0.00    +0.100 C 
ATOM     23  N   UNL     1      35.853 -21.967 -18.584  0.00  0.00    -0.336 N 
ATOM     24  H   UNL     1      36.829 -21.855 -18.538  0.00  0.00    +0.144 HD
ATOM     25  H   UNL     1      35.406 -22.632 -18.012  0.00  0.00    +0.144 HD
ENDBRANCH  16  18
ENDBRANCH  15  16
ENDBRANCH   1  15
TORSDOF 5
ENDMDL
