MODEL 1
REMARK VINA RESULT:      -9.8      0.000      0.000
REMARK  Name = 71611869
REMARK  6 active torsions:
REMARK  status: ('A' for Active; 'I' for Inactive)
REMARK    1  A    between atoms: C_5  and  C_25
REMARK    2  A    between atoms: C_6  and  C_35
REMARK    3  A    between atoms: C_7  and  C_14
REMARK    4  A    between atoms: C_19  and  O_23
REMARK    5  A    between atoms: C_25  and  N_27
REMARK    6  A    between atoms: C_35  and  O_36
REMARK                            x       y       z     vdW  Elec       q    Type
REMARK                         _______ _______ _______ _____ _____    ______ ____
ROOT
ATOM      1  N   UNL     1      34.638 -17.004 -23.715  0.00  0.00    -0.232 N 
ATOM      2  N   UNL     1      34.788 -18.073 -24.534  0.00  0.00    -0.143 NA
ATOM      3  N   UNL     1      33.649 -16.765 -26.208  0.00  0.00    -0.206 NA
ATOM      4  N   UNL     1      32.862 -14.606 -25.912  0.00  0.00    -0.341 N 
ATOM      5  C   UNL     1      35.062 -16.903 -22.416  0.00  0.00    +0.038 A 
ATOM      6  C   UNL     1      34.710 -15.653 -21.954  0.00  0.00    +0.021 A 
ATOM      7  C   UNL     1      34.052 -14.976 -23.012  0.00  0.00    +0.026 A 
ATOM      8  C   UNL     1      34.023 -15.837 -24.087  0.00  0.00    +0.114 A 
ATOM      9  C   UNL     1      33.498 -15.724 -25.427  0.00  0.00    +0.145 C 
ATOM     10  C   UNL     1      34.288 -17.892 -25.724  0.00  0.00    +0.221 C 
ATOM     11  H   UNL     1      32.526 -14.592 -26.837  0.00  0.00    +0.144 HD
ATOM     12  H   UNL     1      32.743 -13.818 -25.334  0.00  0.00    +0.144 HD
ENDROOT
BRANCH   7  14
ATOM     13  S   UNL     1      32.180 -13.159 -21.988  0.00  0.00    -0.084 S 
ATOM     14  C   UNL     1      33.505 -13.611 -22.962  0.00  0.00    +0.031 C 
ATOM     15  C   UNL     1      33.996 -12.552 -23.688  0.00  0.00    +0.007 C 
ATOM     16  C   UNL     1      33.279 -11.331 -23.450  0.00  0.00    +0.009 C 
ATOM     17  C   UNL     1      32.244 -11.523 -22.529  0.00  0.00    +0.063 C 
ATOM     18  C   UNL     1      33.463 -10.035 -23.991  0.00  0.00    -0.004 C 
ATOM     19  C   UNL     1      31.400 -10.465 -22.138  0.00  0.00    +0.144 C 
ATOM     20  C   UNL     1      32.627  -8.984 -23.605  0.00  0.00    -0.019 C 
ATOM     21  C   UNL     1      31.607  -9.198 -22.689  0.00  0.00    +0.033 C 
ATOM     22  C   UNL     1      32.836  -7.624 -24.184  0.00  0.00    +0.031 C 
BRANCH  19  23
ATOM     23  O   UNL     1      30.385 -10.641 -21.235  0.00  0.00    -0.471 OA
ATOM     24  C   UNL     1      30.750 -10.666 -19.860  0.00  0.00    +0.252 C 
ENDBRANCH  19  23
ENDBRANCH   7  14
BRANCH   5  25
ATOM     25  C   UNL     1      35.776 -18.031 -21.720  0.00  0.00    -0.030 C 
BRANCH  25  27
ATOM     26  O   UNL     1      35.022 -22.226 -19.602  0.00  0.00    -0.277 OA
ATOM     27  N   UNL     1      34.874 -19.143 -21.421  0.00  0.00    +0.398 N 
ATOM     28  N   UNL     1      33.207 -20.957 -20.169  0.00  0.00    -0.308 N 
ATOM     29  C   UNL     1      33.584 -18.643 -20.940  0.00  0.00    -0.055 C 
ATOM     30  C   UNL     1      35.479 -20.026 -20.416  0.00  0.00    +0.010 C 
ATOM     31  C   UNL     1      32.628 -19.820 -20.852  0.00  0.00    +0.067 C 
ATOM     32  C   UNL     1      34.562 -21.177 -20.057  0.00  0.00    +0.201 C 
ATOM     33  H   UNL     1      34.719 -19.675 -22.277  0.00  0.00    -0.078 HD
ATOM     34  H   UNL     1      32.597 -21.611 -19.761  0.00  0.00    +0.149 HD
ENDBRANCH  25  27
ENDBRANCH   5  25
BRANCH   6  35
ATOM     35  C   UNL     1      34.977 -15.123 -20.599  0.00  0.00    +0.170 C 
BRANCH  35  36
ATOM     36  O   UNL     1      34.086 -15.722 -19.659  0.00  0.00    -0.346 OA
ATOM     37  C   UNL     1      32.738 -15.365 -19.925  0.00  0.00    +0.175 C 
ENDBRANCH  35  36
ENDBRANCH   6  35
TORSDOF 6
ENDMDL
MODEL 2
REMARK VINA RESULT:      -9.6      4.087      6.887
REMARK  Name = 71611869
REMARK  6 active torsions:
REMARK  status: ('A' for Active; 'I' for Inactive)
REMARK    1  A    between atoms: C_5  and  C_25
REMARK    2  A    between atoms: C_6  and  C_35
REMARK    3  A    between atoms: C_7  and  C_14
REMARK    4  A    between atoms: C_19  and  O_23
REMARK    5  A    between atoms: C_25  and  N_27
REMARK    6  A    between atoms: C_35  and  O_36
REMARK                            x       y       z     vdW  Elec       q    Type
REMARK                         _______ _______ _______ _____ _____    ______ ____
ROOT
ATOM      1  N   UNL     1      31.968 -10.601 -20.926  0.00  0.00    -0.232 N 
ATOM      2  N   UNL     1      31.698 -10.928 -19.638  0.00  0.00    -0.143 NA
ATOM      3  N   UNL     1      31.910  -8.578 -19.151  0.00  0.00    -0.206 NA
ATOM      4  N   UNL     1      32.395  -6.927 -20.702  0.00  0.00    -0.341 N 
ATOM      5  C   UNL     1      32.047 -11.462 -21.990  0.00  0.00    +0.038 A 
ATOM      6  C   UNL     1      32.342 -10.718 -23.112  0.00  0.00    +0.021 A 
ATOM      7  C   UNL     1      32.442  -9.362 -22.712  0.00  0.00    +0.026 A 
ATOM      8  C   UNL     1      32.207  -9.322 -21.355  0.00  0.00    +0.114 A 
ATOM      9  C   UNL     1      32.172  -8.248 -20.391  0.00  0.00    +0.145 C 
ATOM     10  C   UNL     1      31.684  -9.905 -18.832  0.00  0.00    +0.221 C 
ATOM     11  H   UNL     1      32.357  -6.241 -19.997  0.00  0.00    +0.144 HD
ATOM     12  H   UNL     1      32.594  -6.667 -21.631  0.00  0.00    +0.144 HD
ENDROOT
BRANCH   7  14
ATOM     13  S   UNL     1      31.627  -6.979 -23.941  0.00  0.00    -0.084 S 
ATOM     14  C   UNL     1      32.744  -8.218 -23.587  0.00  0.00    +0.031 C 
ATOM     15  C   UNL     1      33.951  -8.019 -24.214  0.00  0.00    +0.007 C 
ATOM     16  C   UNL     1      33.977  -6.823 -25.008  0.00  0.00    +0.009 C 
ATOM     17  C   UNL     1      32.753  -6.149 -24.949  0.00  0.00    +0.063 C 
ATOM     18  C   UNL     1      35.012  -6.266 -25.799  0.00  0.00    -0.004 C 
ATOM     19  C   UNL     1      32.541  -4.946 -25.651  0.00  0.00    +0.144 C 
ATOM     20  C   UNL     1      34.803  -5.073 -26.496  0.00  0.00    -0.019 C 
ATOM     21  C   UNL     1      33.580  -4.422 -26.422  0.00  0.00    +0.033 C 
ATOM     22  C   UNL     1      35.904  -4.500 -27.324  0.00  0.00    +0.031 C 
BRANCH  19  23
ATOM     23  O   UNL     1      31.346  -4.276 -25.599  0.00  0.00    -0.471 OA
ATOM     24  C   UNL     1      31.262  -3.190 -24.684  0.00  0.00    +0.252 C 
ENDBRANCH  19  23
ENDBRANCH   7  14
BRANCH   5  25
ATOM     25  C   UNL     1      31.832 -12.943 -21.833  0.00  0.00    -0.030 C 
BRANCH  25  27
ATOM     26  O   UNL     1      35.053 -15.870 -19.908  0.00  0.00    -0.277 OA
ATOM     27  N   UNL     1      33.083 -13.691 -21.958  0.00  0.00    +0.398 N 
ATOM     28  N   UNL     1      34.981 -15.686 -22.185  0.00  0.00    -0.308 N 
ATOM     29  C   UNL     1      33.103 -14.455 -23.207  0.00  0.00    -0.055 C 
ATOM     30  C   UNL     1      33.247 -14.594 -20.812  0.00  0.00    +0.010 C 
ATOM     31  C   UNL     1      34.496 -15.033 -23.382  0.00  0.00    +0.067 C 
ATOM     32  C   UNL     1      34.519 -15.409 -20.918  0.00  0.00    +0.201 C 
ATOM     33  H   UNL     1      33.858 -13.029 -21.969  0.00  0.00    -0.078 HD
ATOM     34  H   UNL     1      35.684 -16.368 -22.283  0.00  0.00    +0.149 HD
ENDBRANCH  25  27
ENDBRANCH   5  25
BRANCH   6  35
ATOM     35  C   UNL     1      32.516 -11.248 -24.482  0.00  0.00    +0.170 C 
BRANCH  35  36
ATOM     36  O   UNL     1      33.902 -11.453 -24.750  0.00  0.00    -0.346 OA
ATOM     37  C   UNL     1      34.110 -11.897 -26.082  0.00  0.00    +0.175 C 
ENDBRANCH  35  36
ENDBRANCH   6  35
TORSDOF 6
ENDMDL
MODEL 3
REMARK VINA RESULT:      -9.1      3.580      9.073
REMARK  Name = 71611869
REMARK  6 active torsions:
REMARK  status: ('A' for Active; 'I' for Inactive)
REMARK    1  A    between atoms: C_5  and  C_25
REMARK    2  A    between atoms: C_6  and  C_35
REMARK    3  A    between atoms: C_7  and  C_14
REMARK    4  A    between atoms: C_19  and  O_23
REMARK    5  A    between atoms: C_25  and  N_27
REMARK    6  A    between atoms: C_35  and  O_36
REMARK                            x       y       z     vdW  Elec       q    Type
REMARK                         _______ _______ _______ _____ _____    ______ ____
ROOT
ATOM      1  N   UNL     1      32.278 -10.925 -22.196  0.00  0.00    -0.232 N 
ATOM      2  N   UNL     1      31.565 -10.102 -21.388  0.00  0.00    -0.143 NA
ATOM      3  N   UNL     1      31.257 -12.016 -19.957  0.00  0.00    -0.206 NA
ATOM      4  N   UNL     1      32.097 -14.138 -20.358  0.00  0.00    -0.341 N 
ATOM      5  C   UNL     1      32.885 -10.587 -23.378  0.00  0.00    +0.038 A 
ATOM      6  C   UNL     1      33.499 -11.717 -23.873  0.00  0.00    +0.021 A 
ATOM      7  C   UNL     1      33.255 -12.772 -22.958  0.00  0.00    +0.026 A 
ATOM      8  C   UNL     1      32.497 -12.252 -21.933  0.00  0.00    +0.114 A 
ATOM      9  C   UNL     1      31.943 -12.822 -20.728  0.00  0.00    +0.145 C 
ATOM     10  C   UNL     1      31.100 -10.691 -20.324  0.00  0.00    +0.221 C 
ATOM     11  H   UNL     1      31.693 -14.465 -19.522  0.00  0.00    +0.144 HD
ATOM     12  H   UNL     1      32.611 -14.752 -20.930  0.00  0.00    +0.144 HD
ENDROOT
BRANCH   7  14
ATOM     13  S   UNL     1      34.589 -14.984 -21.870  0.00  0.00    -0.084 S 
ATOM     14  C   UNL     1      33.726 -14.160 -23.089  0.00  0.00    +0.031 C 
ATOM     15  C   UNL     1      33.524 -14.946 -24.199  0.00  0.00    +0.007 C 
ATOM     16  C   UNL     1      34.085 -16.260 -24.062  0.00  0.00    +0.009 C 
ATOM     17  C   UNL     1      34.707 -16.419 -22.819  0.00  0.00    +0.063 C 
ATOM     18  C   UNL     1      34.096 -17.355 -24.961  0.00  0.00    -0.004 C 
ATOM     19  C   UNL     1      35.331 -17.628 -22.457  0.00  0.00    +0.144 C 
ATOM     20  C   UNL     1      34.715 -18.556 -24.604  0.00  0.00    -0.019 C 
ATOM     21  C   UNL     1      35.325 -18.689 -23.365  0.00  0.00    +0.033 C 
ATOM     22  C   UNL     1      34.716 -19.699 -25.563  0.00  0.00    +0.031 C 
BRANCH  19  23
ATOM     23  O   UNL     1      35.942 -17.795 -21.242  0.00  0.00    -0.471 OA
ATOM     24  C   UNL     1      36.465 -19.089 -20.962  0.00  0.00    +0.252 C 
ENDBRANCH  19  23
ENDBRANCH   7  14
BRANCH   5  25
ATOM     25  C   UNL     1      32.820  -9.191 -23.936  0.00  0.00    -0.030 C 
BRANCH  25  27
ATOM     26  O   UNL     1      33.050  -6.710 -19.881  0.00  0.00    -0.277 OA
ATOM     27  N   UNL     1      32.198  -8.257 -22.997  0.00  0.00    +0.398 N 
ATOM     28  N   UNL     1      31.556  -6.041 -21.477  0.00  0.00    -0.308 N 
ATOM     29  C   UNL     1      31.669  -7.090 -23.707  0.00  0.00    -0.055 C 
ATOM     30  C   UNL     1      33.174  -7.833 -21.986  0.00  0.00    +0.010 C 
ATOM     31  C   UNL     1      30.856  -6.271 -22.722  0.00  0.00    +0.067 C 
ATOM     32  C   UNL     1      32.575  -6.841 -21.010  0.00  0.00    +0.201 C 
ATOM     33  H   UNL     1      31.425  -8.732 -22.531  0.00  0.00    -0.078 HD
ATOM     34  H   UNL     1      31.289  -5.267 -20.932  0.00  0.00    +0.149 HD
ENDBRANCH  25  27
ENDBRANCH   5  25
BRANCH   6  35
ATOM     35  C   UNL     1      34.272 -11.801 -25.131  0.00  0.00    +0.170 C 
BRANCH  35  36
ATOM     36  O   UNL     1      33.383 -11.837 -26.246  0.00  0.00    -0.346 OA
ATOM     37  C   UNL     1      33.570 -13.014 -27.018  0.00  0.00    +0.175 C 
ENDBRANCH  35  36
ENDBRANCH   6  35
TORSDOF 6
ENDMDL
MODEL 4
REMARK VINA RESULT:      -9.1      3.829      9.220
REMARK  Name = 71611869
REMARK  6 active torsions:
REMARK  status: ('A' for Active; 'I' for Inactive)
REMARK    1  A    between atoms: C_5  and  C_25
REMARK    2  A    between atoms: C_6  and  C_35
REMARK    3  A    between atoms: C_7  and  C_14
REMARK    4  A    between atoms: C_19  and  O_23
REMARK    5  A    between atoms: C_25  and  N_27
REMARK    6  A    between atoms: C_35  and  O_36
REMARK                            x       y       z     vdW  Elec       q    Type
REMARK                         _______ _______ _______ _____ _____    ______ ____
ROOT
ATOM      1  N   UNL     1      32.096 -10.711 -21.988  0.00  0.00    -0.232 N 
ATOM      2  N   UNL     1      31.370  -9.909 -21.171  0.00  0.00    -0.143 NA
ATOM      3  N   UNL     1      31.215 -11.804 -19.691  0.00  0.00    -0.206 NA
ATOM      4  N   UNL     1      32.151 -13.888 -20.080  0.00  0.00    -0.341 N 
ATOM      5  C   UNL     1      32.642 -10.368 -23.198  0.00  0.00    +0.038 A 
ATOM      6  C   UNL     1      33.297 -11.476 -23.693  0.00  0.00    +0.021 A 
ATOM      7  C   UNL     1      33.142 -12.521 -22.748  0.00  0.00    +0.026 A 
ATOM      8  C   UNL     1      32.395 -12.019 -21.706  0.00  0.00    +0.114 A 
ATOM      9  C   UNL     1      31.915 -12.590 -20.470  0.00  0.00    +0.145 C 
ATOM     10  C   UNL     1      30.975 -10.498 -20.079  0.00  0.00    +0.221 C 
ATOM     11  H   UNL     1      31.795 -14.217 -19.224  0.00  0.00    +0.144 HD
ATOM     12  H   UNL     1      32.676 -14.487 -20.659  0.00  0.00    +0.144 HD
ENDROOT
BRANCH   7  14
ATOM     13  S   UNL     1      33.537 -14.838 -24.276  0.00  0.00    -0.084 S 
ATOM     14  C   UNL     1      33.680 -13.886 -22.868  0.00  0.00    +0.031 C 
ATOM     15  C   UNL     1      34.354 -14.544 -21.867  0.00  0.00    +0.007 C 
ATOM     16  C   UNL     1      34.772 -15.863 -22.249  0.00  0.00    +0.009 C 
ATOM     17  C   UNL     1      34.384 -16.158 -23.560  0.00  0.00    +0.063 C 
ATOM     18  C   UNL     1      35.481 -16.851 -21.522  0.00  0.00    -0.004 C 
ATOM     19  C   UNL     1      34.683 -17.399 -24.155  0.00  0.00    +0.144 C 
ATOM     20  C   UNL     1      35.779 -18.082 -22.110  0.00  0.00    -0.019 C 
ATOM     21  C   UNL     1      35.384 -18.352 -23.412  0.00  0.00    +0.033 C 
ATOM     22  C   UNL     1      36.527 -19.111 -21.330  0.00  0.00    +0.031 C 
BRANCH  19  23
ATOM     23  O   UNL     1      34.310 -17.698 -25.439  0.00  0.00    -0.471 OA
ATOM     24  C   UNL     1      33.576 -18.903 -25.627  0.00  0.00    +0.252 C 
ENDBRANCH  19  23
ENDBRANCH   7  14
BRANCH   5  25
ATOM     25  C   UNL     1      32.483  -8.990 -23.781  0.00  0.00    -0.030 C 
BRANCH  25  27
ATOM     26  O   UNL     1      33.062  -6.608 -19.702  0.00  0.00    -0.277 OA
ATOM     27  N   UNL     1      31.967  -8.038 -22.798  0.00  0.00    +0.398 N 
ATOM     28  N   UNL     1      31.539  -5.817 -21.212  0.00  0.00    -0.308 N 
ATOM     29  C   UNL     1      31.479  -6.827 -23.462  0.00  0.00    -0.055 C 
ATOM     30  C   UNL     1      33.014  -7.695 -21.829  0.00  0.00    +0.010 C 
ATOM     31  C   UNL     1      30.766  -5.978 -22.425  0.00  0.00    +0.067 C 
ATOM     32  C   UNL     1      32.526  -6.687 -20.809  0.00  0.00    +0.201 C 
ATOM     33  H   UNL     1      31.189  -8.473 -22.302  0.00  0.00    -0.078 HD
ATOM     34  H   UNL     1      31.347  -5.039 -20.641  0.00  0.00    +0.149 HD
ENDBRANCH  25  27
ENDBRANCH   5  25
BRANCH   6  35
ATOM     35  C   UNL     1      34.028 -11.548 -24.976  0.00  0.00    +0.170 C 
BRANCH  35  36
ATOM     36  O   UNL     1      35.139 -10.654 -24.952  0.00  0.00    -0.346 OA
ATOM     37  C   UNL     1      35.594 -10.360 -26.265  0.00  0.00    +0.175 C 
ENDBRANCH  35  36
ENDBRANCH   6  35
TORSDOF 6
ENDMDL
MODEL 5
REMARK VINA RESULT:      -8.9      4.145      7.099
REMARK  Name = 71611869
REMARK  6 active torsions:
REMARK  status: ('A' for Active; 'I' for Inactive)
REMARK    1  A    between atoms: C_5  and  C_25
REMARK    2  A    between atoms: C_6  and  C_35
REMARK    3  A    between atoms: C_7  and  C_14
REMARK    4  A    between atoms: C_19  and  O_23
REMARK    5  A    between atoms: C_25  and  N_27
REMARK    6  A    between atoms: C_35  and  O_36
REMARK                            x       y       z     vdW  Elec       q    Type
REMARK                         _______ _______ _______ _____ _____    ______ ____
ROOT
ATOM      1  N   UNL     1      31.936 -10.625 -20.994  0.00  0.00    -0.232 N 
ATOM      2  N   UNL     1      31.731 -11.013 -19.711  0.00  0.00    -0.143 NA
ATOM      3  N   UNL     1      31.928  -8.682 -19.131  0.00  0.00    -0.206 NA
ATOM      4  N   UNL     1      32.315  -6.957 -20.628  0.00  0.00    -0.341 N 
ATOM      5  C   UNL     1      31.980 -11.437 -22.097  0.00  0.00    +0.038 A 
ATOM      6  C   UNL     1      32.210 -10.640 -23.198  0.00  0.00    +0.021 A 
ATOM      7  C   UNL     1      32.307  -9.301 -22.743  0.00  0.00    +0.026 A 
ATOM      8  C   UNL     1      32.135  -9.324 -21.377  0.00  0.00    +0.114 A 
ATOM      9  C   UNL     1      32.127  -8.294 -20.365  0.00  0.00    +0.145 C 
ATOM     10  C   UNL     1      31.739 -10.026 -18.861  0.00  0.00    +0.221 C 
ATOM     11  H   UNL     1      32.299  -6.303 -19.892  0.00  0.00    +0.144 HD
ATOM     12  H   UNL     1      32.466  -6.654 -21.553  0.00  0.00    +0.144 HD
ENDROOT
BRANCH   7  14
ATOM     13  S   UNL     1      34.017  -7.819 -24.396  0.00  0.00    -0.084 S 
ATOM     14  C   UNL     1      32.549  -8.115 -23.580  0.00  0.00    +0.031 C 
ATOM     15  C   UNL     1      31.628  -7.119 -23.798  0.00  0.00    +0.007 C 
ATOM     16  C   UNL     1      32.122  -6.079 -24.655  0.00  0.00    +0.009 C 
ATOM     17  C   UNL     1      33.435  -6.338 -25.061  0.00  0.00    +0.063 C 
ATOM     18  C   UNL     1      31.499  -4.894 -25.119  0.00  0.00    -0.004 C 
ATOM     19  C   UNL     1      34.132  -5.454 -25.908  0.00  0.00    +0.144 C 
ATOM     20  C   UNL     1      32.188  -4.016 -25.959  0.00  0.00    -0.019 C 
ATOM     21  C   UNL     1      33.491  -4.295 -26.348  0.00  0.00    +0.033 C 
ATOM     22  C   UNL     1      31.516  -2.773 -26.439  0.00  0.00    +0.031 C 
BRANCH  19  23
ATOM     23  O   UNL     1      35.418  -5.699 -26.313  0.00  0.00    -0.471 OA
ATOM     24  C   UNL     1      35.899  -4.933 -27.411  0.00  0.00    +0.252 C 
ENDBRANCH  19  23
ENDBRANCH   7  14
BRANCH   5  25
ATOM     25  C   UNL     1      31.795 -12.928 -21.997  0.00  0.00    -0.030 C 
BRANCH  25  27
ATOM     26  O   UNL     1      35.039 -15.736 -19.937  0.00  0.00    -0.277 OA
ATOM     27  N   UNL     1      33.071 -13.640 -22.074  0.00  0.00    +0.398 N 
ATOM     28  N   UNL     1      35.032 -15.581 -22.218  0.00  0.00    -0.308 N 
ATOM     29  C   UNL     1      33.151 -14.418 -23.312  0.00  0.00    -0.055 C 
ATOM     30  C   UNL     1      33.225 -14.524 -20.912  0.00  0.00    +0.010 C 
ATOM     31  C   UNL     1      34.564 -14.957 -23.437  0.00  0.00    +0.067 C 
ATOM     32  C   UNL     1      34.523 -15.303 -20.969  0.00  0.00    +0.201 C 
ATOM     33  H   UNL     1      33.826 -12.955 -22.070  0.00  0.00    -0.078 HD
ATOM     34  H   UNL     1      35.756 -16.243 -22.285  0.00  0.00    +0.149 HD
ENDBRANCH  25  27
ENDBRANCH   5  25
BRANCH   6  35
ATOM     35  C   UNL     1      32.329 -11.107 -24.596  0.00  0.00    +0.170 C 
BRANCH  35  36
ATOM     36  O   UNL     1      33.701 -11.324 -24.920  0.00  0.00    -0.346 OA
ATOM     37  C   UNL     1      33.836 -12.107 -26.097  0.00  0.00    +0.175 C 
ENDBRANCH  35  36
ENDBRANCH   6  35
TORSDOF 6
ENDMDL
MODEL 6
REMARK VINA RESULT:      -8.6      2.967      4.868
REMARK  Name = 71611869
REMARK  6 active torsions:
REMARK  status: ('A' for Active; 'I' for Inactive)
REMARK    1  A    between atoms: C_5  and  C_25
REMARK    2  A    between atoms: C_6  and  C_35
REMARK    3  A    between atoms: C_7  and  C_14
REMARK    4  A    between atoms: C_19  and  O_23
REMARK    5  A    between atoms: C_25  and  N_27
REMARK    6  A    between atoms: C_35  and  O_36
REMARK                            x       y       z     vdW  Elec       q    Type
REMARK                         _______ _______ _______ _____ _____    ______ ____
ROOT
ATOM      1  N   UNL     1      32.953 -14.414 -22.800  0.00  0.00    -0.232 N 
ATOM      2  N   UNL     1      32.782 -15.535 -22.058  0.00  0.00    -0.143 NA
ATOM      3  N   UNL     1      32.102 -14.069 -20.270  0.00  0.00    -0.206 NA
ATOM      4  N   UNL     1      31.996 -11.759 -20.399  0.00  0.00    -0.341 N 
ATOM      5  C   UNL     1      33.374 -14.351 -24.103  0.00  0.00    +0.038 A 
ATOM      6  C   UNL     1      33.410 -13.023 -24.471  0.00  0.00    +0.021 A 
ATOM      7  C   UNL     1      32.994 -12.259 -23.352  0.00  0.00    +0.026 A 
ATOM      8  C   UNL     1      32.719 -13.146 -22.335  0.00  0.00    +0.114 A 
ATOM      9  C   UNL     1      32.263 -12.978 -20.975  0.00  0.00    +0.145 C 
ATOM     10  C   UNL     1      32.369 -15.299 -20.845  0.00  0.00    +0.221 C 
ATOM     11  H   UNL     1      31.688 -11.712 -19.465  0.00  0.00    +0.144 HD
ATOM     12  H   UNL     1      32.114 -10.932 -20.920  0.00  0.00    +0.144 HD
ENDROOT
BRANCH   7  14
ATOM     13  S   UNL     1      34.049  -9.730 -23.942  0.00  0.00    -0.084 S 
ATOM     14  C   UNL     1      32.882 -10.792 -23.296  0.00  0.00    +0.031 C 
ATOM     15  C   UNL     1      31.832 -10.117 -22.720  0.00  0.00    +0.007 C 
ATOM     16  C   UNL     1      31.973  -8.691 -22.805  0.00  0.00    +0.009 C 
ATOM     17  C   UNL     1      33.158  -8.336 -23.457  0.00  0.00    +0.063 C 
ATOM     18  C   UNL     1      31.126  -7.653 -22.343  0.00  0.00    -0.004 C 
ATOM     19  C   UNL     1      33.513  -6.988 -23.658  0.00  0.00    +0.144 C 
ATOM     20  C   UNL     1      31.476  -6.315 -22.541  0.00  0.00    -0.019 C 
ATOM     21  C   UNL     1      32.657  -5.988 -23.191  0.00  0.00    +0.033 C 
ATOM     22  C   UNL     1      30.572  -5.235 -22.049  0.00  0.00    +0.031 C 
BRANCH  19  23
ATOM     23  O   UNL     1      34.671  -6.629 -24.297  0.00  0.00    -0.471 OA
ATOM     24  C   UNL     1      34.537  -6.098 -25.611  0.00  0.00    +0.252 C 
ENDBRANCH  19  23
ENDBRANCH   7  14
BRANCH   5  25
ATOM     25  C   UNL     1      33.712 -15.588 -24.891  0.00  0.00    -0.030 C 
BRANCH  25  27
ATOM     26  O   UNL     1      34.944 -20.153 -24.348  0.00  0.00    -0.277 OA
ATOM     27  N   UNL     1      34.217 -16.660 -24.033  0.00  0.00    +0.398 N 
ATOM     28  N   UNL     1      35.763 -18.625 -22.858  0.00  0.00    -0.308 N 
ATOM     29  C   UNL     1      35.425 -16.226 -23.327  0.00  0.00    -0.055 C 
ATOM     30  C   UNL     1      34.503 -17.856 -24.834  0.00  0.00    +0.010 C 
ATOM     31  C   UNL     1      35.776 -17.289 -22.301  0.00  0.00    +0.067 C 
ATOM     32  C   UNL     1      35.056 -18.981 -23.984  0.00  0.00    +0.201 C 
ATOM     33  H   UNL     1      33.501 -16.888 -23.343  0.00  0.00    -0.078 HD
ATOM     34  H   UNL     1      36.292 -19.320 -22.404  0.00  0.00    +0.149 HD
ENDBRANCH  25  27
ENDBRANCH   5  25
BRANCH   6  35
ATOM     35  C   UNL     1      33.808 -12.502 -25.796  0.00  0.00    +0.170 C 
BRANCH  35  36
ATOM     36  O   UNL     1      32.838 -12.870 -26.775  0.00  0.00    -0.346 OA
ATOM     37  C   UNL     1      33.393 -13.740 -27.750  0.00  0.00    +0.175 C 
ENDBRANCH  35  36
ENDBRANCH   6  35
TORSDOF 6
ENDMDL
MODEL 7
REMARK VINA RESULT:      -8.6      2.205      3.589
REMARK  Name = 71611869
REMARK  6 active torsions:
REMARK  status: ('A' for Active; 'I' for Inactive)
REMARK    1  A    between atoms: C_5  and  C_25
REMARK    2  A    between atoms: C_6  and  C_35
REMARK    3  A    between atoms: C_7  and  C_14
REMARK    4  A    between atoms: C_19  and  O_23
REMARK    5  A    between atoms: C_25  and  N_27
REMARK    6  A    between atoms: C_35  and  O_36
REMARK                            x       y       z     vdW  Elec       q    Type
REMARK                         _______ _______ _______ _____ _____    ______ ____
ROOT
ATOM      1  N   UNL     1      33.289 -14.762 -24.106  0.00  0.00    -0.232 N 
ATOM      2  N   UNL     1      33.430 -15.822 -24.939  0.00  0.00    -0.143 NA
ATOM      3  N   UNL     1      33.484 -14.216 -26.735  0.00  0.00    -0.206 NA
ATOM      4  N   UNL     1      33.314 -11.919 -26.483  0.00  0.00    -0.341 N 
ATOM      5  C   UNL     1      33.172 -14.804 -22.741  0.00  0.00    +0.038 A 
ATOM      6  C   UNL     1      33.049 -13.508 -22.289  0.00  0.00    +0.021 A 
ATOM      7  C   UNL     1      33.093 -12.655 -23.420  0.00  0.00    +0.026 A 
ATOM      8  C   UNL     1      33.241 -13.459 -24.528  0.00  0.00    +0.114 A 
ATOM      9  C   UNL     1      33.348 -13.183 -25.942  0.00  0.00    +0.145 C 
ATOM     10  C   UNL     1      33.519 -15.489 -26.196  0.00  0.00    +0.221 C 
ATOM     11  H   UNL     1      33.391 -11.797 -27.456  0.00  0.00    +0.144 HD
ATOM     12  H   UNL     1      33.212 -11.135 -25.895  0.00  0.00    +0.144 HD
ENDROOT
BRANCH   7  14
ATOM     13  S   UNL     1      34.211 -10.153 -24.011  0.00  0.00    -0.084 S 
ATOM     14  C   UNL     1      32.997 -11.186 -23.405  0.00  0.00    +0.031 C 
ATOM     15  C   UNL     1      31.926 -10.485 -22.905  0.00  0.00    +0.007 C 
ATOM     16  C   UNL     1      32.088  -9.063 -23.015  0.00  0.00    +0.009 C 
ATOM     17  C   UNL     1      33.312  -8.738 -23.609  0.00  0.00    +0.063 C 
ATOM     18  C   UNL     1      31.230  -8.006 -22.625  0.00  0.00    -0.004 C 
ATOM     19  C   UNL     1      33.694  -7.399 -23.821  0.00  0.00    +0.144 C 
ATOM     20  C   UNL     1      31.608  -6.677 -22.835  0.00  0.00    -0.019 C 
ATOM     21  C   UNL     1      32.826  -6.378 -23.427  0.00  0.00    +0.033 C 
ATOM     22  C   UNL     1      30.691  -5.575 -22.419  0.00  0.00    +0.031 C 
BRANCH  19  23
ATOM     23  O   UNL     1      34.890  -7.069 -24.404  0.00  0.00    -0.471 OA
ATOM     24  C   UNL     1      34.828  -6.265 -25.577  0.00  0.00    +0.252 C 
ENDBRANCH  19  23
ENDBRANCH   7  14
BRANCH   5  25
ATOM     25  C   UNL     1      33.189 -16.102 -21.980  0.00  0.00    -0.030 C 
BRANCH  25  27
ATOM     26  O   UNL     1      36.714 -18.823 -20.300  0.00  0.00    -0.277 OA
ATOM     27  N   UNL     1      34.415 -16.861 -22.223  0.00  0.00    +0.398 N 
ATOM     28  N   UNL     1      36.283 -18.871 -22.545  0.00  0.00    -0.308 N 
ATOM     29  C   UNL     1      34.250 -17.748 -23.377  0.00  0.00    -0.055 C 
ATOM     30  C   UNL     1      34.770 -17.643 -21.033  0.00  0.00    +0.010 C 
ATOM     31  C   UNL     1      35.607 -18.342 -23.710  0.00  0.00    +0.067 C 
ATOM     32  C   UNL     1      36.022 -18.467 -21.255  0.00  0.00    +0.201 C 
ATOM     33  H   UNL     1      35.170 -16.204 -22.423  0.00  0.00    -0.078 HD
ATOM     34  H   UNL     1      36.972 -19.561 -22.683  0.00  0.00    +0.149 HD
ENDBRANCH  25  27
ENDBRANCH   5  25
BRANCH   6  35
ATOM     35  C   UNL     1      32.900 -13.093 -20.877  0.00  0.00    +0.170 C 
BRANCH  35  36
ATOM     36  O   UNL     1      31.564 -12.653 -20.639  0.00  0.00    -0.346 OA
ATOM     37  C   UNL     1      31.535 -11.562 -19.730  0.00  0.00    +0.175 C 
ENDBRANCH  35  36
ENDBRANCH   6  35
TORSDOF 6
ENDMDL
MODEL 8
REMARK VINA RESULT:      -8.6      1.884      2.803
REMARK  Name = 71611869
REMARK  6 active torsions:
REMARK  status: ('A' for Active; 'I' for Inactive)
REMARK    1  A    between atoms: C_5  and  C_25
REMARK    2  A    between atoms: C_6  and  C_35
REMARK    3  A    between atoms: C_7  and  C_14
REMARK    4  A    between atoms: C_19  and  O_23
REMARK    5  A    between atoms: C_25  and  N_27
REMARK    6  A    between atoms: C_35  and  O_36
REMARK                            x       y       z     vdW  Elec       q    Type
REMARK                         _______ _______ _______ _____ _____    ______ ____
ROOT
ATOM      1  N   UNL     1      33.451 -15.235 -23.444  0.00  0.00    -0.232 N 
ATOM      2  N   UNL     1      33.585 -16.436 -24.058  0.00  0.00    -0.143 NA
ATOM      3  N   UNL     1      33.708 -15.201 -26.123  0.00  0.00    -0.206 NA
ATOM      4  N   UNL     1      33.584 -12.896 -26.315  0.00  0.00    -0.341 N 
ATOM      5  C   UNL     1      33.308 -15.015 -22.099  0.00  0.00    +0.038 A 
ATOM      6  C   UNL     1      33.205 -13.654 -21.903  0.00  0.00    +0.021 A 
ATOM      7  C   UNL     1      33.289 -13.033 -23.174  0.00  0.00    +0.026 A 
ATOM      8  C   UNL     1      33.440 -14.035 -24.106  0.00  0.00    +0.114 A 
ATOM      9  C   UNL     1      33.580 -14.035 -25.544  0.00  0.00    +0.145 C 
ATOM     10  C   UNL     1      33.705 -16.350 -25.352  0.00  0.00    +0.221 C 
ATOM     11  H   UNL     1      33.682 -12.963 -27.292  0.00  0.00    +0.144 HD
ATOM     12  H   UNL     1      33.488 -12.013 -25.889  0.00  0.00    +0.144 HD
ENDROOT
BRANCH   7  14
ATOM     13  S   UNL     1      31.898 -10.606 -23.010  0.00  0.00    -0.084 S 
ATOM     14  C   UNL     1      33.225 -11.586 -23.440  0.00  0.00    +0.031 C 
ATOM     15  C   UNL     1      34.219 -10.867 -24.058  0.00  0.00    +0.007 C 
ATOM     16  C   UNL     1      33.900  -9.473 -24.191  0.00  0.00    +0.009 C 
ATOM     17  C   UNL     1      32.641  -9.189 -23.652  0.00  0.00    +0.063 C 
ATOM     18  C   UNL     1      34.642  -8.409 -24.760  0.00  0.00    -0.004 C 
ATOM     19  C   UNL     1      32.112  -7.883 -23.668  0.00  0.00    +0.144 C 
ATOM     20  C   UNL     1      34.119  -7.114 -24.776  0.00  0.00    -0.019 C 
ATOM     21  C   UNL     1      32.868  -6.855 -24.235  0.00  0.00    +0.033 C 
ATOM     22  C   UNL     1      34.915  -6.004 -25.379  0.00  0.00    +0.031 C 
BRANCH  19  23
ATOM     23  O   UNL     1      30.880  -7.592 -23.142  0.00  0.00    -0.471 OA
ATOM     24  C   UNL     1      30.728  -6.311 -22.542  0.00  0.00    +0.252 C 
ENDBRANCH  19  23
ENDBRANCH   7  14
BRANCH   5  25
ATOM     25  C   UNL     1      33.281 -16.145 -21.105  0.00  0.00    -0.030 C 
BRANCH  25  27
ATOM     26  O   UNL     1      37.351 -18.473 -21.927  0.00  0.00    -0.277 OA
ATOM     27  N   UNL     1      33.969 -17.332 -21.612  0.00  0.00    +0.398 N 
ATOM     28  N   UNL     1      35.409 -19.679 -21.846  0.00  0.00    -0.308 N 
ATOM     29  C   UNL     1      33.355 -18.550 -21.077  0.00  0.00    -0.055 C 
ATOM     30  C   UNL     1      35.391 -17.284 -21.250  0.00  0.00    +0.010 C 
ATOM     31  C   UNL     1      33.964 -19.738 -21.798  0.00  0.00    +0.067 C 
ATOM     32  C   UNL     1      36.134 -18.513 -21.733  0.00  0.00    +0.201 C 
ATOM     33  H   UNL     1      33.888 -17.346 -22.628  0.00  0.00    -0.078 HD
ATOM     34  H   UNL     1      35.904 -20.521 -21.966  0.00  0.00    +0.149 HD
ENDBRANCH  25  27
ENDBRANCH   5  25
BRANCH   6  35
ATOM     35  C   UNL     1      33.038 -12.976 -20.599  0.00  0.00    +0.170 C 
BRANCH  35  36
ATOM     36  O   UNL     1      31.667 -12.636 -20.401  0.00  0.00    -0.346 OA
ATOM     37  C   UNL     1      31.535 -11.473 -19.597  0.00  0.00    +0.175 C 
ENDBRANCH  35  36
ENDBRANCH   6  35
TORSDOF 6
ENDMDL
MODEL 9
REMARK VINA RESULT:      -8.4      4.123      9.697
REMARK  Name = 71611869
REMARK  6 active torsions:
REMARK  status: ('A' for Active; 'I' for Inactive)
REMARK    1  A    between atoms: C_5  and  C_25
REMARK    2  A    between atoms: C_6  and  C_35
REMARK    3  A    between atoms: C_7  and  C_14
REMARK    4  A    between atoms: C_19  and  O_23
REMARK    5  A    between atoms: C_25  and  N_27
REMARK    6  A    between atoms: C_35  and  O_36
REMARK                            x       y       z     vdW  Elec       q    Type
REMARK                         _______ _______ _______ _____ _____    ______ ____
ROOT
ATOM      1  N   UNL     1      32.601  -9.500 -22.138  0.00  0.00    -0.232 N 
ATOM      2  N   UNL     1      31.882  -8.740 -21.276  0.00  0.00    -0.143 NA
ATOM      3  N   UNL     1      30.923 -10.805 -20.486  0.00  0.00    -0.206 NA
ATOM      4  N   UNL     1      31.441 -12.916 -21.290  0.00  0.00    -0.341 N 
ATOM      5  C   UNL     1      33.509  -9.053 -23.062  0.00  0.00    +0.038 A 
ATOM      6  C   UNL     1      34.009 -10.151 -23.728  0.00  0.00    +0.021 A 
ATOM      7  C   UNL     1      33.381 -11.301 -23.186  0.00  0.00    +0.026 A 
ATOM      8  C   UNL     1      32.516 -10.866 -22.207  0.00  0.00    +0.114 A 
ATOM      9  C   UNL     1      31.611 -11.551 -21.314  0.00  0.00    +0.145 C 
ATOM     10  C   UNL     1      31.091  -9.432 -20.506  0.00  0.00    +0.221 C 
ATOM     11  H   UNL     1      30.807 -13.322 -20.656  0.00  0.00    +0.144 HD
ATOM     12  H   UNL     1      31.953 -13.487 -21.908  0.00  0.00    +0.144 HD
ENDROOT
BRANCH   7  14
ATOM     13  S   UNL     1      33.042 -13.351 -25.067  0.00  0.00    -0.084 S 
ATOM     14  C   UNL     1      33.614 -12.694 -23.601  0.00  0.00    +0.031 C 
ATOM     15  C   UNL     1      34.313 -13.616 -22.860  0.00  0.00    +0.007 C 
ATOM     16  C   UNL     1      34.393 -14.900 -23.497  0.00  0.00    +0.009 C 
ATOM     17  C   UNL     1      33.730 -14.896 -24.729  0.00  0.00    +0.063 C 
ATOM     18  C   UNL     1      35.013 -16.101 -23.074  0.00  0.00    -0.004 C 
ATOM     19  C   UNL     1      33.672 -16.048 -25.537  0.00  0.00    +0.144 C 
ATOM     20  C   UNL     1      34.957 -17.245 -23.875  0.00  0.00    -0.019 C 
ATOM     21  C   UNL     1      34.294 -17.217 -25.093  0.00  0.00    +0.033 C 
ATOM     22  C   UNL     1      35.617 -18.501 -23.414  0.00  0.00    +0.031 C 
BRANCH  19  23
ATOM     23  O   UNL     1      33.027 -16.055 -26.746  0.00  0.00    -0.471 OA
ATOM     24  C   UNL     1      31.961 -16.987 -26.896  0.00  0.00    +0.252 C 
ENDBRANCH  19  23
ENDBRANCH   7  14
BRANCH   5  25
ATOM     25  C   UNL     1      33.822  -7.590 -23.228  0.00  0.00    -0.030 C 
BRANCH  25  27
ATOM     26  O   UNL     1      30.197  -4.765 -21.990  0.00  0.00    -0.277 OA
ATOM     27  N   UNL     1      32.639  -6.821 -23.615  0.00  0.00    +0.398 N 
ATOM     28  N   UNL     1      30.849  -4.794 -24.181  0.00  0.00    -0.308 N 
ATOM     29  C   UNL     1      32.935  -5.973 -24.772  0.00  0.00    -0.055 C 
ATOM     30  C   UNL     1      32.183  -5.997 -22.489  0.00  0.00    +0.010 C 
ATOM     31  C   UNL     1      31.629  -5.369 -25.256  0.00  0.00    +0.067 C 
ATOM     32  C   UNL     1      30.974  -5.162 -22.860  0.00  0.00    +0.201 C 
ATOM     33  H   UNL     1      31.897  -7.472 -23.870  0.00  0.00    -0.078 HD
ATOM     34  H   UNL     1      30.191  -4.099 -24.407  0.00  0.00    +0.149 HD
ENDBRANCH  25  27
ENDBRANCH   5  25
BRANCH   6  35
ATOM     35  C   UNL     1      35.019 -10.124 -24.808  0.00  0.00    +0.170 C 
BRANCH  35  36
ATOM     36  O   UNL     1      34.454 -10.639 -26.013  0.00  0.00    -0.346 OA
ATOM     37  C   UNL     1      35.463 -10.960 -26.959  0.00  0.00    +0.175 C 
ENDBRANCH  35  36
ENDBRANCH   6  35
TORSDOF 6
ENDMDL
