MODEL 1
REMARK VINA RESULT:     -11.4      0.000      0.000
REMARK  Name = 11998575
REMARK  7 active torsions:
REMARK  status: ('A' for Active; 'I' for Inactive)
REMARK    1  A    between atoms: C_6  and  C_18
REMARK    2  A    between atoms: C_14  and  O_22
REMARK    3  A    between atoms: C_15  and  O_16
REMARK    4  A    between atoms: C_18  and  O_20
REMARK    5  A    between atoms: O_22  and  C_23
REMARK    6  A    between atoms: C_23  and  C_24
REMARK    7  A    between atoms: C_29  and  O_30
REMARK                            x       y       z     vdW  Elec       q    Type
REMARK                         _______ _______ _______ _____ _____    ______ ____
ROOT
ATOM      1  O   UNL     1      37.391 -21.959 -17.671  0.00  0.00    -0.421 OA
ATOM      2  O   UNL     1      38.503 -22.751 -15.845  0.00  0.00    -0.244 OA
ATOM      3  C   UNL     1      34.934 -22.774 -16.532  0.00  0.00    +0.009 A 
ATOM      4  C   UNL     1      34.960 -22.120 -17.847  0.00  0.00    +0.038 A 
ATOM      5  C   UNL     1      36.142 -22.991 -15.846  0.00  0.00    +0.076 A 
ATOM      6  C   UNL     1      34.972 -24.027 -13.993  0.00  0.00    +0.004 C 
ATOM      7  C   UNL     1      36.191 -21.731 -18.379  0.00  0.00    +0.152 A 
ATOM      8  C   UNL     1      36.160 -23.612 -14.586  0.00  0.00    +0.004 C 
ATOM      9  C   UNL     1      33.748 -23.205 -15.906  0.00  0.00    +0.000 C 
ATOM     10  C   UNL     1      33.825 -21.850 -18.628  0.00  0.00    +0.043 C 
ATOM     11  C   UNL     1      33.767 -23.824 -14.653  0.00  0.00    -0.002 C 
ATOM     12  C   UNL     1      37.440 -22.572 -16.426  0.00  0.00    +0.346 A 
ATOM     13  C   UNL     1      36.320 -21.104 -19.621  0.00  0.00    +0.078 C 
ATOM     14  C   UNL     1      35.179 -20.850 -20.372  0.00  0.00    +0.176 C 
ATOM     15  C   UNL     1      33.932 -21.223 -19.877  0.00  0.00    +0.173 C 
ENDROOT
BRANCH  15  16
ATOM     16  O   UNL     1      32.803 -20.981 -20.601  0.00  0.00    -0.468 OA
ATOM     17  C   UNL     1      32.318 -19.640 -20.615  0.00  0.00    +0.253 C 
ENDBRANCH  15  16
BRANCH   6  18
ATOM     18  C   UNL     1      34.992 -24.688 -12.657  0.00  0.00    +0.133 C 
ATOM     19  C   UNL     1      36.373 -25.240 -12.289  0.00  0.00    +0.037 C 
BRANCH  18  20
ATOM     20  O   UNL     1      34.590 -23.758 -11.644  0.00  0.00    -0.380 OA
ATOM     21  H   UNL     1      35.311 -23.647 -11.004  0.00  0.00    +0.211 HD
ENDBRANCH  18  20
ENDBRANCH   6  18
BRANCH  14  22
ATOM     22  O   UNL     1      35.292 -20.241 -21.584  0.00  0.00    -0.467 OA
BRANCH  22  23
ATOM     23  C   UNL     1      35.824 -18.917 -21.598  0.00  0.00    +0.232 C 
BRANCH  23  24
ATOM     24  C   UNL     1      35.307 -18.195 -22.808  0.00  0.00    +0.021 C 
ATOM     25  C   UNL     1      35.230 -16.808 -22.801  0.00  0.00    +0.002 C 
ATOM     26  C   UNL     1      34.910 -18.923 -23.926  0.00  0.00    +0.002 C 
ATOM     27  C   UNL     1      34.749 -16.137 -23.927  0.00  0.00    +0.037 C 
ATOM     28  C   UNL     1      34.429 -18.252 -25.050  0.00  0.00    +0.037 C 
ATOM     29  C   UNL     1      34.349 -16.860 -25.051  0.00  0.00    +0.139 C 
BRANCH  29  30
ATOM     30  O   UNL     1      33.880 -16.205 -26.148  0.00  0.00    -0.471 OA
ATOM     31  C   UNL     1      33.219 -14.960 -25.930  0.00  0.00    +0.252 C 
ENDBRANCH  29  30
ENDBRANCH  23  24
ENDBRANCH  22  23
ENDBRANCH  14  22
TORSDOF 7
ENDMDL
MODEL 2
REMARK VINA RESULT:     -11.1      4.352     11.519
REMARK  Name = 11998575
REMARK  7 active torsions:
REMARK  status: ('A' for Active; 'I' for Inactive)
REMARK    1  A    between atoms: C_6  and  C_18
REMARK    2  A    between atoms: C_14  and  O_22
REMARK    3  A    between atoms: C_15  and  O_16
REMARK    4  A    between atoms: C_18  and  O_20
REMARK    5  A    between atoms: O_22  and  C_23
REMARK    6  A    between atoms: C_23  and  C_24
REMARK    7  A    between atoms: C_29  and  O_30
REMARK                            x       y       z     vdW  Elec       q    Type
REMARK                         _______ _______ _______ _____ _____    ______ ____
ROOT
ATOM      1  O   UNL     1      32.122 -13.572 -20.853  0.00  0.00    -0.421 OA
ATOM      2  O   UNL     1      31.155 -11.622 -20.173  0.00  0.00    -0.244 OA
ATOM      3  C   UNL     1      33.219 -12.247 -23.098  0.00  0.00    +0.009 A 
ATOM      4  C   UNL     1      33.469 -13.679 -22.888  0.00  0.00    +0.038 A 
ATOM      5  C   UNL     1      32.430 -11.541 -22.173  0.00  0.00    +0.076 A 
ATOM      6  C   UNL     1      32.690  -9.485 -23.429  0.00  0.00    +0.004 C 
ATOM      7  C   UNL     1      32.912 -14.300 -21.768  0.00  0.00    +0.152 A 
ATOM      8  C   UNL     1      32.168 -10.171 -22.338  0.00  0.00    +0.004 C 
ATOM      9  C   UNL     1      33.734 -11.525 -24.192  0.00  0.00    +0.000 C 
ATOM     10  C   UNL     1      34.238 -14.489 -23.738  0.00  0.00    +0.043 C 
ATOM     11  C   UNL     1      33.472 -10.161 -24.356  0.00  0.00    -0.002 C 
ATOM     12  C   UNL     1      31.845 -12.218 -20.990  0.00  0.00    +0.346 A 
ATOM     13  C   UNL     1      33.090 -15.656 -21.483  0.00  0.00    +0.078 C 
ATOM     14  C   UNL     1      33.856 -16.434 -22.343  0.00  0.00    +0.176 C 
ATOM     15  C   UNL     1      34.429 -15.852 -23.470  0.00  0.00    +0.173 C 
ENDROOT
BRANCH  15  16
ATOM     16  O   UNL     1      35.182 -16.600 -24.324  0.00  0.00    -0.468 OA
ATOM     17  C   UNL     1      34.508 -17.193 -25.432  0.00  0.00    +0.253 C 
ENDBRANCH  15  16
BRANCH   6  18
ATOM     18  C   UNL     1      32.410  -8.031 -23.603  0.00  0.00    +0.133 C 
ATOM     19  C   UNL     1      30.912  -7.721 -23.684  0.00  0.00    +0.037 C 
BRANCH  18  20
ATOM     20  O   UNL     1      32.969  -7.289 -22.513  0.00  0.00    -0.380 OA
ATOM     21  H   UNL     1      33.740  -6.789 -22.824  0.00  0.00    +0.211 HD
ENDBRANCH  18  20
ENDBRANCH   6  18
BRANCH  14  22
ATOM     22  O   UNL     1      34.036 -17.756 -22.075  0.00  0.00    -0.467 OA
BRANCH  22  23
ATOM     23  C   UNL     1      35.208 -18.117 -21.346  0.00  0.00    +0.232 C 
BRANCH  23  24
ATOM     24  C   UNL     1      34.984 -19.448 -20.688  0.00  0.00    +0.021 C 
ATOM     25  C   UNL     1      36.074 -20.201 -20.270  0.00  0.00    +0.002 C 
ATOM     26  C   UNL     1      33.686 -19.915 -20.505  0.00  0.00    +0.002 C 
ATOM     27  C   UNL     1      35.866 -21.439 -19.659  0.00  0.00    +0.037 C 
ATOM     28  C   UNL     1      33.478 -21.152 -19.894  0.00  0.00    +0.037 C 
ATOM     29  C   UNL     1      34.567 -21.913 -19.472  0.00  0.00    +0.139 C 
BRANCH  29  30
ATOM     30  O   UNL     1      34.364 -23.120 -18.875  0.00  0.00    -0.471 OA
ATOM     31  C   UNL     1      33.533 -23.140 -17.716  0.00  0.00    +0.252 C 
ENDBRANCH  29  30
ENDBRANCH  23  24
ENDBRANCH  22  23
ENDBRANCH  14  22
TORSDOF 7
ENDMDL
MODEL 3
REMARK VINA RESULT:     -11.1      1.681      2.347
REMARK  Name = 11998575
REMARK  7 active torsions:
REMARK  status: ('A' for Active; 'I' for Inactive)
REMARK    1  A    between atoms: C_6  and  C_18
REMARK    2  A    between atoms: C_14  and  O_22
REMARK    3  A    between atoms: C_15  and  O_16
REMARK    4  A    between atoms: C_18  and  O_20
REMARK    5  A    between atoms: O_22  and  C_23
REMARK    6  A    between atoms: C_23  and  C_24
REMARK    7  A    between atoms: C_29  and  O_30
REMARK                            x       y       z     vdW  Elec       q    Type
REMARK                         _______ _______ _______ _____ _____    ______ ____
ROOT
ATOM      1  O   UNL     1      35.984 -22.628 -17.240  0.00  0.00    -0.421 OA
ATOM      2  O   UNL     1      36.125 -23.842 -15.315  0.00  0.00    -0.244 OA
ATOM      3  C   UNL     1      33.162 -22.791 -17.138  0.00  0.00    +0.009 A 
ATOM      4  C   UNL     1      33.824 -22.073 -18.236  0.00  0.00    +0.038 A 
ATOM      5  C   UNL     1      33.944 -23.396 -16.140  0.00  0.00    +0.076 A 
ATOM      6  C   UNL     1      31.967 -24.194 -14.989  0.00  0.00    +0.004 C 
ATOM      7  C   UNL     1      35.218 -22.013 -18.254  0.00  0.00    +0.152 A 
ATOM      8  C   UNL     1      33.351 -24.091 -15.074  0.00  0.00    +0.004 C 
ATOM      9  C   UNL     1      31.763 -22.911 -17.026  0.00  0.00    +0.000 C 
ATOM     10  C   UNL     1      33.154 -21.430 -19.289  0.00  0.00    +0.043 C 
ATOM     11  C   UNL     1      31.173 -23.605 -15.964  0.00  0.00    -0.002 C 
ATOM     12  C   UNL     1      35.425 -23.323 -16.175  0.00  0.00    +0.346 A 
ATOM     13  C   UNL     1      35.939 -21.355 -19.255  0.00  0.00    +0.078 C 
ATOM     14  C   UNL     1      35.248 -20.729 -20.285  0.00  0.00    +0.176 C 
ATOM     15  C   UNL     1      33.857 -20.766 -20.303  0.00  0.00    +0.173 C 
ENDROOT
BRANCH  15  16
ATOM     16  O   UNL     1      33.165 -20.157 -21.306  0.00  0.00    -0.468 OA
ATOM     17  C   UNL     1      32.294 -19.090 -20.936  0.00  0.00    +0.253 C 
ENDBRANCH  15  16
BRANCH   6  18
ATOM     18  C   UNL     1      31.337 -24.933 -13.858  0.00  0.00    +0.133 C 
ATOM     19  C   UNL     1      30.643 -24.004 -12.856  0.00  0.00    +0.037 C 
BRANCH  18  20
ATOM     20  O   UNL     1      30.371 -25.865 -14.358  0.00  0.00    -0.380 OA
ATOM     21  H   UNL     1      29.983 -25.519 -15.177  0.00  0.00    +0.211 HD
ENDBRANCH  18  20
ENDBRANCH   6  18
BRANCH  14  22
ATOM     22  O   UNL     1      35.940 -20.086 -21.266  0.00  0.00    -0.467 OA
BRANCH  22  23
ATOM     23  C   UNL     1      36.010 -18.663 -21.185  0.00  0.00    +0.232 C 
BRANCH  23  24
ATOM     24  C   UNL     1      35.470 -18.075 -22.456  0.00  0.00    +0.021 C 
ATOM     25  C   UNL     1      35.265 -18.892 -23.561  0.00  0.00    +0.002 C 
ATOM     26  C   UNL     1      35.181 -16.715 -22.516  0.00  0.00    +0.002 C 
ATOM     27  C   UNL     1      34.763 -18.344 -24.742  0.00  0.00    +0.037 C 
ATOM     28  C   UNL     1      34.679 -16.167 -23.696  0.00  0.00    +0.037 C 
ATOM     29  C   UNL     1      34.471 -16.982 -24.809  0.00  0.00    +0.139 C 
BRANCH  29  30
ATOM     30  O   UNL     1      33.981 -16.448 -25.961  0.00  0.00    -0.471 OA
ATOM     31  C   UNL     1      33.373 -15.160 -25.874  0.00  0.00    +0.252 C 
ENDBRANCH  29  30
ENDBRANCH  23  24
ENDBRANCH  22  23
ENDBRANCH  14  22
TORSDOF 7
ENDMDL
MODEL 4
REMARK VINA RESULT:     -11.1      5.186     11.848
REMARK  Name = 11998575
REMARK  7 active torsions:
REMARK  status: ('A' for Active; 'I' for Inactive)
REMARK    1  A    between atoms: C_6  and  C_18
REMARK    2  A    between atoms: C_14  and  O_22
REMARK    3  A    between atoms: C_15  and  O_16
REMARK    4  A    between atoms: C_18  and  O_20
REMARK    5  A    between atoms: O_22  and  C_23
REMARK    6  A    between atoms: C_23  and  C_24
REMARK    7  A    between atoms: C_29  and  O_30
REMARK                            x       y       z     vdW  Elec       q    Type
REMARK                         _______ _______ _______ _____ _____    ______ ____
ROOT
ATOM      1  O   UNL     1      31.959 -12.787 -20.244  0.00  0.00    -0.421 OA
ATOM      2  O   UNL     1      31.123 -10.949 -19.185  0.00  0.00    -0.244 OA
ATOM      3  C   UNL     1      32.429 -11.238 -22.563  0.00  0.00    +0.009 A 
ATOM      4  C   UNL     1      32.771 -12.666 -22.544  0.00  0.00    +0.038 A 
ATOM      5  C   UNL     1      31.866 -10.648 -21.419  0.00  0.00    +0.076 A 
ATOM      6  C   UNL     1      31.742  -8.492 -22.517  0.00  0.00    +0.004 C 
ATOM      7  C   UNL     1      32.525 -13.400 -21.382  0.00  0.00    +0.152 A 
ATOM      8  C   UNL     1      31.526  -9.286 -21.396  0.00  0.00    +0.004 C 
ATOM      9  C   UNL     1      32.636 -10.409 -23.683  0.00  0.00    +0.000 C 
ATOM     10  C   UNL     1      33.335 -13.368 -23.622  0.00  0.00    +0.043 C 
ATOM     11  C   UNL     1      32.296  -9.052 -23.660  0.00  0.00    -0.002 C 
ATOM     12  C   UNL     1      31.612 -11.443 -20.193  0.00  0.00    +0.346 A 
ATOM     13  C   UNL     1      32.814 -14.762 -21.266  0.00  0.00    +0.078 C 
ATOM     14  C   UNL     1      33.372 -15.430 -22.350  0.00  0.00    +0.176 C 
ATOM     15  C   UNL     1      33.632 -14.734 -23.527  0.00  0.00    +0.173 C 
ENDROOT
BRANCH  15  16
ATOM     16  O   UNL     1      34.179 -15.374 -24.599  0.00  0.00    -0.468 OA
ATOM     17  C   UNL     1      33.409 -15.399 -25.799  0.00  0.00    +0.253 C 
ENDBRANCH  15  16
BRANCH   6  18
ATOM     18  C   UNL     1      31.379  -7.046 -22.493  0.00  0.00    +0.133 C 
ATOM     19  C   UNL     1      31.860  -6.335 -21.223  0.00  0.00    +0.037 C 
BRANCH  18  20
ATOM     20  O   UNL     1      31.943  -6.380 -23.628  0.00  0.00    -0.380 OA
ATOM     21  H   UNL     1      31.230  -6.016 -24.176  0.00  0.00    +0.211 HD
ENDBRANCH  18  20
ENDBRANCH   6  18
BRANCH  14  22
ATOM     22  O   UNL     1      33.656 -16.757 -22.249  0.00  0.00    -0.467 OA
BRANCH  22  23
ATOM     23  C   UNL     1      35.010 -17.111 -21.966  0.00  0.00    +0.232 C 
BRANCH  23  24
ATOM     24  C   UNL     1      35.033 -18.449 -21.285  0.00  0.00    +0.021 C 
ATOM     25  C   UNL     1      36.250 -19.021 -20.935  0.00  0.00    +0.002 C 
ATOM     26  C   UNL     1      33.836 -19.104 -21.013  0.00  0.00    +0.002 C 
ATOM     27  C   UNL     1      36.272 -20.265 -20.302  0.00  0.00    +0.037 C 
ATOM     28  C   UNL     1      33.858 -20.347 -20.381  0.00  0.00    +0.037 C 
ATOM     29  C   UNL     1      35.076 -20.927 -20.026  0.00  0.00    +0.139 C 
BRANCH  29  30
ATOM     30  O   UNL     1      35.097 -22.140 -19.408  0.00  0.00    -0.471 OA
ATOM     31  C   UNL     1      33.865 -22.616 -18.869  0.00  0.00    +0.252 C 
ENDBRANCH  29  30
ENDBRANCH  23  24
ENDBRANCH  22  23
ENDBRANCH  14  22
TORSDOF 7
ENDMDL
MODEL 5
REMARK VINA RESULT:     -10.8      4.527      9.076
REMARK  Name = 11998575
REMARK  7 active torsions:
REMARK  status: ('A' for Active; 'I' for Inactive)
REMARK    1  A    between atoms: C_6  and  C_18
REMARK    2  A    between atoms: C_14  and  O_22
REMARK    3  A    between atoms: C_15  and  O_16
REMARK    4  A    between atoms: C_18  and  O_20
REMARK    5  A    between atoms: O_22  and  C_23
REMARK    6  A    between atoms: C_23  and  C_24
REMARK    7  A    between atoms: C_29  and  O_30
REMARK                            x       y       z     vdW  Elec       q    Type
REMARK                         _______ _______ _______ _____ _____    ______ ____
ROOT
ATOM      1  O   UNL     1      34.459 -14.534 -21.509  0.00  0.00    -0.421 OA
ATOM      2  O   UNL     1      34.899 -15.715 -19.609  0.00  0.00    -0.244 OA
ATOM      3  C   UNL     1      34.519 -16.928 -23.014  0.00  0.00    +0.009 A 
ATOM      4  C   UNL     1      34.260 -15.643 -23.676  0.00  0.00    +0.038 A 
ATOM      5  C   UNL     1      34.738 -16.956 -21.626  0.00  0.00    +0.076 A 
ATOM      6  C   UNL     1      35.027 -19.362 -21.660  0.00  0.00    +0.004 C 
ATOM      7  C   UNL     1      34.237 -14.481 -22.902  0.00  0.00    +0.152 A 
ATOM      8  C   UNL     1      34.990 -18.164 -20.955  0.00  0.00    +0.004 C 
ATOM      9  C   UNL     1      34.564 -18.157 -23.701  0.00  0.00    +0.000 C 
ATOM     10  C   UNL     1      34.028 -15.485 -25.052  0.00  0.00    +0.043 C 
ATOM     11  C   UNL     1      34.815 -19.359 -23.032  0.00  0.00    -0.002 C 
ATOM     12  C   UNL     1      34.711 -15.712 -20.819  0.00  0.00    +0.346 A 
ATOM     13  C   UNL     1      33.999 -13.213 -23.439  0.00  0.00    +0.078 C 
ATOM     14  C   UNL     1      33.774 -13.088 -24.804  0.00  0.00    +0.176 C 
ATOM     15  C   UNL     1      33.788 -14.223 -25.611  0.00  0.00    +0.173 C 
ENDROOT
BRANCH  15  16
ATOM     16  O   UNL     1      33.569 -14.117 -26.952  0.00  0.00    -0.468 OA
ATOM     17  C   UNL     1      32.237 -13.828 -27.369  0.00  0.00    +0.253 C 
ENDBRANCH  15  16
BRANCH   6  18
ATOM     18  C   UNL     1      35.296 -20.644 -20.947  0.00  0.00    +0.133 C 
ATOM     19  C   UNL     1      36.569 -20.593 -20.096  0.00  0.00    +0.037 C 
BRANCH  18  20
ATOM     20  O   UNL     1      34.192 -20.971 -20.094  0.00  0.00    -0.380 OA
ATOM     21  H   UNL     1      34.389 -21.789 -19.612  0.00  0.00    +0.211 HD
ENDBRANCH  18  20
ENDBRANCH   6  18
BRANCH  14  22
ATOM     22  O   UNL     1      33.543 -11.858 -25.339  0.00  0.00    -0.467 OA
BRANCH  22  23
ATOM     23  C   UNL     1      34.575 -10.883 -25.194  0.00  0.00    +0.232 C 
BRANCH  23  24
ATOM     24  C   UNL     1      34.084  -9.779 -24.303  0.00  0.00    +0.021 C 
ATOM     25  C   UNL     1      32.819  -9.864 -23.735  0.00  0.00    +0.002 C 
ATOM     26  C   UNL     1      34.900  -8.679 -24.057  0.00  0.00    +0.002 C 
ATOM     27  C   UNL     1      32.363  -8.838 -22.907  0.00  0.00    +0.037 C 
ATOM     28  C   UNL     1      34.444  -7.653 -23.230  0.00  0.00    +0.037 C 
ATOM     29  C   UNL     1      33.175  -7.732 -22.656  0.00  0.00    +0.139 C 
BRANCH  29  30
ATOM     30  O   UNL     1      32.730  -6.731 -21.848  0.00  0.00    -0.471 OA
ATOM     31  C   UNL     1      32.321  -7.092 -20.530  0.00  0.00    +0.252 C 
ENDBRANCH  29  30
ENDBRANCH  23  24
ENDBRANCH  22  23
ENDBRANCH  14  22
TORSDOF 7
ENDMDL
MODEL 6
REMARK VINA RESULT:     -10.5      6.373     11.006
REMARK  Name = 11998575
REMARK  7 active torsions:
REMARK  status: ('A' for Active; 'I' for Inactive)
REMARK    1  A    between atoms: C_6  and  C_18
REMARK    2  A    between atoms: C_14  and  O_22
REMARK    3  A    between atoms: C_15  and  O_16
REMARK    4  A    between atoms: C_18  and  O_20
REMARK    5  A    between atoms: O_22  and  C_23
REMARK    6  A    between atoms: C_23  and  C_24
REMARK    7  A    between atoms: C_29  and  O_30
REMARK                            x       y       z     vdW  Elec       q    Type
REMARK                         _______ _______ _______ _____ _____    ______ ____
ROOT
ATOM      1  O   UNL     1      32.468 -13.481 -21.110  0.00  0.00    -0.421 OA
ATOM      2  O   UNL     1      32.334 -15.271 -19.704  0.00  0.00    -0.244 OA
ATOM      3  C   UNL     1      34.013 -15.013 -22.917  0.00  0.00    +0.009 A 
ATOM      4  C   UNL     1      33.683 -13.616 -23.225  0.00  0.00    +0.038 A 
ATOM      5  C   UNL     1      33.554 -15.581 -21.716  0.00  0.00    +0.076 A 
ATOM      6  C   UNL     1      34.604 -17.700 -22.247  0.00  0.00    +0.004 C 
ATOM      7  C   UNL     1      32.918 -12.889 -22.310  0.00  0.00    +0.152 A 
ATOM      8  C   UNL     1      33.848 -16.914 -21.385  0.00  0.00    +0.004 C 
ATOM      9  C   UNL     1      34.777 -15.833 -23.770  0.00  0.00    +0.000 C 
ATOM     10  C   UNL     1      34.082 -12.937 -24.388  0.00  0.00    +0.043 C 
ATOM     11  C   UNL     1      35.069 -17.160 -23.439  0.00  0.00    -0.002 C 
ATOM     12  C   UNL     1      32.744 -14.795 -20.755  0.00  0.00    +0.346 A 
ATOM     13  C   UNL     1      32.554 -11.555 -22.512  0.00  0.00    +0.078 C 
ATOM     14  C   UNL     1      32.964 -10.910 -23.672  0.00  0.00    +0.176 C 
ATOM     15  C   UNL     1      33.727 -11.599 -24.609  0.00  0.00    +0.173 C 
ENDROOT
BRANCH  15  16
ATOM     16  O   UNL     1      34.138 -10.981 -25.752  0.00  0.00    -0.468 OA
ATOM     17  C   UNL     1      35.438 -10.396 -25.740  0.00  0.00    +0.253 C 
ENDBRANCH  15  16
BRANCH   6  18
ATOM     18  C   UNL     1      34.917 -19.114 -21.894  0.00  0.00    +0.133 C 
ATOM     19  C   UNL     1      36.095 -19.236 -20.922  0.00  0.00    +0.037 C 
BRANCH  18  20
ATOM     20  O   UNL     1      33.771 -19.736 -21.300  0.00  0.00    -0.380 OA
ATOM     21  H   UNL     1      33.139 -19.977 -21.995  0.00  0.00    +0.211 HD
ENDBRANCH  18  20
ENDBRANCH   6  18
BRANCH  14  22
ATOM     22  O   UNL     1      32.616  -9.610 -23.878  0.00  0.00    -0.467 OA
BRANCH  22  23
ATOM     23  C   UNL     1      33.404  -8.616 -23.226  0.00  0.00    +0.232 C 
BRANCH  23  24
ATOM     24  C   UNL     1      32.594  -7.359 -23.092  0.00  0.00    +0.021 C 
ATOM     25  C   UNL     1      32.143  -6.962 -21.839  0.00  0.00    +0.002 C 
ATOM     26  C   UNL     1      32.301  -6.605 -24.224  0.00  0.00    +0.002 C 
ATOM     27  C   UNL     1      31.389  -5.794 -21.714  0.00  0.00    +0.037 C 
ATOM     28  C   UNL     1      31.547  -5.438 -24.099  0.00  0.00    +0.037 C 
ATOM     29  C   UNL     1      31.091  -5.033 -22.845  0.00  0.00    +0.139 C 
BRANCH  29  30
ATOM     30  O   UNL     1      30.356  -3.894 -22.723  0.00  0.00    -0.471 OA
ATOM     31  C   UNL     1      30.985  -2.671 -23.103  0.00  0.00    +0.252 C 
ENDBRANCH  29  30
ENDBRANCH  23  24
ENDBRANCH  22  23
ENDBRANCH  14  22
TORSDOF 7
ENDMDL
MODEL 7
REMARK VINA RESULT:     -10.5      1.816      3.024
REMARK  Name = 11998575
REMARK  7 active torsions:
REMARK  status: ('A' for Active; 'I' for Inactive)
REMARK    1  A    between atoms: C_6  and  C_18
REMARK    2  A    between atoms: C_14  and  O_22
REMARK    3  A    between atoms: C_15  and  O_16
REMARK    4  A    between atoms: C_18  and  O_20
REMARK    5  A    between atoms: O_22  and  C_23
REMARK    6  A    between atoms: C_23  and  C_24
REMARK    7  A    between atoms: C_29  and  O_30
REMARK                            x       y       z     vdW  Elec       q    Type
REMARK                         _______ _______ _______ _____ _____    ______ ____
ROOT
ATOM      1  O   UNL     1      33.194 -23.196 -16.636  0.00  0.00    -0.421 OA
ATOM      2  O   UNL     1      32.547 -24.176 -14.681  0.00  0.00    -0.244 OA
ATOM      3  C   UNL     1      35.870 -23.137 -15.723  0.00  0.00    +0.009 A 
ATOM      4  C   UNL     1      35.528 -22.607 -17.049  0.00  0.00    +0.038 A 
ATOM      5  C   UNL     1      34.855 -23.674 -14.912  0.00  0.00    +0.076 A 
ATOM      6  C   UNL     1      36.444 -24.180 -13.154  0.00  0.00    +0.004 C 
ATOM      7  C   UNL     1      34.196 -22.652 -17.467  0.00  0.00    +0.152 A 
ATOM      8  C   UNL     1      35.141 -24.191 -13.638  0.00  0.00    +0.004 C 
ATOM      9  C   UNL     1      37.180 -23.140 -15.206  0.00  0.00    +0.000 C 
ATOM     10  C   UNL     1      36.449 -22.047 -17.948  0.00  0.00    +0.043 C 
ATOM     11  C   UNL     1      37.463 -23.655 -13.937  0.00  0.00    -0.002 C 
ATOM     12  C   UNL     1      33.446 -23.713 -15.372  0.00  0.00    +0.346 A 
ATOM     13  C   UNL     1      33.771 -22.172 -18.709  0.00  0.00    +0.078 C 
ATOM     14  C   UNL     1      34.706 -21.623 -19.577  0.00  0.00    +0.176 C 
ATOM     15  C   UNL     1      36.044 -21.559 -19.198  0.00  0.00    +0.173 C 
ENDROOT
BRANCH  15  16
ATOM     16  O   UNL     1      36.973 -21.023 -20.038  0.00  0.00    -0.468 OA
ATOM     17  C   UNL     1      36.971 -19.605 -20.184  0.00  0.00    +0.253 C 
ENDBRANCH  15  16
BRANCH   6  18
ATOM     18  C   UNL     1      36.747 -24.728 -11.801  0.00  0.00    +0.133 C 
ATOM     19  C   UNL     1      35.695 -24.340 -10.756  0.00  0.00    +0.037 C 
BRANCH  18  20
ATOM     20  O   UNL     1      36.825 -26.158 -11.857  0.00  0.00    -0.380 OA
ATOM     21  H   UNL     1      35.939 -26.524 -12.002  0.00  0.00    +0.211 HD
ENDBRANCH  18  20
ENDBRANCH   6  18
BRANCH  14  22
ATOM     22  O   UNL     1      34.303 -21.151 -20.789  0.00  0.00    -0.467 OA
BRANCH  22  23
ATOM     23  C   UNL     1      33.290 -20.145 -20.790  0.00  0.00    +0.232 C 
BRANCH  23  24
ATOM     24  C   UNL     1      33.813 -18.926 -21.492  0.00  0.00    +0.021 C 
ATOM     25  C   UNL     1      34.442 -19.057 -22.723  0.00  0.00    +0.002 C 
ATOM     26  C   UNL     1      33.663 -17.675 -20.901  0.00  0.00    +0.002 C 
ATOM     27  C   UNL     1      34.928 -17.922 -23.376  0.00  0.00    +0.037 C 
ATOM     28  C   UNL     1      34.149 -16.541 -21.552  0.00  0.00    +0.037 C 
ATOM     29  C   UNL     1      34.781 -16.665 -22.789  0.00  0.00    +0.139 C 
BRANCH  29  30
ATOM     30  O   UNL     1      35.255 -15.559 -23.425  0.00  0.00    -0.471 OA
ATOM     31  C   UNL     1      34.318 -14.520 -23.707  0.00  0.00    +0.252 C 
ENDBRANCH  29  30
ENDBRANCH  23  24
ENDBRANCH  22  23
ENDBRANCH  14  22
TORSDOF 7
ENDMDL
MODEL 8
REMARK VINA RESULT:     -10.5      5.624     12.465
REMARK  Name = 11998575
REMARK  7 active torsions:
REMARK  status: ('A' for Active; 'I' for Inactive)
REMARK    1  A    between atoms: C_6  and  C_18
REMARK    2  A    between atoms: C_14  and  O_22
REMARK    3  A    between atoms: C_15  and  O_16
REMARK    4  A    between atoms: C_18  and  O_20
REMARK    5  A    between atoms: O_22  and  C_23
REMARK    6  A    between atoms: C_23  and  C_24
REMARK    7  A    between atoms: C_29  and  O_30
REMARK                            x       y       z     vdW  Elec       q    Type
REMARK                         _______ _______ _______ _____ _____    ______ ____
ROOT
ATOM      1  O   UNL     1      31.838 -12.111 -21.317  0.00  0.00    -0.421 OA
ATOM      2  O   UNL     1      31.092 -10.610 -19.772  0.00  0.00    -0.244 OA
ATOM      3  C   UNL     1      32.641  -9.984 -22.999  0.00  0.00    +0.009 A 
ATOM      4  C   UNL     1      32.845 -11.377 -23.418  0.00  0.00    +0.038 A 
ATOM      5  C   UNL     1      32.043  -9.718 -21.755  0.00  0.00    +0.076 A 
ATOM      6  C   UNL     1      32.213  -7.328 -22.116  0.00  0.00    +0.004 C 
ATOM      7  C   UNL     1      32.436 -12.402 -22.562  0.00  0.00    +0.152 A 
ATOM      8  C   UNL     1      31.832  -8.401 -21.318  0.00  0.00    +0.004 C 
ATOM      9  C   UNL     1      33.017  -8.878 -23.785  0.00  0.00    +0.000 C 
ATOM     10  C   UNL     1      33.429 -11.769 -24.633  0.00  0.00    +0.043 C 
ATOM     11  C   UNL     1      32.805  -7.566 -23.349  0.00  0.00    -0.002 C 
ATOM     12  C   UNL     1      31.615 -10.819 -20.859  0.00  0.00    +0.346 A 
ATOM     13  C   UNL     1      32.585 -13.757 -22.871  0.00  0.00    +0.078 C 
ATOM     14  C   UNL     1      33.166 -14.114 -24.082  0.00  0.00    +0.176 C 
ATOM     15  C   UNL     1      33.587 -13.122 -24.962  0.00  0.00    +0.173 C 
ENDROOT
BRANCH  15  16
ATOM     16  O   UNL     1      34.158 -13.457 -26.154  0.00  0.00    -0.468 OA
ATOM     17  C   UNL     1      33.345 -13.331 -27.318  0.00  0.00    +0.253 C 
ENDBRANCH  15  16
BRANCH   6  18
ATOM     18  C   UNL     1      31.987  -5.930 -21.652  0.00  0.00    +0.133 C 
ATOM     19  C   UNL     1      30.570  -5.428 -21.950  0.00  0.00    +0.037 C 
BRANCH  18  20
ATOM     20  O   UNL     1      32.214  -5.839 -20.240  0.00  0.00    -0.380 OA
ATOM     21  H   UNL     1      32.270  -4.905 -19.982  0.00  0.00    +0.211 HD
ENDBRANCH  18  20
ENDBRANCH   6  18
BRANCH  14  22
ATOM     22  O   UNL     1      33.315 -15.431 -24.394  0.00  0.00    -0.467 OA
BRANCH  22  23
ATOM     23  C   UNL     1      34.643 -15.954 -24.384  0.00  0.00    +0.232 C 
BRANCH  23  24
ATOM     24  C   UNL     1      34.763 -16.963 -23.279  0.00  0.00    +0.021 C 
ATOM     25  C   UNL     1      34.711 -18.319 -23.576  0.00  0.00    +0.002 C 
ATOM     26  C   UNL     1      34.923 -16.530 -21.966  0.00  0.00    +0.002 C 
ATOM     27  C   UNL     1      34.822 -19.257 -22.548  0.00  0.00    +0.037 C 
ATOM     28  C   UNL     1      35.034 -17.467 -20.939  0.00  0.00    +0.037 C 
ATOM     29  C   UNL     1      34.983 -18.830 -21.230  0.00  0.00    +0.139 C 
BRANCH  29  30
ATOM     30  O   UNL     1      35.092 -19.745 -20.228  0.00  0.00    -0.471 OA
ATOM     31  C   UNL     1      36.033 -20.801 -20.412  0.00  0.00    +0.252 C 
ENDBRANCH  29  30
ENDBRANCH  23  24
ENDBRANCH  22  23
ENDBRANCH  14  22
TORSDOF 7
ENDMDL
MODEL 9
REMARK VINA RESULT:     -10.4      4.984     12.202
REMARK  Name = 11998575
REMARK  7 active torsions:
REMARK  status: ('A' for Active; 'I' for Inactive)
REMARK    1  A    between atoms: C_6  and  C_18
REMARK    2  A    between atoms: C_14  and  O_22
REMARK    3  A    between atoms: C_15  and  O_16
REMARK    4  A    between atoms: C_18  and  O_20
REMARK    5  A    between atoms: O_22  and  C_23
REMARK    6  A    between atoms: C_23  and  C_24
REMARK    7  A    between atoms: C_29  and  O_30
REMARK                            x       y       z     vdW  Elec       q    Type
REMARK                         _______ _______ _______ _____ _____    ______ ____
ROOT
ATOM      1  O   UNL     1      34.537 -12.018 -24.747  0.00  0.00    -0.421 OA
ATOM      2  O   UNL     1      34.935  -9.947 -25.614  0.00  0.00    -0.244 OA
ATOM      3  C   UNL     1      32.687 -10.901 -22.923  0.00  0.00    +0.009 A 
ATOM      4  C   UNL     1      32.951 -12.346 -22.919  0.00  0.00    +0.038 A 
ATOM      5  C   UNL     1      33.362 -10.079 -23.841  0.00  0.00    +0.076 A 
ATOM      6  C   UNL     1      32.236  -8.107 -22.997  0.00  0.00    +0.004 C 
ATOM      7  C   UNL     1      33.870 -12.862 -23.834  0.00  0.00    +0.152 A 
ATOM      8  C   UNL     1      33.137  -8.693 -23.878  0.00  0.00    +0.004 C 
ATOM      9  C   UNL     1      31.779 -10.279 -22.043  0.00  0.00    +0.000 C 
ATOM     10  C   UNL     1      32.341 -13.268 -22.052  0.00  0.00    +0.043 C 
ATOM     11  C   UNL     1      31.557  -8.899 -22.080  0.00  0.00    -0.002 C 
ATOM     12  C   UNL     1      34.336 -10.645 -24.805  0.00  0.00    +0.346 A 
ATOM     13  C   UNL     1      34.189 -14.221 -23.907  0.00  0.00    +0.078 C 
ATOM     14  C   UNL     1      33.571 -15.109 -23.036  0.00  0.00    +0.176 C 
ATOM     15  C   UNL     1      32.648 -14.634 -22.109  0.00  0.00    +0.173 C 
ENDROOT
BRANCH  15  16
ATOM     16  O   UNL     1      32.033 -15.492 -21.247  0.00  0.00    -0.468 OA
ATOM     17  C   UNL     1      32.380 -15.384 -19.869  0.00  0.00    +0.253 C 
ENDBRANCH  15  16
BRANCH   6  18
ATOM     18  C   UNL     1      31.999  -6.635 -23.035  0.00  0.00    +0.133 C 
ATOM     19  C   UNL     1      31.721  -6.116 -24.449  0.00  0.00    +0.037 C 
BRANCH  18  20
ATOM     20  O   UNL     1      30.885  -6.296 -22.200  0.00  0.00    -0.380 OA
ATOM     21  H   UNL     1      31.133  -5.565 -21.613  0.00  0.00    +0.211 HD
ENDBRANCH  18  20
ENDBRANCH   6  18
BRANCH  14  22
ATOM     22  O   UNL     1      33.875 -16.435 -23.098  0.00  0.00    -0.467 OA
BRANCH  22  23
ATOM     23  C   UNL     1      35.193 -16.817 -22.706  0.00  0.00    +0.232 C 
BRANCH  23  24
ATOM     24  C   UNL     1      35.115 -18.067 -21.879  0.00  0.00    +0.021 C 
ATOM     25  C   UNL     1      33.876 -18.630 -21.598  0.00  0.00    +0.002 C 
ATOM     26  C   UNL     1      36.284 -18.649 -21.398  0.00  0.00    +0.002 C 
ATOM     27  C   UNL     1      33.803 -19.792 -20.829  0.00  0.00    +0.037 C 
ATOM     28  C   UNL     1      36.211 -19.810 -20.629  0.00  0.00    +0.037 C 
ATOM     29  C   UNL     1      34.971 -20.381 -20.344  0.00  0.00    +0.139 C 
BRANCH  29  30
ATOM     30  O   UNL     1      34.900 -21.514 -19.594  0.00  0.00    -0.471 OA
ATOM     31  C   UNL     1      33.602 -21.941 -19.183  0.00  0.00    +0.252 C 
ENDBRANCH  29  30
ENDBRANCH  23  24
ENDBRANCH  22  23
ENDBRANCH  14  22
TORSDOF 7
ENDMDL
