MODEL 1
REMARK VINA RESULT:      -5.9      0.000      0.000
REMARK  Name = 448580
REMARK  6 active torsions:
REMARK  status: ('A' for Active; 'I' for Inactive)
REMARK    1  A    between atoms: CA_1  and  N_3
REMARK    2  A    between atoms: CA_1  and  C_8
REMARK    3  A    between atoms: CA_1  and  CB_11
REMARK    4  A    between atoms: C_8  and  O_9
REMARK    5  A    between atoms: CB_11  and  CG_12
REMARK    6  A    between atoms: CG_12  and  SD_13
REMARK                            x       y       z     vdW  Elec       q    Type
REMARK                         _______ _______ _______ _____ _____    ______ ____
ROOT
ATOM      1  CA  MET A   1      38.656 -24.785 -14.835  0.00  0.00    +0.172 C 
ENDROOT
BRANCH   1   3
ATOM      2  O   UNK A   0      36.468 -22.881 -14.688  0.00  0.00    -0.275 OA
ATOM      3  N   MET A   1      38.285 -23.802 -15.820  0.00  0.00    -0.297 N 
ATOM      4  C   UNK A   0      37.217 -22.930 -15.661  0.00  0.00    +0.223 C 
ATOM      5  C   UNK A   0      37.066 -21.990 -16.828  0.00  0.00    +0.095 C 
ATOM      6  H   MET A   1      38.814 -23.746 -16.648  0.00  0.00    +0.150 HD
ENDBRANCH   1   3
BRANCH   1   8
ATOM      7  OXT MET A   1      40.978 -24.934 -14.165  0.00  0.00    -0.248 OA
ATOM      8  C   MET A   1      40.105 -25.226 -14.977  0.00  0.00    +0.332 C 
BRANCH   8   9
ATOM      9  O   MET A   1      40.372 -25.925 -16.106  0.00  0.00    -0.479 OA
ATOM     10  H   MET A   1      39.921 -26.728 -16.276  0.00  0.00    +0.295 HD
ENDBRANCH   8   9
ENDBRANCH   1   8
BRANCH   1  11
ATOM     11  CB  MET A   1      37.687 -25.975 -14.830  0.00  0.00    +0.043 C 
BRANCH  11  12
ATOM     12  CG  MET A   1      37.248 -26.402 -13.428  0.00  0.00    +0.060 C 
BRANCH  12  13
ATOM     13  SD  MET A   1      37.592 -25.083 -12.227  0.00  0.00    -0.139 S 
ATOM     14  CE  MET A   1      35.892 -24.747 -11.714  0.00  0.00    +0.069 C 
ENDBRANCH  12  13
ENDBRANCH  11  12
ENDBRANCH   1  11
TORSDOF 6
ENDMDL
MODEL 2
REMARK VINA RESULT:      -5.5      8.942     10.669
REMARK  Name = 448580
REMARK  6 active torsions:
REMARK  status: ('A' for Active; 'I' for Inactive)
REMARK    1  A    between atoms: CA_1  and  N_3
REMARK    2  A    between atoms: CA_1  and  C_8
REMARK    3  A    between atoms: CA_1  and  CB_11
REMARK    4  A    between atoms: C_8  and  O_9
REMARK    5  A    between atoms: CB_11  and  CG_12
REMARK    6  A    between atoms: CG_12  and  SD_13
REMARK                            x       y       z     vdW  Elec       q    Type
REMARK                         _______ _______ _______ _____ _____    ______ ____
ROOT
ATOM      1  CA  MET A   1      35.015 -17.560 -21.736  0.00  0.00    +0.172 C 
ENDROOT
BRANCH   1   3
ATOM      2  O   UNK A   0      35.016 -15.036 -20.300  0.00  0.00    -0.275 OA
ATOM      3  N   MET A   1      33.871 -16.792 -21.316  0.00  0.00    -0.297 N 
ATOM      4  C   UNK A   0      33.970 -15.590 -20.631  0.00  0.00    +0.223 C 
ATOM      5  C   UNK A   0      32.623 -14.984 -20.337  0.00  0.00    +0.095 C 
ATOM      6  H   MET A   1      32.974 -17.138 -21.526  0.00  0.00    +0.150 HD
ENDBRANCH   1   3
BRANCH   1   8
ATOM      7  OXT MET A   1      35.201 -18.337 -24.022  0.00  0.00    -0.248 OA
ATOM      8  C   MET A   1      35.298 -17.410 -23.223  0.00  0.00    +0.332 C 
BRANCH   8   9
ATOM      9  O   MET A   1      35.722 -16.178 -23.592  0.00  0.00    -0.479 OA
ATOM     10  H   MET A   1      35.110 -15.471 -23.652  0.00  0.00    +0.295 HD
ENDBRANCH   8   9
ENDBRANCH   1   8
BRANCH   1  11
ATOM     11  CB  MET A   1      34.894 -19.031 -21.315  0.00  0.00    +0.043 C 
BRANCH  11  12
ATOM     12  CG  MET A   1      33.461 -19.459 -20.987  0.00  0.00    +0.060 C 
BRANCH  12  13
ATOM     13  SD  MET A   1      33.469 -20.930 -19.921  0.00  0.00    -0.139 S 
ATOM     14  CE  MET A   1      35.259 -21.149 -19.793  0.00  0.00    +0.069 C 
ENDBRANCH  12  13
ENDBRANCH  11  12
ENDBRANCH   1  11
TORSDOF 6
ENDMDL
MODEL 3
REMARK VINA RESULT:      -5.5      2.516      2.995
REMARK  Name = 448580
REMARK  6 active torsions:
REMARK  status: ('A' for Active; 'I' for Inactive)
REMARK    1  A    between atoms: CA_1  and  N_3
REMARK    2  A    between atoms: CA_1  and  C_8
REMARK    3  A    between atoms: CA_1  and  CB_11
REMARK    4  A    between atoms: C_8  and  O_9
REMARK    5  A    between atoms: CB_11  and  CG_12
REMARK    6  A    between atoms: CG_12  and  SD_13
REMARK                            x       y       z     vdW  Elec       q    Type
REMARK                         _______ _______ _______ _____ _____    ______ ____
ROOT
ATOM      1  CA  MET A   1      36.773 -25.503 -14.398  0.00  0.00    +0.172 C 
ENDROOT
BRANCH   1   3
ATOM      2  O   UNK A   0      35.504 -22.929 -14.841  0.00  0.00    -0.275 OA
ATOM      3  N   MET A   1      35.366 -25.235 -14.545  0.00  0.00    -0.297 N 
ATOM      4  C   UNK A   0      34.849 -23.965 -14.755  0.00  0.00    +0.223 C 
ATOM      5  C   UNK A   0      33.350 -23.972 -14.899  0.00  0.00    +0.095 C 
ATOM      6  H   MET A   1      34.738 -25.992 -14.494  0.00  0.00    +0.150 HD
ENDBRANCH   1   3
BRANCH   1   8
ATOM      7  OXT MET A   1      36.566 -27.191 -16.121  0.00  0.00    -0.248 OA
ATOM      8  C   MET A   1      37.216 -26.722 -15.193  0.00  0.00    +0.332 C 
BRANCH   8   9
ATOM      9  O   MET A   1      38.367 -27.287 -14.758  0.00  0.00    -0.479 OA
ATOM     10  H   MET A   1      38.354 -28.144 -14.379  0.00  0.00    +0.295 HD
ENDBRANCH   8   9
ENDBRANCH   1   8
BRANCH   1  11
ATOM     11  CB  MET A   1      37.180 -25.595 -12.922  0.00  0.00    +0.043 C 
BRANCH  11  12
ATOM     12  CG  MET A   1      38.094 -24.456 -12.464  0.00  0.00    +0.060 C 
BRANCH  12  13
ATOM     13  SD  MET A   1      37.120 -23.147 -11.664  0.00  0.00    -0.139 S 
ATOM     14  CE  MET A   1      35.759 -24.170 -11.056  0.00  0.00    +0.069 C 
ENDBRANCH  12  13
ENDBRANCH  11  12
ENDBRANCH   1  11
TORSDOF 6
ENDMDL
MODEL 4
REMARK VINA RESULT:      -5.4      2.593      4.201
REMARK  Name = 448580
REMARK  6 active torsions:
REMARK  status: ('A' for Active; 'I' for Inactive)
REMARK    1  A    between atoms: CA_1  and  N_3
REMARK    2  A    between atoms: CA_1  and  C_8
REMARK    3  A    between atoms: CA_1  and  CB_11
REMARK    4  A    between atoms: C_8  and  O_9
REMARK    5  A    between atoms: CB_11  and  CG_12
REMARK    6  A    between atoms: CG_12  and  SD_13
REMARK                            x       y       z     vdW  Elec       q    Type
REMARK                         _______ _______ _______ _____ _____    ______ ____
ROOT
ATOM      1  CA  MET A   1      37.530 -24.298 -13.142  0.00  0.00    +0.172 C 
ENDROOT
BRANCH   1   3
ATOM      2  O   UNK A   0      39.479 -24.228 -15.293  0.00  0.00    -0.275 OA
ATOM      3  N   MET A   1      38.611 -25.221 -13.373  0.00  0.00    -0.297 N 
ATOM      4  C   UNK A   0      39.497 -25.106 -14.434  0.00  0.00    +0.223 C 
ATOM      5  C   UNK A   0      40.545 -26.188 -14.425  0.00  0.00    +0.095 C 
ATOM      6  H   MET A   1      38.726 -25.971 -12.747  0.00  0.00    +0.150 HD
ENDBRANCH   1   3
BRANCH   1   8
ATOM      7  OXT MET A   1      36.879 -24.148 -10.814  0.00  0.00    -0.248 OA
ATOM      8  C   MET A   1      37.559 -23.713 -11.738  0.00  0.00    +0.332 C 
BRANCH   8   9
ATOM      9  O   MET A   1      38.361 -22.630 -11.597  0.00  0.00    -0.479 OA
ATOM     10  H   MET A   1      38.607 -22.339 -10.742  0.00  0.00    +0.295 HD
ENDBRANCH   8   9
ENDBRANCH   1   8
BRANCH   1  11
ATOM     11  CB  MET A   1      36.170 -24.923 -13.479  0.00  0.00    +0.043 C 
BRANCH  11  12
ATOM     12  CG  MET A   1      35.760 -24.748 -14.944  0.00  0.00    +0.060 C 
BRANCH  12  13
ATOM     13  SD  MET A   1      35.193 -23.048 -15.242  0.00  0.00    -0.139 S 
ATOM     14  CE  MET A   1      36.551 -22.503 -16.303  0.00  0.00    +0.069 C 
ENDBRANCH  12  13
ENDBRANCH  11  12
ENDBRANCH   1  11
TORSDOF 6
ENDMDL
MODEL 5
REMARK VINA RESULT:      -5.4      8.847     10.982
REMARK  Name = 448580
REMARK  6 active torsions:
REMARK  status: ('A' for Active; 'I' for Inactive)
REMARK    1  A    between atoms: CA_1  and  N_3
REMARK    2  A    between atoms: CA_1  and  C_8
REMARK    3  A    between atoms: CA_1  and  CB_11
REMARK    4  A    between atoms: C_8  and  O_9
REMARK    5  A    between atoms: CB_11  and  CG_12
REMARK    6  A    between atoms: CG_12  and  SD_13
REMARK                            x       y       z     vdW  Elec       q    Type
REMARK                         _______ _______ _______ _____ _____    ______ ____
ROOT
ATOM      1  CA  MET A   1      34.469 -18.301 -21.572  0.00  0.00    +0.172 C 
ENDROOT
BRANCH   1   3
ATOM      2  O   UNK A   0      32.460 -20.282 -20.886  0.00  0.00    -0.275 OA
ATOM      3  N   MET A   1      34.619 -19.430 -20.690  0.00  0.00    -0.297 N 
ATOM      4  C   UNK A   0      33.597 -20.328 -20.421  0.00  0.00    +0.223 C 
ATOM      5  C   UNK A   0      34.029 -21.428 -19.488  0.00  0.00    +0.095 C 
ATOM      6  H   MET A   1      35.491 -19.571 -20.256  0.00  0.00    +0.150 HD
ENDBRANCH   1   3
BRANCH   1   8
ATOM      7  OXT MET A   1      34.489 -19.065 -23.869  0.00  0.00    -0.248 OA
ATOM      8  C   MET A   1      35.095 -18.546 -22.936  0.00  0.00    +0.332 C 
BRANCH   8   9
ATOM      9  O   MET A   1      36.400 -18.196 -23.027  0.00  0.00    -0.479 OA
ATOM     10  H   MET A   1      36.773 -17.994 -23.862  0.00  0.00    +0.295 HD
ENDBRANCH   8   9
ENDBRANCH   1   8
BRANCH   1  11
ATOM     11  CB  MET A   1      34.980 -17.007 -20.925  0.00  0.00    +0.043 C 
BRANCH  11  12
ATOM     12  CG  MET A   1      34.411 -15.736 -21.562  0.00  0.00    +0.060 C 
BRANCH  12  13
ATOM     13  SD  MET A   1      32.734 -15.415 -20.942  0.00  0.00    -0.139 S 
ATOM     14  CE  MET A   1      32.420 -13.871 -21.828  0.00  0.00    +0.069 C 
ENDBRANCH  12  13
ENDBRANCH  11  12
ENDBRANCH   1  11
TORSDOF 6
ENDMDL
MODEL 6
REMARK VINA RESULT:      -5.4     10.853     12.476
REMARK  Name = 448580
REMARK  6 active torsions:
REMARK  status: ('A' for Active; 'I' for Inactive)
REMARK    1  A    between atoms: CA_1  and  N_3
REMARK    2  A    between atoms: CA_1  and  C_8
REMARK    3  A    between atoms: CA_1  and  CB_11
REMARK    4  A    between atoms: C_8  and  O_9
REMARK    5  A    between atoms: CB_11  and  CG_12
REMARK    6  A    between atoms: CG_12  and  SD_13
REMARK                            x       y       z     vdW  Elec       q    Type
REMARK                         _______ _______ _______ _____ _____    ______ ____
ROOT
ATOM      1  CA  MET A   1      34.875 -16.640 -23.752  0.00  0.00    +0.172 C 
ENDROOT
BRANCH   1   3
ATOM      2  O   UNK A   0      34.203 -13.818 -23.620  0.00  0.00    -0.275 OA
ATOM      3  N   MET A   1      33.888 -16.014 -22.911  0.00  0.00    -0.297 N 
ATOM      4  C   UNK A   0      33.636 -14.650 -22.917  0.00  0.00    +0.223 C 
ATOM      5  C   UNK A   0      32.537 -14.266 -21.961  0.00  0.00    +0.095 C 
ATOM      6  H   MET A   1      33.366 -16.583 -22.301  0.00  0.00    +0.150 HD
ENDBRANCH   1   3
BRANCH   1   8
ATOM      7  OXT MET A   1      34.060 -18.153 -25.457  0.00  0.00    -0.248 OA
ATOM      8  C   MET A   1      34.322 -17.002 -25.122  0.00  0.00    +0.332 C 
BRANCH   8   9
ATOM      9  O   MET A   1      34.192 -15.955 -25.971  0.00  0.00    -0.479 OA
ATOM     10  H   MET A   1      34.833 -15.812 -26.639  0.00  0.00    +0.295 HD
ENDBRANCH   8   9
ENDBRANCH   1   8
BRANCH   1  11
ATOM     11  CB  MET A   1      35.532 -17.840 -23.057  0.00  0.00    +0.043 C 
BRANCH  11  12
ATOM     12  CG  MET A   1      35.262 -17.901 -21.552  0.00  0.00    +0.060 C 
BRANCH  12  13
ATOM     13  SD  MET A   1      35.124 -19.627 -21.003  0.00  0.00    -0.139 S 
ATOM     14  CE  MET A   1      33.323 -19.722 -20.891  0.00  0.00    +0.069 C 
ENDBRANCH  12  13
ENDBRANCH  11  12
ENDBRANCH   1  11
TORSDOF 6
ENDMDL
MODEL 7
REMARK VINA RESULT:      -5.3     10.130     12.613
REMARK  Name = 448580
REMARK  6 active torsions:
REMARK  status: ('A' for Active; 'I' for Inactive)
REMARK    1  A    between atoms: CA_1  and  N_3
REMARK    2  A    between atoms: CA_1  and  C_8
REMARK    3  A    between atoms: CA_1  and  CB_11
REMARK    4  A    between atoms: C_8  and  O_9
REMARK    5  A    between atoms: CB_11  and  CG_12
REMARK    6  A    between atoms: CG_12  and  SD_13
REMARK                            x       y       z     vdW  Elec       q    Type
REMARK                         _______ _______ _______ _____ _____    ______ ____
ROOT
ATOM      1  CA  MET A   1      34.532 -16.838 -23.443  0.00  0.00    +0.172 C 
ENDROOT
BRANCH   1   3
ATOM      2  O   UNK A   0      34.207 -19.267 -21.886  0.00  0.00    -0.275 OA
ATOM      3  N   MET A   1      35.490 -17.441 -22.554  0.00  0.00    -0.297 N 
ATOM      4  C   UNK A   0      35.245 -18.610 -21.848  0.00  0.00    +0.223 C 
ATOM      5  C   UNK A   0      36.424 -19.035 -21.014  0.00  0.00    +0.095 C 
ATOM      6  H   MET A   1      36.364 -17.002 -22.441  0.00  0.00    +0.150 HD
ENDBRANCH   1   3
BRANCH   1   8
ATOM      7  OXT MET A   1      34.907 -16.712 -25.832  0.00  0.00    -0.248 OA
ATOM      8  C   MET A   1      34.620 -17.397 -24.855  0.00  0.00    +0.332 C 
BRANCH   8   9
ATOM      9  O   MET A   1      34.300 -18.709 -24.960  0.00  0.00    -0.479 OA
ATOM     10  H   MET A   1      34.417 -19.155 -25.776  0.00  0.00    +0.295 HD
ENDBRANCH   8   9
ENDBRANCH   1   8
BRANCH   1  11
ATOM     11  CB  MET A   1      34.625 -15.306 -23.420  0.00  0.00    +0.043 C 
BRANCH  11  12
ATOM     12  CG  MET A   1      34.401 -14.698 -22.034  0.00  0.00    +0.060 C 
BRANCH  12  13
ATOM     13  SD  MET A   1      32.625 -14.594 -21.668  0.00  0.00    -0.139 S 
ATOM     14  CE  MET A   1      32.275 -13.036 -22.515  0.00  0.00    +0.069 C 
ENDBRANCH  12  13
ENDBRANCH  11  12
ENDBRANCH   1  11
TORSDOF 6
ENDMDL
MODEL 8
REMARK VINA RESULT:      -5.3     11.730     14.226
REMARK  Name = 448580
REMARK  6 active torsions:
REMARK  status: ('A' for Active; 'I' for Inactive)
REMARK    1  A    between atoms: CA_1  and  N_3
REMARK    2  A    between atoms: CA_1  and  C_8
REMARK    3  A    between atoms: CA_1  and  CB_11
REMARK    4  A    between atoms: C_8  and  O_9
REMARK    5  A    between atoms: CB_11  and  CG_12
REMARK    6  A    between atoms: CG_12  and  SD_13
REMARK                            x       y       z     vdW  Elec       q    Type
REMARK                         _______ _______ _______ _____ _____    ______ ____
ROOT
ATOM      1  CA  MET A   1      33.294 -14.844 -23.660  0.00  0.00    +0.172 C 
ENDROOT
BRANCH   1   3
ATOM      2  O   UNK A   0      33.020 -15.644 -26.437  0.00  0.00    -0.275 OA
ATOM      3  N   MET A   1      33.304 -13.992 -24.820  0.00  0.00    -0.297 N 
ATOM      4  C   UNK A   0      33.165 -14.468 -26.116  0.00  0.00    +0.223 C 
ATOM      5  C   UNK A   0      33.184 -13.362 -27.138  0.00  0.00    +0.095 C 
ATOM      6  H   MET A   1      33.414 -13.023 -24.688  0.00  0.00    +0.150 HD
ENDBRANCH   1   3
BRANCH   1   8
ATOM      7  OXT MET A   1      32.444 -14.759 -21.394  0.00  0.00    -0.248 OA
ATOM      8  C   MET A   1      32.522 -14.234 -22.500  0.00  0.00    +0.332 C 
BRANCH   8   9
ATOM      9  O   MET A   1      31.875 -13.082 -22.800  0.00  0.00    -0.479 OA
ATOM     10  H   MET A   1      31.074 -13.108 -23.285  0.00  0.00    +0.295 HD
ENDBRANCH   8   9
ENDBRANCH   1   8
BRANCH   1  11
ATOM     11  CB  MET A   1      34.714 -15.262 -23.253  0.00  0.00    +0.043 C 
BRANCH  11  12
ATOM     12  CG  MET A   1      34.940 -16.776 -23.278  0.00  0.00    +0.060 C 
BRANCH  12  13
ATOM     13  SD  MET A   1      35.001 -17.434 -21.587  0.00  0.00    -0.139 S 
ATOM     14  CE  MET A   1      34.771 -19.183 -21.980  0.00  0.00    +0.069 C 
ENDBRANCH  12  13
ENDBRANCH  11  12
ENDBRANCH   1  11
TORSDOF 6
ENDMDL
MODEL 9
REMARK VINA RESULT:      -5.3      2.870      4.025
REMARK  Name = 448580
REMARK  6 active torsions:
REMARK  status: ('A' for Active; 'I' for Inactive)
REMARK    1  A    between atoms: CA_1  and  N_3
REMARK    2  A    between atoms: CA_1  and  C_8
REMARK    3  A    between atoms: CA_1  and  CB_11
REMARK    4  A    between atoms: C_8  and  O_9
REMARK    5  A    between atoms: CB_11  and  CG_12
REMARK    6  A    between atoms: CG_12  and  SD_13
REMARK                            x       y       z     vdW  Elec       q    Type
REMARK                         _______ _______ _______ _____ _____    ______ ____
ROOT
ATOM      1  CA  MET A   1      36.353 -25.700 -14.410  0.00  0.00    +0.172 C 
ENDROOT
BRANCH   1   3
ATOM      2  O   UNK A   0      36.683 -25.632 -11.526  0.00  0.00    -0.275 OA
ATOM      3  N   MET A   1      37.145 -24.775 -13.642  0.00  0.00    -0.297 N 
ATOM      4  C   UNK A   0      37.242 -24.821 -12.259  0.00  0.00    +0.223 C 
ATOM      5  C   UNK A   0      38.156 -23.755 -11.712  0.00  0.00    +0.095 C 
ATOM      6  H   MET A   1      37.643 -24.074 -14.122  0.00  0.00    +0.150 HD
ENDBRANCH   1   3
BRANCH   1   8
ATOM      7  OXT MET A   1      38.328 -27.049 -14.785  0.00  0.00    -0.248 OA
ATOM      8  C   MET A   1      37.208 -26.713 -15.156  0.00  0.00    +0.332 C 
BRANCH   8   9
ATOM      9  O   MET A   1      36.657 -27.178 -16.302  0.00  0.00    -0.479 OA
ATOM     10  H   MET A   1      35.765 -27.464 -16.310  0.00  0.00    +0.295 HD
ENDBRANCH   8   9
ENDBRANCH   1   8
BRANCH   1  11
ATOM     11  CB  MET A   1      35.376 -24.970 -15.342  0.00  0.00    +0.043 C 
BRANCH  11  12
ATOM     12  CG  MET A   1      35.305 -23.461 -15.096  0.00  0.00    +0.060 C 
BRANCH  12  13
ATOM     13  SD  MET A   1      35.745 -22.552 -16.606  0.00  0.00    -0.139 S 
ATOM     14  CE  MET A   1      37.481 -22.230 -16.219  0.00  0.00    +0.069 C 
ENDBRANCH  12  13
ENDBRANCH  11  12
ENDBRANCH   1  11
TORSDOF 6
ENDMDL
