MODEL 1
REMARK VINA RESULT:      -8.1      0.000      0.000
REMARK  Name = 14592
REMARK  5 active torsions:
REMARK  status: ('A' for Active; 'I' for Inactive)
REMARK    1  A    between atoms: C_1  and  N_2
REMARK    2  A    between atoms: C_1  and  C_8
REMARK    3  A    between atoms: C_1  and  C_11
REMARK    4  A    between atoms: C_8  and  C_9
REMARK    5  A    between atoms: C_11  and  C_12
REMARK                            x       y       z     vdW  Elec       q    Type
REMARK                         _______ _______ _______ _____ _____    ______ ____
ROOT
ATOM      1  C   UNL     1      34.946 -17.761 -22.597  0.00  0.00    -0.054 C 
ENDROOT
BRANCH   1   2
ATOM      2  N   UNL     1      35.065 -16.365 -22.204  0.00  0.00    +0.388 N 
ATOM      3  C   UNL     1      34.407 -15.462 -23.148  0.00  0.00    -0.077 C 
ATOM      4  C   UNL     1      34.432 -16.093 -20.914  0.00  0.00    -0.077 C 
ATOM      5  C   UNL     1      34.314 -14.160 -22.366  0.00  0.00    -0.025 C 
ATOM      6  C   UNL     1      34.332 -14.574 -20.898  0.00  0.00    -0.025 C 
ATOM      7  H   UNL     1      36.072 -16.203 -22.170  0.00  0.00    -0.080 HD
ENDBRANCH   1   2
BRANCH   1   8
ATOM      8  C   UNL     1      35.179 -17.932 -24.115  0.00  0.00    -0.020 C 
BRANCH   8   9
ATOM      9  C   UNL     1      34.259 -18.937 -24.815  0.00  0.00    -0.002 C 
ATOM     10  C   UNL     1      34.958 -20.274 -25.018  0.00  0.00    -0.000 C 
ENDBRANCH   8   9
ENDBRANCH   1   8
BRANCH   1  11
ATOM     11  C   UNL     1      35.880 -18.604 -21.707  0.00  0.00    +0.006 C 
BRANCH  11  12
ATOM     12  C   UNL     1      35.166 -19.674 -20.916  0.00  0.00    -0.024 C 
ATOM     13  C   UNL     1      33.781 -19.681 -20.882  0.00  0.00    -0.004 C 
ATOM     14  C   UNL     1      35.909 -20.629 -20.240  0.00  0.00    -0.004 C 
ATOM     15  C   UNL     1      33.121 -20.670 -20.151  0.00  0.00    -0.000 C 
ATOM     16  C   UNL     1      35.249 -21.617 -19.510  0.00  0.00    -0.000 C 
ATOM     17  C   UNL     1      33.855 -21.637 -19.466  0.00  0.00    -0.000 C 
ENDBRANCH  11  12
ENDBRANCH   1  11
TORSDOF 5
ENDMDL
MODEL 2
REMARK VINA RESULT:      -8.1      1.133      3.326
REMARK  Name = 14592
REMARK  5 active torsions:
REMARK  status: ('A' for Active; 'I' for Inactive)
REMARK    1  A    between atoms: C_1  and  N_2
REMARK    2  A    between atoms: C_1  and  C_8
REMARK    3  A    between atoms: C_1  and  C_11
REMARK    4  A    between atoms: C_8  and  C_9
REMARK    5  A    between atoms: C_11  and  C_12
REMARK                            x       y       z     vdW  Elec       q    Type
REMARK                         _______ _______ _______ _____ _____    ______ ____
ROOT
ATOM      1  C   UNL     1      34.964 -17.674 -21.602  0.00  0.00    -0.054 C 
ENDROOT
BRANCH   1   2
ATOM      2  N   UNL     1      35.224 -17.626 -23.032  0.00  0.00    +0.388 N 
ATOM      3  C   UNL     1      34.529 -18.686 -23.762  0.00  0.00    -0.077 C 
ATOM      4  C   UNL     1      34.763 -16.380 -23.642  0.00  0.00    -0.077 C 
ATOM      5  C   UNL     1      34.617 -18.219 -25.208  0.00  0.00    -0.025 C 
ATOM      6  C   UNL     1      34.773 -16.703 -25.129  0.00  0.00    -0.025 C 
ATOM      7  H   UNL     1      36.237 -17.726 -23.102  0.00  0.00    -0.080 HD
ENDBRANCH   1   2
BRANCH   1   8
ATOM      8  C   UNL     1      34.747 -16.256 -21.028  0.00  0.00    -0.020 C 
BRANCH   8   9
ATOM      9  C   UNL     1      33.311 -15.925 -20.610  0.00  0.00    -0.002 C 
ATOM     10  C   UNL     1      33.006 -14.448 -20.815  0.00  0.00    -0.000 C 
ENDBRANCH   8   9
ENDBRANCH   1   8
BRANCH   1  11
ATOM     11  C   UNL     1      33.800 -18.652 -21.346  0.00  0.00    +0.006 C 
BRANCH  11  12
ATOM     12  C   UNL     1      34.200 -19.887 -20.576  0.00  0.00    -0.024 C 
ATOM     13  C   UNL     1      33.218 -20.669 -19.989  0.00  0.00    -0.004 C 
ATOM     14  C   UNL     1      35.542 -20.217 -20.469  0.00  0.00    -0.004 C 
ATOM     15  C   UNL     1      33.587 -21.811 -19.277  0.00  0.00    -0.000 C 
ATOM     16  C   UNL     1      35.911 -21.358 -19.757  0.00  0.00    -0.000 C 
ATOM     17  C   UNL     1      34.933 -22.155 -19.161  0.00  0.00    -0.000 C 
ENDBRANCH  11  12
ENDBRANCH   1  11
TORSDOF 5
ENDMDL
MODEL 3
REMARK VINA RESULT:      -8.0      0.987      1.555
REMARK  Name = 14592
REMARK  5 active torsions:
REMARK  status: ('A' for Active; 'I' for Inactive)
REMARK    1  A    between atoms: C_1  and  N_2
REMARK    2  A    between atoms: C_1  and  C_8
REMARK    3  A    between atoms: C_1  and  C_11
REMARK    4  A    between atoms: C_8  and  C_9
REMARK    5  A    between atoms: C_11  and  C_12
REMARK                            x       y       z     vdW  Elec       q    Type
REMARK                         _______ _______ _______ _____ _____    ______ ____
ROOT
ATOM      1  C   UNL     1      34.463 -17.079 -22.644  0.00  0.00    -0.054 C 
ENDROOT
BRANCH   1   2
ATOM      2  N   UNL     1      34.118 -15.733 -22.211  0.00  0.00    +0.388 N 
ATOM      3  C   UNL     1      33.474 -14.955 -23.269  0.00  0.00    -0.077 C 
ATOM      4  C   UNL     1      33.164 -15.730 -21.104  0.00  0.00    -0.077 C 
ATOM      5  C   UNL     1      32.868 -13.784 -22.510  0.00  0.00    -0.025 C 
ATOM      6  C   UNL     1      32.666 -14.292 -21.086  0.00  0.00    -0.025 C 
ATOM      7  H   UNL     1      35.012 -15.325 -21.937  0.00  0.00    -0.080 HD
ENDBRANCH   1   2
BRANCH   1   8
ATOM      8  C   UNL     1      34.994 -17.077 -24.095  0.00  0.00    -0.020 C 
BRANCH   8   9
ATOM      9  C   UNL     1      34.394 -18.140 -25.020  0.00  0.00    -0.002 C 
ATOM     10  C   UNL     1      34.804 -19.540 -24.586  0.00  0.00    -0.000 C 
ENDBRANCH   8   9
ENDBRANCH   1   8
BRANCH   1  11
ATOM     11  C   UNL     1      35.426 -17.696 -21.611  0.00  0.00    +0.006 C 
BRANCH  11  12
ATOM     12  C   UNL     1      34.915 -18.972 -20.988  0.00  0.00    -0.024 C 
ATOM     13  C   UNL     1      35.820 -19.897 -20.494  0.00  0.00    -0.004 C 
ATOM     14  C   UNL     1      33.548 -19.196 -20.921  0.00  0.00    -0.004 C 
ATOM     15  C   UNL     1      35.348 -21.077 -19.917  0.00  0.00    -0.000 C 
ATOM     16  C   UNL     1      33.076 -20.375 -20.345  0.00  0.00    -0.000 C 
ATOM     17  C   UNL     1      33.977 -21.316 -19.843  0.00  0.00    -0.000 C 
ENDBRANCH  11  12
ENDBRANCH   1  11
TORSDOF 5
ENDMDL
MODEL 4
REMARK VINA RESULT:      -7.6      4.191      7.970
REMARK  Name = 14592
REMARK  5 active torsions:
REMARK  status: ('A' for Active; 'I' for Inactive)
REMARK    1  A    between atoms: C_1  and  N_2
REMARK    2  A    between atoms: C_1  and  C_8
REMARK    3  A    between atoms: C_1  and  C_11
REMARK    4  A    between atoms: C_8  and  C_9
REMARK    5  A    between atoms: C_11  and  C_12
REMARK                            x       y       z     vdW  Elec       q    Type
REMARK                         _______ _______ _______ _____ _____    ______ ____
ROOT
ATOM      1  C   UNL     1      33.643 -23.004 -16.611  0.00  0.00    -0.054 C 
ENDROOT
BRANCH   1   2
ATOM      2  N   UNL     1      32.410 -23.476 -16.000  0.00  0.00    +0.388 N 
ATOM      3  C   UNL     1      32.328 -23.142 -14.578  0.00  0.00    -0.077 C 
ATOM      4  C   UNL     1      31.222 -22.872 -16.601  0.00  0.00    -0.077 C 
ATOM      5  C   UNL     1      30.856 -23.364 -14.260  0.00  0.00    -0.025 C 
ATOM      6  C   UNL     1      30.130 -23.189 -15.590  0.00  0.00    -0.025 C 
ATOM      7  H   UNL     1      32.433 -24.486 -16.146  0.00  0.00    -0.080 HD
ENDBRANCH   1   2
BRANCH   1   8
ATOM      8  C   UNL     1      34.879 -23.571 -15.877  0.00  0.00    -0.020 C 
BRANCH   8   9
ATOM      9  C   UNL     1      35.905 -22.532 -15.411  0.00  0.00    -0.002 C 
ATOM     10  C   UNL     1      37.258 -22.763 -16.069  0.00  0.00    -0.000 C 
ENDBRANCH   8   9
ENDBRANCH   1   8
BRANCH   1  11
ATOM     11  C   UNL     1      33.596 -23.316 -18.119  0.00  0.00    +0.006 C 
BRANCH  11  12
ATOM     12  C   UNL     1      34.032 -22.165 -18.993  0.00  0.00    -0.024 C 
ATOM     13  C   UNL     1      33.072 -21.346 -19.565  0.00  0.00    -0.004 C 
ATOM     14  C   UNL     1      35.384 -21.949 -19.208  0.00  0.00    -0.004 C 
ATOM     15  C   UNL     1      33.475 -20.282 -20.373  0.00  0.00    -0.000 C 
ATOM     16  C   UNL     1      35.786 -20.885 -20.015  0.00  0.00    -0.000 C 
ATOM     17  C   UNL     1      34.831 -20.051 -20.598  0.00  0.00    -0.000 C 
ENDBRANCH  11  12
ENDBRANCH   1  11
TORSDOF 5
ENDMDL
MODEL 5
REMARK VINA RESULT:      -7.6      1.566      3.397
REMARK  Name = 14592
REMARK  5 active torsions:
REMARK  status: ('A' for Active; 'I' for Inactive)
REMARK    1  A    between atoms: C_1  and  N_2
REMARK    2  A    between atoms: C_1  and  C_8
REMARK    3  A    between atoms: C_1  and  C_11
REMARK    4  A    between atoms: C_8  and  C_9
REMARK    5  A    between atoms: C_11  and  C_12
REMARK                            x       y       z     vdW  Elec       q    Type
REMARK                         _______ _______ _______ _____ _____    ______ ____
ROOT
ATOM      1  C   UNL     1      34.815 -16.277 -22.887  0.00  0.00    -0.054 C 
ENDROOT
BRANCH   1   2
ATOM      2  N   UNL     1      33.848 -15.585 -23.725  0.00  0.00    +0.388 N 
ATOM      3  C   UNL     1      34.074 -14.140 -23.762  0.00  0.00    -0.077 C 
ATOM      4  C   UNL     1      33.912 -16.014 -25.121  0.00  0.00    -0.077 C 
ATOM      5  C   UNL     1      33.242 -13.695 -24.955  0.00  0.00    -0.025 C 
ATOM      6  C   UNL     1      33.134 -14.927 -25.848  0.00  0.00    -0.025 C 
ATOM      7  H   UNL     1      32.948 -15.813 -23.303  0.00  0.00    -0.080 HD
ENDBRANCH   1   2
BRANCH   1   8
ATOM      8  C   UNL     1      34.535 -16.022 -21.389  0.00  0.00    -0.020 C 
BRANCH   8   9
ATOM      9  C   UNL     1      33.056 -15.987 -20.991  0.00  0.00    -0.002 C 
ATOM     10  C   UNL     1      32.691 -14.656 -20.349  0.00  0.00    -0.000 C 
ENDBRANCH   8   9
ENDBRANCH   1   8
BRANCH   1  11
ATOM     11  C   UNL     1      34.840 -17.764 -23.289  0.00  0.00    +0.006 C 
BRANCH  11  12
ATOM     12  C   UNL     1      35.176 -18.698 -22.150  0.00  0.00    -0.024 C 
ATOM     13  C   UNL     1      34.179 -19.492 -21.607  0.00  0.00    -0.004 C 
ATOM     14  C   UNL     1      36.475 -18.744 -21.670  0.00  0.00    -0.004 C 
ATOM     15  C   UNL     1      34.489 -20.355 -20.555  0.00  0.00    -0.000 C 
ATOM     16  C   UNL     1      36.785 -19.606 -20.619  0.00  0.00    -0.000 C 
ATOM     17  C   UNL     1      35.791 -20.412 -20.061  0.00  0.00    -0.000 C 
ENDBRANCH  11  12
ENDBRANCH   1  11
TORSDOF 5
ENDMDL
MODEL 6
REMARK VINA RESULT:      -7.6      1.827      6.018
REMARK  Name = 14592
REMARK  5 active torsions:
REMARK  status: ('A' for Active; 'I' for Inactive)
REMARK    1  A    between atoms: C_1  and  N_2
REMARK    2  A    between atoms: C_1  and  C_8
REMARK    3  A    between atoms: C_1  and  C_11
REMARK    4  A    between atoms: C_8  and  C_9
REMARK    5  A    between atoms: C_11  and  C_12
REMARK                            x       y       z     vdW  Elec       q    Type
REMARK                         _______ _______ _______ _____ _____    ______ ____
ROOT
ATOM      1  C   UNL     1      34.429 -17.077 -22.013  0.00  0.00    -0.054 C 
ENDROOT
BRANCH   1   2
ATOM      2  N   UNL     1      34.680 -18.491 -21.780  0.00  0.00    +0.388 N 
ATOM      3  C   UNL     1      35.950 -18.726 -21.092  0.00  0.00    -0.077 C 
ATOM      4  C   UNL     1      33.666 -19.105 -20.925  0.00  0.00    -0.077 C 
ATOM      5  C   UNL     1      35.820 -20.165 -20.617  0.00  0.00    -0.025 C 
ATOM      6  C   UNL     1      34.319 -20.416 -20.509  0.00  0.00    -0.025 C 
ATOM      7  H   UNL     1      34.680 -18.900 -22.715  0.00  0.00    -0.080 HD
ENDBRANCH   1   2
BRANCH   1   8
ATOM      8  C   UNL     1      34.781 -16.237 -20.766  0.00  0.00    -0.020 C 
BRANCH   8   9
ATOM      9  C   UNL     1      33.740 -15.189 -20.360  0.00  0.00    -0.002 C 
ATOM     10  C   UNL     1      32.346 -15.591 -20.821  0.00  0.00    -0.000 C 
ENDBRANCH   8   9
ENDBRANCH   1   8
BRANCH   1  11
ATOM     11  C   UNL     1      35.164 -16.652 -23.299  0.00  0.00    +0.006 C 
BRANCH  11  12
ATOM     12  C   UNL     1      34.350 -15.753 -24.198  0.00  0.00    -0.024 C 
ATOM     13  C   UNL     1      34.097 -14.449 -23.805  0.00  0.00    -0.004 C 
ATOM     14  C   UNL     1      33.869 -16.249 -25.400  0.00  0.00    -0.004 C 
ATOM     15  C   UNL     1      33.345 -13.618 -24.636  0.00  0.00    -0.000 C 
ATOM     16  C   UNL     1      33.117 -15.418 -26.230  0.00  0.00    -0.000 C 
ATOM     17  C   UNL     1      32.855 -14.102 -25.848  0.00  0.00    -0.000 C 
ENDBRANCH  11  12
ENDBRANCH   1  11
TORSDOF 5
ENDMDL
MODEL 7
REMARK VINA RESULT:      -7.4      2.519      4.483
REMARK  Name = 14592
REMARK  5 active torsions:
REMARK  status: ('A' for Active; 'I' for Inactive)
REMARK    1  A    between atoms: C_1  and  N_2
REMARK    2  A    between atoms: C_1  and  C_8
REMARK    3  A    between atoms: C_1  and  C_11
REMARK    4  A    between atoms: C_8  and  C_9
REMARK    5  A    between atoms: C_11  and  C_12
REMARK                            x       y       z     vdW  Elec       q    Type
REMARK                         _______ _______ _______ _____ _____    ______ ____
ROOT
ATOM      1  C   UNL     1      33.070 -14.326 -23.243  0.00  0.00    -0.054 C 
ENDROOT
BRANCH   1   2
ATOM      2  N   UNL     1      32.194 -13.568 -22.363  0.00  0.00    +0.388 N 
ATOM      3  C   UNL     1      32.611 -13.641 -20.963  0.00  0.00    -0.077 C 
ATOM      4  C   UNL     1      32.180 -12.141 -22.682  0.00  0.00    -0.077 C 
ATOM      5  C   UNL     1      31.830 -12.507 -20.315  0.00  0.00    -0.025 C 
ATOM      6  C   UNL     1      31.545 -11.522 -21.445  0.00  0.00    -0.025 C 
ATOM      7  H   UNL     1      31.276 -13.993 -22.503  0.00  0.00    -0.080 HD
ENDBRANCH   1   2
BRANCH   1   8
ATOM      8  C   UNL     1      33.336 -13.558 -24.558  0.00  0.00    -0.020 C 
BRANCH   8   9
ATOM      9  C   UNL     1      32.953 -14.299 -25.843  0.00  0.00    -0.002 C 
ATOM     10  C   UNL     1      33.205 -13.435 -27.070  0.00  0.00    -0.000 C 
ENDBRANCH   8   9
ENDBRANCH   1   8
BRANCH   1  11
ATOM     11  C   UNL     1      34.340 -14.711 -22.460  0.00  0.00    +0.006 C 
BRANCH  11  12
ATOM     12  C   UNL     1      34.638 -16.191 -22.472  0.00  0.00    -0.024 C 
ATOM     13  C   UNL     1      34.941 -16.812 -23.673  0.00  0.00    -0.004 C 
ATOM     14  C   UNL     1      34.605 -16.901 -21.283  0.00  0.00    -0.004 C 
ATOM     15  C   UNL     1      35.216 -18.180 -23.686  0.00  0.00    -0.000 C 
ATOM     16  C   UNL     1      34.881 -18.268 -21.295  0.00  0.00    -0.000 C 
ATOM     17  C   UNL     1      35.186 -18.908 -22.497  0.00  0.00    -0.000 C 
ENDBRANCH  11  12
ENDBRANCH   1  11
TORSDOF 5
ENDMDL
MODEL 8
REMARK VINA RESULT:      -7.3      2.952      5.057
REMARK  Name = 14592
REMARK  5 active torsions:
REMARK  status: ('A' for Active; 'I' for Inactive)
REMARK    1  A    between atoms: C_1  and  N_2
REMARK    2  A    between atoms: C_1  and  C_8
REMARK    3  A    between atoms: C_1  and  C_11
REMARK    4  A    between atoms: C_8  and  C_9
REMARK    5  A    between atoms: C_11  and  C_12
REMARK                            x       y       z     vdW  Elec       q    Type
REMARK                         _______ _______ _______ _____ _____    ______ ____
ROOT
ATOM      1  C   UNL     1      33.780 -13.977 -23.221  0.00  0.00    -0.054 C 
ENDROOT
BRANCH   1   2
ATOM      2  N   UNL     1      34.097 -12.642 -23.704  0.00  0.00    +0.388 N 
ATOM      3  C   UNL     1      34.017 -12.541 -25.161  0.00  0.00    -0.077 C 
ATOM      4  C   UNL     1      33.166 -11.632 -23.202  0.00  0.00    -0.077 C 
ATOM      5  C   UNL     1      33.991 -11.039 -25.399  0.00  0.00    -0.025 C 
ATOM      6  C   UNL     1      33.433 -10.441 -24.111  0.00  0.00    -0.025 C 
ATOM      7  H   UNL     1      35.046 -12.476 -23.368  0.00  0.00    -0.080 HD
ENDBRANCH   1   2
BRANCH   1   8
ATOM      8  C   UNL     1      32.513 -13.963 -22.338  0.00  0.00    -0.020 C 
BRANCH   8   9
ATOM      9  C   UNL     1      32.723 -14.367 -20.875  0.00  0.00    -0.002 C 
ATOM     10  C   UNL     1      32.351 -15.825 -20.649  0.00  0.00    -0.000 C 
ENDBRANCH   8   9
ENDBRANCH   1   8
BRANCH   1  11
ATOM     11  C   UNL     1      33.708 -14.932 -24.429  0.00  0.00    +0.006 C 
BRANCH  11  12
ATOM     12  C   UNL     1      34.290 -16.299 -24.161  0.00  0.00    -0.024 C 
ATOM     13  C   UNL     1      34.082 -17.317 -25.077  0.00  0.00    -0.004 C 
ATOM     14  C   UNL     1      35.024 -16.510 -23.004  0.00  0.00    -0.004 C 
ATOM     15  C   UNL     1      34.620 -18.581 -24.830  0.00  0.00    -0.000 C 
ATOM     16  C   UNL     1      35.562 -17.773 -22.757  0.00  0.00    -0.000 C 
ATOM     17  C   UNL     1      35.360 -18.808 -23.670  0.00  0.00    -0.000 C 
ENDBRANCH  11  12
ENDBRANCH   1  11
TORSDOF 5
ENDMDL
MODEL 9
REMARK VINA RESULT:      -7.3      8.364     12.086
REMARK  Name = 14592
REMARK  5 active torsions:
REMARK  status: ('A' for Active; 'I' for Inactive)
REMARK    1  A    between atoms: C_1  and  N_2
REMARK    2  A    between atoms: C_1  and  C_8
REMARK    3  A    between atoms: C_1  and  C_11
REMARK    4  A    between atoms: C_8  and  C_9
REMARK    5  A    between atoms: C_11  and  C_12
REMARK                            x       y       z     vdW  Elec       q    Type
REMARK                         _______ _______ _______ _____ _____    ______ ____
ROOT
ATOM      1  C   UNL     1      32.250  -8.778 -22.858  0.00  0.00    -0.054 C 
ENDROOT
BRANCH   1   2
ATOM      2  N   UNL     1      31.608  -9.489 -21.763  0.00  0.00    +0.388 N 
ATOM      3  C   UNL     1      31.733 -10.941 -21.890  0.00  0.00    -0.077 C 
ATOM      4  C   UNL     1      32.201  -9.169 -20.465  0.00  0.00    -0.077 C 
ATOM      5  C   UNL     1      31.361 -11.438 -20.501  0.00  0.00    -0.025 C 
ATOM      6  C   UNL     1      31.667 -10.273 -19.565  0.00  0.00    -0.025 C 
ATOM      7  H   UNL     1      30.633  -9.191 -21.813  0.00  0.00    -0.080 HD
ENDBRANCH   1   2
BRANCH   1   8
ATOM      8  C   UNL     1      33.174  -9.718 -23.664  0.00  0.00    -0.020 C 
BRANCH   8   9
ATOM      9  C   UNL     1      34.556  -9.152 -24.006  0.00  0.00    -0.002 C 
ATOM     10  C   UNL     1      34.741  -7.761 -23.417  0.00  0.00    -0.000 C 
ENDBRANCH   8   9
ENDBRANCH   1   8
BRANCH   1  11
ATOM     11  C   UNL     1      31.162  -8.078 -23.695  0.00  0.00    +0.006 C 
BRANCH  11  12
ATOM     12  C   UNL     1      31.242  -6.571 -23.660  0.00  0.00    -0.024 C 
ATOM     13  C   UNL     1      30.808  -5.895 -22.531  0.00  0.00    -0.004 C 
ATOM     14  C   UNL     1      31.747  -5.891 -24.757  0.00  0.00    -0.004 C 
ATOM     15  C   UNL     1      30.882  -4.501 -22.498  0.00  0.00    -0.000 C 
ATOM     16  C   UNL     1      31.821  -4.499 -24.724  0.00  0.00    -0.000 C 
ATOM     17  C   UNL     1      31.388  -3.804 -23.594  0.00  0.00    -0.000 C 
ENDBRANCH  11  12
ENDBRANCH   1  11
TORSDOF 5
ENDMDL
