MODEL 1
REMARK VINA RESULT:      -9.6      0.000      0.000
REMARK  Name = 6921791
REMARK  2 active torsions:
REMARK  status: ('A' for Active; 'I' for Inactive)
REMARK    1  A    between atoms: N_5  and  C_23
REMARK    2  A    between atoms: C_17  and  C_22
REMARK                            x       y       z     vdW  Elec       q    Type
REMARK                         _______ _______ _______ _____ _____    ______ ____
ROOT
ATOM      1  O   UNL     1      29.845 -23.820 -14.117  0.00  0.00    -0.286 OA
ATOM      2  N   UNL     1      38.745 -25.165 -13.323  0.00  0.00    +0.386 N 
ATOM      3  N   UNL     1      36.043 -24.481 -13.749  0.00  0.00    -0.248 N 
ATOM      4  N   UNL     1      34.448 -23.798 -15.283  0.00  0.00    -0.322 NA
ATOM      5  N   UNL     1      32.754 -23.090 -16.863  0.00  0.00    -0.260 N 
ATOM      6  N   UNL     1      33.832 -24.532 -13.071  0.00  0.00    -0.170 NA
ATOM      7  C   UNL     1      37.676 -25.889 -12.575  0.00  0.00    -0.059 C 
ATOM      8  C   UNL     1      38.302 -24.720 -14.678  0.00  0.00    -0.059 C 
ATOM      9  C   UNL     1      36.458 -24.985 -12.435  0.00  0.00    +0.079 C 
ATOM     10  C   UNL     1      37.094 -23.809 -14.526  0.00  0.00    +0.079 C 
ATOM     11  C   UNL     1      34.716 -24.261 -14.046  0.00  0.00    +0.149 C 
ATOM     12  C   UNL     1      33.144 -23.577 -15.588  0.00  0.00    +0.204 C 
ATOM     13  C   UNL     1      32.150 -23.831 -14.637  0.00  0.00    +0.104 C 
ATOM     14  C   UNL     1      32.547 -24.306 -13.398  0.00  0.00    +0.119 C 
ATOM     15  C   UNL     1      31.419 -22.876 -17.142  0.00  0.00    +0.077 C 
ATOM     16  C   UNL     1      30.720 -23.599 -14.943  0.00  0.00    +0.209 C 
ATOM     17  C   UNL     1      30.404 -23.089 -16.300  0.00  0.00    +0.134 C 
ATOM     18  H   UNL     1      39.546 -25.786 -13.429  0.00  0.00    -0.084 HD
ATOM     19  H   UNL     1      38.982 -24.330 -12.787  0.00  0.00    -0.084 HD
ENDROOT
BRANCH  17  22
ATOM     20  O   UNL     1      28.445 -21.797 -16.228  0.00  0.00    -0.240 OA
ATOM     21  O   UNL     1      28.536 -23.608 -17.624  0.00  0.00    -0.240 OA
ATOM     22  C   UNL     1      28.994 -22.804 -16.761  0.00  0.00    +0.392 C 
ENDBRANCH  17  22
BRANCH   5  23
ATOM     23  C   UNL     1      33.827 -22.841 -17.817  0.00  0.00    +0.098 C 
ATOM     24  C   UNL     1      33.329 -21.959 -18.946  0.00  0.00    +0.024 C 
ENDBRANCH   5  23
TORSDOF 2
ENDMDL
MODEL 2
REMARK VINA RESULT:      -8.6      2.948      6.566
REMARK  Name = 6921791
REMARK  2 active torsions:
REMARK  status: ('A' for Active; 'I' for Inactive)
REMARK    1  A    between atoms: N_5  and  C_23
REMARK    2  A    between atoms: C_17  and  C_22
REMARK                            x       y       z     vdW  Elec       q    Type
REMARK                         _______ _______ _______ _____ _____    ______ ____
ROOT
ATOM      1  O   UNL     1      33.456 -24.686 -13.128  0.00  0.00    -0.286 OA
ATOM      2  N   UNL     1      34.440 -20.491 -21.071  0.00  0.00    +0.386 N 
ATOM      3  N   UNL     1      34.405 -21.965 -18.668  0.00  0.00    -0.248 N 
ATOM      4  N   UNL     1      35.643 -22.762 -16.879  0.00  0.00    -0.322 NA
ATOM      5  N   UNL     1      36.905 -23.605 -14.992  0.00  0.00    -0.260 N 
ATOM      6  N   UNL     1      33.235 -22.882 -16.896  0.00  0.00    -0.170 NA
ATOM      7  C   UNL     1      33.248 -20.412 -20.176  0.00  0.00    -0.059 C 
ATOM      8  C   UNL     1      35.713 -20.706 -20.320  0.00  0.00    -0.059 C 
ATOM      9  C   UNL     1      33.142 -21.696 -19.364  0.00  0.00    +0.079 C 
ATOM     10  C   UNL     1      35.600 -21.996 -19.522  0.00  0.00    +0.079 C 
ATOM     11  C   UNL     1      34.427 -22.563 -17.427  0.00  0.00    +0.149 C 
ATOM     12  C   UNL     1      35.678 -23.350 -15.657  0.00  0.00    +0.204 C 
ATOM     13  C   UNL     1      34.485 -23.718 -15.023  0.00  0.00    +0.104 C 
ATOM     14  C   UNL     1      33.295 -23.463 -15.684  0.00  0.00    +0.119 C 
ATOM     15  C   UNL     1      36.907 -24.205 -13.748  0.00  0.00    +0.077 C 
ATOM     16  C   UNL     1      34.495 -24.361 -13.689  0.00  0.00    +0.209 C 
ATOM     17  C   UNL     1      35.823 -24.590 -13.069  0.00  0.00    +0.134 C 
ATOM     18  H   UNL     1      34.513 -19.618 -21.594  0.00  0.00    -0.084 HD
ATOM     19  H   UNL     1      34.307 -21.292 -21.689  0.00  0.00    -0.084 HD
ENDROOT
BRANCH  17  22
ATOM     20  O   UNL     1      36.806 -26.205 -11.677  0.00  0.00    -0.240 OA
ATOM     21  O   UNL     1      35.309 -24.723 -10.783  0.00  0.00    -0.240 OA
ATOM     22  C   UNL     1      35.996 -25.234 -11.714  0.00  0.00    +0.392 C 
ENDBRANCH  17  22
BRANCH   5  23
ATOM     23  C   UNL     1      38.117 -23.203 -15.694  0.00  0.00    +0.098 C 
ATOM     24  C   UNL     1      39.208 -24.235 -15.488  0.00  0.00    +0.024 C 
ENDBRANCH   5  23
TORSDOF 2
ENDMDL
MODEL 3
REMARK VINA RESULT:      -8.4      3.292      4.618
REMARK  Name = 6921791
REMARK  2 active torsions:
REMARK  status: ('A' for Active; 'I' for Inactive)
REMARK    1  A    between atoms: N_5  and  C_23
REMARK    2  A    between atoms: C_17  and  C_22
REMARK                            x       y       z     vdW  Elec       q    Type
REMARK                         _______ _______ _______ _____ _____    ______ ____
ROOT
ATOM      1  O   UNL     1      36.462 -20.504 -19.614  0.00  0.00    -0.286 OA
ATOM      2  N   UNL     1      37.571 -25.448 -12.131  0.00  0.00    +0.386 N 
ATOM      3  N   UNL     1      37.021 -24.140 -14.568  0.00  0.00    -0.248 N 
ATOM      4  N   UNL     1      35.390 -23.489 -16.080  0.00  0.00    -0.322 NA
ATOM      5  N   UNL     1      33.711 -22.789 -17.678  0.00  0.00    -0.260 N 
ATOM      6  N   UNL     1      37.656 -22.683 -16.249  0.00  0.00    -0.170 NA
ATOM      7  C   UNL     1      38.371 -24.250 -12.521  0.00  0.00    -0.059 C 
ATOM      8  C   UNL     1      36.167 -25.394 -12.638  0.00  0.00    -0.059 C 
ATOM      9  C   UNL     1      38.390 -24.128 -14.039  0.00  0.00    +0.079 C 
ATOM     10  C   UNL     1      36.197 -25.285 -14.156  0.00  0.00    +0.079 C 
ATOM     11  C   UNL     1      36.676 -23.405 -15.681  0.00  0.00    +0.149 C 
ATOM     12  C   UNL     1      35.038 -22.770 -17.175  0.00  0.00    +0.204 C 
ATOM     13  C   UNL     1      35.992 -21.987 -17.834  0.00  0.00    +0.104 C 
ATOM     14  C   UNL     1      37.282 -21.978 -17.332  0.00  0.00    +0.119 C 
ATOM     15  C   UNL     1      33.384 -22.045 -18.794  0.00  0.00    +0.077 C 
ATOM     16  C   UNL     1      35.634 -21.192 -19.032  0.00  0.00    +0.209 C 
ATOM     17  C   UNL     1      34.224 -21.272 -19.487  0.00  0.00    +0.134 C 
ATOM     18  H   UNL     1      37.548 -25.507 -11.114  0.00  0.00    -0.084 HD
ATOM     19  H   UNL     1      38.018 -26.264 -12.548  0.00  0.00    -0.084 HD
ENDROOT
BRANCH  17  22
ATOM     20  O   UNL     1      34.598 -20.016 -21.436  0.00  0.00    -0.240 OA
ATOM     21  O   UNL     1      32.448 -20.484 -20.805  0.00  0.00    -0.240 OA
ATOM     22  C   UNL     1      33.707 -20.519 -20.690  0.00  0.00    +0.392 C 
ENDBRANCH  17  22
BRANCH   5  23
ATOM     23  C   UNL     1      32.757 -23.620 -16.956  0.00  0.00    +0.098 C 
ATOM     24  C   UNL     1      31.489 -22.837 -16.674  0.00  0.00    +0.024 C 
ENDBRANCH   5  23
TORSDOF 2
ENDMDL
MODEL 4
REMARK VINA RESULT:      -8.3     13.737     16.843
REMARK  Name = 6921791
REMARK  2 active torsions:
REMARK  status: ('A' for Active; 'I' for Inactive)
REMARK    1  A    between atoms: N_5  and  C_23
REMARK    2  A    between atoms: C_17  and  C_22
REMARK                            x       y       z     vdW  Elec       q    Type
REMARK                         _______ _______ _______ _____ _____    ______ ____
ROOT
ATOM      1  O   UNL     1      33.856 -12.666 -24.306  0.00  0.00    -0.286 OA
ATOM      2  N   UNL     1      30.954  -4.271 -22.648  0.00  0.00    +0.386 N 
ATOM      3  N   UNL     1      31.880  -6.927 -22.841  0.00  0.00    -0.248 N 
ATOM      4  N   UNL     1      31.696  -9.094 -22.043  0.00  0.00    -0.322 NA
ATOM      5  N   UNL     1      31.524 -11.371 -21.236  0.00  0.00    -0.260 N 
ATOM      6  N   UNL     1      32.975  -8.587 -24.023  0.00  0.00    -0.170 NA
ATOM      7  C   UNL     1      31.333  -4.823 -23.982  0.00  0.00    -0.059 C 
ATOM      8  C   UNL     1      30.406  -5.311 -21.727  0.00  0.00    -0.059 C 
ATOM      9  C   UNL     1      32.368  -5.925 -23.795  0.00  0.00    +0.079 C 
ATOM     10  C   UNL     1      31.452  -6.399 -21.538  0.00  0.00    +0.079 C 
ATOM     11  C   UNL     1      32.198  -8.260 -22.976  0.00  0.00    +0.149 C 
ATOM     12  C   UNL     1      32.002 -10.410 -22.165  0.00  0.00    +0.204 C 
ATOM     13  C   UNL     1      32.805 -10.846 -23.224  0.00  0.00    +0.104 C 
ATOM     14  C   UNL     1      33.264  -9.896 -24.123  0.00  0.00    +0.119 C 
ATOM     15  C   UNL     1      31.853 -12.703 -21.388  0.00  0.00    +0.077 C 
ATOM     16  C   UNL     1      33.155 -12.277 -23.382  0.00  0.00    +0.209 C 
ATOM     17  C   UNL     1      32.612 -13.210 -22.365  0.00  0.00    +0.134 C 
ATOM     18  H   UNL     1      30.246  -3.550 -22.784  0.00  0.00    -0.084 HD
ATOM     19  H   UNL     1      31.799  -3.894 -22.220  0.00  0.00    -0.084 HD
ENDROOT
BRANCH  17  22
ATOM     20  O   UNL     1      32.243 -15.374 -21.532  0.00  0.00    -0.240 OA
ATOM     21  O   UNL     1      33.706 -15.081 -23.266  0.00  0.00    -0.240 OA
ATOM     22  C   UNL     1      32.879 -14.697 -22.390  0.00  0.00    +0.392 C 
ENDBRANCH  17  22
BRANCH   5  23
ATOM     23  C   UNL     1      30.693 -10.865 -20.152  0.00  0.00    +0.098 C 
ATOM     24  C   UNL     1      31.486 -10.822 -18.861  0.00  0.00    +0.024 C 
ENDBRANCH   5  23
TORSDOF 2
ENDMDL
MODEL 5
REMARK VINA RESULT:      -8.3      9.135     12.706
REMARK  Name = 6921791
REMARK  2 active torsions:
REMARK  status: ('A' for Active; 'I' for Inactive)
REMARK    1  A    between atoms: N_5  and  C_23
REMARK    2  A    between atoms: C_17  and  C_22
REMARK                            x       y       z     vdW  Elec       q    Type
REMARK                         _______ _______ _______ _____ _____    ______ ____
ROOT
ATOM      1  O   UNL     1      35.429 -17.038 -19.913  0.00  0.00    -0.286 OA
ATOM      2  N   UNL     1      33.159 -12.125 -27.149  0.00  0.00    +0.386 N 
ATOM      3  N   UNL     1      33.666 -13.889 -25.009  0.00  0.00    -0.248 N 
ATOM      4  N   UNL     1      34.133 -16.068 -24.377  0.00  0.00    -0.322 NA
ATOM      5  N   UNL     1      34.628 -18.335 -23.683  0.00  0.00    -0.260 N 
ATOM      6  N   UNL     1      34.287 -14.244 -22.809  0.00  0.00    -0.170 NA
ATOM      7  C   UNL     1      33.937 -11.646 -25.970  0.00  0.00    -0.059 C 
ATOM      8  C   UNL     1      33.363 -13.579 -27.425  0.00  0.00    -0.059 C 
ATOM      9  C   UNL     1      33.537 -12.452 -24.740  0.00  0.00    +0.079 C 
ATOM     10  C   UNL     1      32.949 -14.375 -26.196  0.00  0.00    +0.079 C 
ATOM     11  C   UNL     1      34.045 -14.770 -24.021  0.00  0.00    +0.149 C 
ATOM     12  C   UNL     1      34.505 -16.947 -23.413  0.00  0.00    +0.204 C 
ATOM     13  C   UNL     1      34.779 -16.491 -22.119  0.00  0.00    +0.104 C 
ATOM     14  C   UNL     1      34.655 -15.134 -21.870  0.00  0.00    +0.119 C 
ATOM     15  C   UNL     1      35.009 -19.204 -22.680  0.00  0.00    +0.077 C 
ATOM     16  C   UNL     1      35.188 -17.429 -21.048  0.00  0.00    +0.209 C 
ATOM     17  C   UNL     1      35.290 -18.861 -21.420  0.00  0.00    +0.134 C 
ATOM     18  H   UNL     1      33.450 -11.594 -27.969  0.00  0.00    -0.084 HD
ATOM     19  H   UNL     1      32.170 -11.987 -26.941  0.00  0.00    -0.084 HD
ENDROOT
BRANCH  17  22
ATOM     20  O   UNL     1      34.782 -20.757 -20.130  0.00  0.00    -0.240 OA
ATOM     21  O   UNL     1      36.896 -19.885 -20.048  0.00  0.00    -0.240 OA
ATOM     22  C   UNL     1      35.695 -19.937 -20.439  0.00  0.00    +0.392 C 
ENDBRANCH  17  22
BRANCH   5  23
ATOM     23  C   UNL     1      34.331 -18.758 -25.046  0.00  0.00    +0.098 C 
ATOM     24  C   UNL     1      34.752 -20.200 -25.249  0.00  0.00    +0.024 C 
ENDBRANCH   5  23
TORSDOF 2
ENDMDL
MODEL 6
REMARK VINA RESULT:      -8.2     10.765     13.170
REMARK  Name = 6921791
REMARK  2 active torsions:
REMARK  status: ('A' for Active; 'I' for Inactive)
REMARK    1  A    between atoms: N_5  and  C_23
REMARK    2  A    between atoms: C_17  and  C_22
REMARK                            x       y       z     vdW  Elec       q    Type
REMARK                         _______ _______ _______ _____ _____    ______ ____
ROOT
ATOM      1  O   UNL     1      34.182 -17.639 -21.307  0.00  0.00    -0.286 OA
ATOM      2  N   UNL     1      31.259  -9.137 -20.403  0.00  0.00    +0.386 N 
ATOM      3  N   UNL     1      32.008 -11.796 -20.969  0.00  0.00    -0.248 N 
ATOM      4  N   UNL     1      32.791 -13.278 -22.567  0.00  0.00    -0.322 NA
ATOM      5  N   UNL     1      33.615 -14.852 -24.213  0.00  0.00    -0.260 N 
ATOM      6  N   UNL     1      32.658 -13.893 -20.240  0.00  0.00    -0.170 NA
ATOM      7  C   UNL     1      31.947  -9.947 -19.355  0.00  0.00    -0.059 C 
ATOM      8  C   UNL     1      31.681  -9.505 -21.787  0.00  0.00    -0.059 C 
ATOM      9  C   UNL     1      31.662 -11.424 -19.592  0.00  0.00    +0.079 C 
ATOM     10  C   UNL     1      31.382 -10.978 -22.017  0.00  0.00    +0.079 C 
ATOM     11  C   UNL     1      32.507 -13.043 -21.270  0.00  0.00    +0.149 C 
ATOM     12  C   UNL     1      33.283 -14.503 -22.878  0.00  0.00    +0.204 C 
ATOM     13  C   UNL     1      33.475 -15.456 -21.871  0.00  0.00    +0.104 C 
ATOM     14  C   UNL     1      33.147 -15.101 -20.573  0.00  0.00    +0.119 C 
ATOM     15  C   UNL     1      34.114 -16.108 -24.496  0.00  0.00    +0.077 C 
ATOM     16  C   UNL     1      34.011 -16.801 -22.182  0.00  0.00    +0.209 C 
ATOM     17  C   UNL     1      34.330 -17.078 -23.604  0.00  0.00    +0.134 C 
ATOM     18  H   UNL     1      31.474  -8.153 -20.247  0.00  0.00    -0.084 HD
ATOM     19  H   UNL     1      30.259  -9.323 -20.326  0.00  0.00    -0.084 HD
ENDROOT
BRANCH  17  22
ATOM     20  O   UNL     1      34.158 -19.025 -24.906  0.00  0.00    -0.240 OA
ATOM     21  O   UNL     1      36.004 -18.724 -23.588  0.00  0.00    -0.240 OA
ATOM     22  C   UNL     1      34.884 -18.402 -24.077  0.00  0.00    +0.392 C 
ENDBRANCH  17  22
BRANCH   5  23
ATOM     23  C   UNL     1      33.396 -13.825 -25.224  0.00  0.00    +0.098 C 
ATOM     24  C   UNL     1      32.992 -14.463 -26.538  0.00  0.00    +0.024 C 
ENDBRANCH   5  23
TORSDOF 2
ENDMDL
MODEL 7
REMARK VINA RESULT:      -8.2      9.996     12.609
REMARK  Name = 6921791
REMARK  2 active torsions:
REMARK  status: ('A' for Active; 'I' for Inactive)
REMARK    1  A    between atoms: N_5  and  C_23
REMARK    2  A    between atoms: C_17  and  C_22
REMARK                            x       y       z     vdW  Elec       q    Type
REMARK                         _______ _______ _______ _____ _____    ______ ____
ROOT
ATOM      1  O   UNL     1      31.480 -11.768 -19.961  0.00  0.00    -0.286 OA
ATOM      2  N   UNL     1      35.089 -19.491 -22.957  0.00  0.00    +0.386 N 
ATOM      3  N   UNL     1      34.199 -16.928 -22.191  0.00  0.00    -0.248 N 
ATOM      4  N   UNL     1      33.719 -14.769 -22.881  0.00  0.00    -0.322 NA
ATOM      5  N   UNL     1      33.204 -12.506 -23.570  0.00  0.00    -0.260 N 
ATOM      6  N   UNL     1      33.105 -15.553 -20.685  0.00  0.00    -0.170 NA
ATOM      7  C   UNL     1      34.034 -19.361 -21.910  0.00  0.00    -0.059 C 
ATOM      8  C   UNL     1      35.035 -18.397 -23.971  0.00  0.00    -0.059 C 
ATOM      9  C   UNL     1      34.182 -18.018 -21.208  0.00  0.00    +0.079 C 
ATOM     10  C   UNL     1      35.196 -17.061 -23.261  0.00  0.00    +0.079 C 
ATOM     11  C   UNL     1      33.650 -15.697 -21.905  0.00  0.00    +0.149 C 
ATOM     12  C   UNL     1      33.183 -13.552 -22.612  0.00  0.00    +0.204 C 
ATOM     13  C   UNL     1      32.592 -13.308 -21.367  0.00  0.00    +0.104 C 
ATOM     14  C   UNL     1      32.580 -14.339 -20.443  0.00  0.00    +0.119 C 
ATOM     15  C   UNL     1      32.649 -11.278 -23.266  0.00  0.00    +0.077 C 
ATOM     16  C   UNL     1      31.999 -11.989 -21.047  0.00  0.00    +0.209 C 
ATOM     17  C   UNL     1      32.066 -10.954 -22.108  0.00  0.00    +0.134 C 
ATOM     18  H   UNL     1      34.967 -20.384 -23.433  0.00  0.00    -0.084 HD
ATOM     19  H   UNL     1      35.994 -19.433 -22.489  0.00  0.00    -0.084 HD
ENDROOT
BRANCH  17  22
ATOM     20  O   UNL     1      31.800  -8.996 -20.840  0.00  0.00    -0.240 OA
ATOM     21  O   UNL     1      30.810  -9.135 -22.899  0.00  0.00    -0.240 OA
ATOM     22  C   UNL     1      31.505  -9.563 -21.933  0.00  0.00    +0.392 C 
ENDBRANCH  17  22
BRANCH   5  23
ATOM     23  C   UNL     1      33.831 -12.811 -24.849  0.00  0.00    +0.098 C 
ATOM     24  C   UNL     1      34.148 -11.530 -25.596  0.00  0.00    +0.024 C 
ENDBRANCH   5  23
TORSDOF 2
ENDMDL
MODEL 8
REMARK VINA RESULT:      -8.1      3.653      6.827
REMARK  Name = 6921791
REMARK  2 active torsions:
REMARK  status: ('A' for Active; 'I' for Inactive)
REMARK    1  A    between atoms: N_5  and  C_23
REMARK    2  A    between atoms: C_17  and  C_22
REMARK                            x       y       z     vdW  Elec       q    Type
REMARK                         _______ _______ _______ _____ _____    ______ ____
ROOT
ATOM      1  O   UNL     1      36.104 -25.071 -11.476  0.00  0.00    -0.286 OA
ATOM      2  N   UNL     1      28.961 -22.783 -16.517  0.00  0.00    +0.386 N 
ATOM      3  N   UNL     1      31.345 -23.559 -15.226  0.00  0.00    -0.248 N 
ATOM      4  N   UNL     1      33.655 -23.391 -15.181  0.00  0.00    -0.322 NA
ATOM      5  N   UNL     1      36.070 -23.231 -15.103  0.00  0.00    -0.260 N 
ATOM      6  N   UNL     1      32.433 -24.412 -13.371  0.00  0.00    -0.170 NA
ATOM      7  C   UNL     1      28.973 -22.955 -15.034  0.00  0.00    -0.059 C 
ATOM      8  C   UNL     1      30.275 -22.320 -17.055  0.00  0.00    -0.059 C 
ATOM      9  C   UNL     1      30.054 -23.958 -14.652  0.00  0.00    +0.079 C 
ATOM     10  C   UNL     1      31.345 -23.334 -16.678  0.00  0.00    +0.079 C 
ATOM     11  C   UNL     1      32.528 -23.799 -14.563  0.00  0.00    +0.149 C 
ATOM     12  C   UNL     1      34.827 -23.621 -14.539  0.00  0.00    +0.204 C 
ATOM     13  C   UNL     1      34.828 -24.254 -13.291  0.00  0.00    +0.104 C 
ATOM     14  C   UNL     1      33.608 -24.629 -12.753  0.00  0.00    +0.119 C 
ATOM     15  C   UNL     1      37.246 -23.479 -14.423  0.00  0.00    +0.077 C 
ATOM     16  C   UNL     1      36.094 -24.518 -12.568  0.00  0.00    +0.209 C 
ATOM     17  C   UNL     1      37.345 -24.076 -13.232  0.00  0.00    +0.134 C 
ATOM     18  H   UNL     1      28.249 -22.095 -16.759  0.00  0.00    -0.084 HD
ATOM     19  H   UNL     1      28.763 -23.694 -16.930  0.00  0.00    -0.084 HD
ENDROOT
BRANCH  17  22
ATOM     20  O   UNL     1      39.011 -23.464 -11.695  0.00  0.00    -0.240 OA
ATOM     21  O   UNL     1      39.389 -25.223 -13.108  0.00  0.00    -0.240 OA
ATOM     22  C   UNL     1      38.712 -24.273 -12.620  0.00  0.00    +0.392 C 
ENDBRANCH  17  22
BRANCH   5  23
ATOM     23  C   UNL     1      36.014 -22.575 -16.403  0.00  0.00    +0.098 C 
ATOM     24  C   UNL     1      37.215 -21.670 -16.584  0.00  0.00    +0.024 C 
ENDBRANCH   5  23
TORSDOF 2
ENDMDL
MODEL 9
REMARK VINA RESULT:      -8.1     12.018     14.465
REMARK  Name = 6921791
REMARK  2 active torsions:
REMARK  status: ('A' for Active; 'I' for Inactive)
REMARK    1  A    between atoms: N_5  and  C_23
REMARK    2  A    between atoms: C_17  and  C_22
REMARK                            x       y       z     vdW  Elec       q    Type
REMARK                         _______ _______ _______ _____ _____    ______ ____
ROOT
ATOM      1  O   UNL     1      33.578 -16.406 -21.890  0.00  0.00    -0.286 OA
ATOM      2  N   UNL     1      31.560  -7.619 -21.286  0.00  0.00    +0.386 N 
ATOM      3  N   UNL     1      32.049 -10.353 -21.770  0.00  0.00    -0.248 N 
ATOM      4  N   UNL     1      32.781 -11.940 -23.291  0.00  0.00    -0.322 NA
ATOM      5  N   UNL     1      33.546 -13.623 -24.855  0.00  0.00    -0.260 N 
ATOM      6  N   UNL     1      32.404 -12.497 -20.976  0.00  0.00    -0.170 NA
ATOM      7  C   UNL     1      32.073  -8.482 -20.182  0.00  0.00    -0.059 C 
ATOM      8  C   UNL     1      32.043  -8.055 -22.631  0.00  0.00    -0.059 C 
ATOM      9  C   UNL     1      31.643  -9.923 -20.427  0.00  0.00    +0.079 C 
ATOM     10  C   UNL     1      31.599  -9.490 -22.871  0.00  0.00    +0.079 C 
ATOM     11  C   UNL     1      32.427 -11.654 -22.022  0.00  0.00    +0.149 C 
ATOM     12  C   UNL     1      33.155 -13.217 -23.552  0.00  0.00    +0.204 C 
ATOM     13  C   UNL     1      33.163 -14.168 -22.525  0.00  0.00    +0.104 C 
ATOM     14  C   UNL     1      32.780 -13.757 -21.259  0.00  0.00    +0.119 C 
ATOM     15  C   UNL     1      33.923 -14.931 -25.088  0.00  0.00    +0.077 C 
ATOM     16  C   UNL     1      33.568 -15.569 -22.782  0.00  0.00    +0.209 C 
ATOM     17  C   UNL     1      33.960 -15.904 -24.173  0.00  0.00    +0.134 C 
ATOM     18  H   UNL     1      31.871  -6.662 -21.122  0.00  0.00    -0.084 HD
ATOM     19  H   UNL     1      30.543  -7.692 -21.286  0.00  0.00    -0.084 HD
ENDROOT
BRANCH  17  22
ATOM     20  O   UNL     1      33.821 -17.749 -25.619  0.00  0.00    -0.240 OA
ATOM     21  O   UNL     1      35.285 -17.817 -23.862  0.00  0.00    -0.240 OA
ATOM     22  C   UNL     1      34.398 -17.289 -24.591  0.00  0.00    +0.392 C 
ENDBRANCH  17  22
BRANCH   5  23
ATOM     23  C   UNL     1      33.520 -12.596 -25.888  0.00  0.00    +0.098 C 
ATOM     24  C   UNL     1      33.330 -13.230 -27.251  0.00  0.00    +0.024 C 
ENDBRANCH   5  23
TORSDOF 2
ENDMDL
