MODEL 1
REMARK VINA RESULT:      -9.4      0.000      0.000
REMARK  Name = 7114
REMARK  2 active torsions:
REMARK  status: ('A' for Active; 'I' for Inactive)
REMARK    1  A    between atoms: C_1  and  C_7
REMARK    2  A    between atoms: C_4  and  N_15
REMARK                            x       y       z     vdW  Elec       q    Type
REMARK                         _______ _______ _______ _____ _____    ______ ____
ROOT
ATOM      1  C   UNL     1      34.631 -19.682 -21.053  0.00  0.00    +0.000 C 
ATOM      2  C   UNL     1      35.792 -20.277 -20.559  0.00  0.00    +0.002 C 
ATOM      3  C   UNL     1      33.381 -20.127 -20.623  0.00  0.00    +0.002 C 
ATOM      4  C   UNL     1      34.453 -21.763 -19.203  0.00  0.00    +0.143 C 
ATOM      5  C   UNL     1      35.703 -21.317 -19.634  0.00  0.00    +0.024 C 
ATOM      6  C   UNL     1      33.292 -21.167 -19.697  0.00  0.00    +0.024 C 
ENDROOT
BRANCH   1   7
ATOM      7  C   UNL     1      34.724 -18.602 -22.011  0.00  0.00    +0.000 C 
ATOM      8  C   UNL     1      34.768 -18.884 -23.377  0.00  0.00    +0.000 C 
ATOM      9  C   UNL     1      34.768 -17.279 -21.571  0.00  0.00    +0.000 C 
ATOM     10  C   UNL     1      34.858 -17.844 -24.302  0.00  0.00    +0.000 C 
ATOM     11  C   UNL     1      34.857 -16.239 -22.496  0.00  0.00    +0.000 C 
ATOM     12  C   UNL     1      34.902 -16.521 -23.861  0.00  0.00    +0.000 C 
ENDBRANCH   1   7
BRANCH   4  15
ATOM     13  O   UNL     1      33.556 -23.757 -18.472  0.00  0.00    -0.126 OA
ATOM     14  O   UNL     1      35.091 -22.787 -17.239  0.00  0.00    -0.126 OA
ATOM     15  N   UNL     1      34.362 -22.819 -18.260  0.00  0.00    +0.058 N 
ENDBRANCH   4  15
TORSDOF 2
ENDMDL
MODEL 2
REMARK VINA RESULT:      -9.3      0.066      1.249
REMARK  Name = 7114
REMARK  2 active torsions:
REMARK  status: ('A' for Active; 'I' for Inactive)
REMARK    1  A    between atoms: C_1  and  C_7
REMARK    2  A    between atoms: C_4  and  N_15
REMARK                            x       y       z     vdW  Elec       q    Type
REMARK                         _______ _______ _______ _____ _____    ______ ____
ROOT
ATOM      1  C   UNL     1      34.632 -19.704 -21.077  0.00  0.00    +0.000 C 
ATOM      2  C   UNL     1      35.793 -20.299 -20.585  0.00  0.00    +0.002 C 
ATOM      3  C   UNL     1      33.383 -20.135 -20.628  0.00  0.00    +0.002 C 
ATOM      4  C   UNL     1      34.459 -21.754 -19.192  0.00  0.00    +0.143 C 
ATOM      5  C   UNL     1      35.707 -21.324 -19.642  0.00  0.00    +0.024 C 
ATOM      6  C   UNL     1      33.297 -21.159 -19.684  0.00  0.00    +0.024 C 
ENDROOT
BRANCH   1   7
ATOM      7  C   UNL     1      34.721 -18.641 -22.054  0.00  0.00    +0.000 C 
ATOM      8  C   UNL     1      34.731 -17.310 -21.636  0.00  0.00    +0.000 C 
ATOM      9  C   UNL     1      34.799 -18.946 -23.413  0.00  0.00    +0.000 C 
ATOM     10  C   UNL     1      34.817 -16.284 -22.577  0.00  0.00    +0.000 C 
ATOM     11  C   UNL     1      34.885 -17.920 -24.354  0.00  0.00    +0.000 C 
ATOM     12  C   UNL     1      34.894 -16.589 -23.936  0.00  0.00    +0.000 C 
ENDBRANCH   1   7
BRANCH   4  15
ATOM     13  O   UNL     1      33.518 -23.701 -18.391  0.00  0.00    -0.126 OA
ATOM     14  O   UNL     1      35.149 -22.780 -17.246  0.00  0.00    -0.126 OA
ATOM     15  N   UNL     1      34.371 -22.794 -18.231  0.00  0.00    +0.058 N 
ENDBRANCH   4  15
TORSDOF 2
ENDMDL
MODEL 3
REMARK VINA RESULT:      -9.2      4.561      6.297
REMARK  Name = 7114
REMARK  2 active torsions:
REMARK  status: ('A' for Active; 'I' for Inactive)
REMARK    1  A    between atoms: C_1  and  C_7
REMARK    2  A    between atoms: C_4  and  N_15
REMARK                            x       y       z     vdW  Elec       q    Type
REMARK                         _______ _______ _______ _____ _____    ______ ____
ROOT
ATOM      1  C   UNL     1      34.669 -19.121 -21.679  0.00  0.00    +0.000 C 
ATOM      2  C   UNL     1      34.769 -19.465 -23.027  0.00  0.00    +0.002 C 
ATOM      3  C   UNL     1      34.523 -17.785 -21.309  0.00  0.00    +0.002 C 
ATOM      4  C   UNL     1      34.576 -17.134 -23.636  0.00  0.00    +0.143 C 
ATOM      5  C   UNL     1      34.723 -18.471 -24.006  0.00  0.00    +0.024 C 
ATOM      6  C   UNL     1      34.476 -16.791 -22.287  0.00  0.00    +0.024 C 
ENDROOT
BRANCH   1   7
ATOM      7  C   UNL     1      34.716 -20.152 -20.665  0.00  0.00    +0.000 C 
ATOM      8  C   UNL     1      35.946 -20.594 -20.177  0.00  0.00    +0.000 C 
ATOM      9  C   UNL     1      33.532 -20.704 -20.175  0.00  0.00    +0.000 C 
ATOM     10  C   UNL     1      35.992 -21.587 -19.199  0.00  0.00    +0.000 C 
ATOM     11  C   UNL     1      33.578 -21.697 -19.197  0.00  0.00    +0.000 C 
ATOM     12  C   UNL     1      34.808 -22.139 -18.709  0.00  0.00    +0.000 C 
ENDBRANCH   1   7
BRANCH   4  15
ATOM     13  O   UNL     1      34.820 -16.419 -25.814  0.00  0.00    -0.126 OA
ATOM     14  O   UNL     1      34.189 -14.961 -24.300  0.00  0.00    -0.126 OA
ATOM     15  N   UNL     1      34.526 -16.123 -24.631  0.00  0.00    +0.058 N 
ENDBRANCH   4  15
TORSDOF 2
ENDMDL
MODEL 4
REMARK VINA RESULT:      -9.1      4.566      6.295
REMARK  Name = 7114
REMARK  2 active torsions:
REMARK  status: ('A' for Active; 'I' for Inactive)
REMARK    1  A    between atoms: C_1  and  C_7
REMARK    2  A    between atoms: C_4  and  N_15
REMARK                            x       y       z     vdW  Elec       q    Type
REMARK                         _______ _______ _______ _____ _____    ______ ____
ROOT
ATOM      1  C   UNL     1      34.691 -19.115 -21.687  0.00  0.00    +0.000 C 
ATOM      2  C   UNL     1      34.754 -19.467 -23.035  0.00  0.00    +0.002 C 
ATOM      3  C   UNL     1      34.570 -17.775 -21.321  0.00  0.00    +0.002 C 
ATOM      4  C   UNL     1      34.573 -17.138 -23.652  0.00  0.00    +0.143 C 
ATOM      5  C   UNL     1      34.695 -18.478 -24.017  0.00  0.00    +0.024 C 
ATOM      6  C   UNL     1      34.510 -16.786 -22.303  0.00  0.00    +0.024 C 
ENDROOT
BRANCH   1   7
ATOM      7  C   UNL     1      34.752 -20.141 -20.668  0.00  0.00    +0.000 C 
ATOM      8  C   UNL     1      33.575 -20.715 -20.187  0.00  0.00    +0.000 C 
ATOM      9  C   UNL     1      35.985 -20.555 -20.167  0.00  0.00    +0.000 C 
ATOM     10  C   UNL     1      33.632 -21.704 -19.205  0.00  0.00    +0.000 C 
ATOM     11  C   UNL     1      36.043 -21.544 -19.184  0.00  0.00    +0.000 C 
ATOM     12  C   UNL     1      34.866 -22.118 -18.704  0.00  0.00    +0.000 C 
ENDBRANCH   1   7
BRANCH   4  15
ATOM     13  O   UNL     1      34.842 -16.420 -25.826  0.00  0.00    -0.126 OA
ATOM     14  O   UNL     1      34.123 -14.981 -24.332  0.00  0.00    -0.126 OA
ATOM     15  N   UNL     1      34.510 -16.132 -24.651  0.00  0.00    +0.058 N 
ENDBRANCH   4  15
TORSDOF 2
ENDMDL
MODEL 5
REMARK VINA RESULT:      -8.7      5.156      6.694
REMARK  Name = 7114
REMARK  2 active torsions:
REMARK  status: ('A' for Active; 'I' for Inactive)
REMARK    1  A    between atoms: C_1  and  C_7
REMARK    2  A    between atoms: C_4  and  N_15
REMARK                            x       y       z     vdW  Elec       q    Type
REMARK                         _______ _______ _______ _____ _____    ______ ____
ROOT
ATOM      1  C   UNL     1      34.805 -17.981 -22.544  0.00  0.00    +0.000 C 
ATOM      2  C   UNL     1      34.802 -18.304 -23.900  0.00  0.00    +0.002 C 
ATOM      3  C   UNL     1      34.433 -16.702 -22.130  0.00  0.00    +0.002 C 
ATOM      4  C   UNL     1      34.053 -16.069 -24.431  0.00  0.00    +0.143 C 
ATOM      5  C   UNL     1      34.426 -17.348 -24.844  0.00  0.00    +0.024 C 
ATOM      6  C   UNL     1      34.056 -15.746 -23.074  0.00  0.00    +0.024 C 
ENDROOT
BRANCH   1   7
ATOM      7  C   UNL     1      35.194 -18.973 -21.565  0.00  0.00    +0.000 C 
ATOM      8  C   UNL     1      34.237 -19.835 -21.028  0.00  0.00    +0.000 C 
ATOM      9  C   UNL     1      36.525 -19.068 -21.157  0.00  0.00    +0.000 C 
ATOM     10  C   UNL     1      34.611 -20.791 -20.084  0.00  0.00    +0.000 C 
ATOM     11  C   UNL     1      36.898 -20.024 -20.213  0.00  0.00    +0.000 C 
ATOM     12  C   UNL     1      35.942 -20.886 -19.677  0.00  0.00    +0.000 C 
ENDBRANCH   1   7
BRANCH   4  15
ATOM     13  O   UNL     1      33.717 -15.392 -26.610  0.00  0.00    -0.126 OA
ATOM     14  O   UNL     1      33.288 -13.968 -24.995  0.00  0.00    -0.126 OA
ATOM     15  N   UNL     1      33.668 -15.097 -25.391  0.00  0.00    +0.058 N 
ENDBRANCH   4  15
TORSDOF 2
ENDMDL
MODEL 6
REMARK VINA RESULT:      -8.5      1.201      2.084
REMARK  Name = 7114
REMARK  2 active torsions:
REMARK  status: ('A' for Active; 'I' for Inactive)
REMARK    1  A    between atoms: C_1  and  C_7
REMARK    2  A    between atoms: C_4  and  N_15
REMARK                            x       y       z     vdW  Elec       q    Type
REMARK                         _______ _______ _______ _____ _____    ______ ____
ROOT
ATOM      1  C   UNL     1      35.116 -18.955 -21.822  0.00  0.00    +0.000 C 
ATOM      2  C   UNL     1      34.059 -19.622 -21.204  0.00  0.00    +0.002 C 
ATOM      3  C   UNL     1      36.424 -19.168 -21.388  0.00  0.00    +0.002 C 
ATOM      4  C   UNL     1      35.619 -20.717 -19.718  0.00  0.00    +0.143 C 
ATOM      5  C   UNL     1      34.310 -20.503 -20.152  0.00  0.00    +0.024 C 
ATOM      6  C   UNL     1      36.676 -20.049 -20.337  0.00  0.00    +0.024 C 
ENDROOT
BRANCH   1   7
ATOM      7  C   UNL     1      34.855 -18.042 -22.913  0.00  0.00    +0.000 C 
ATOM      8  C   UNL     1      34.779 -18.522 -24.221  0.00  0.00    +0.000 C 
ATOM      9  C   UNL     1      34.681 -16.681 -22.659  0.00  0.00    +0.000 C 
ATOM     10  C   UNL     1      34.527 -17.642 -25.274  0.00  0.00    +0.000 C 
ATOM     11  C   UNL     1      34.430 -15.802 -23.712  0.00  0.00    +0.000 C 
ATOM     12  C   UNL     1      34.353 -16.282 -25.020  0.00  0.00    +0.000 C 
ENDBRANCH   1   7
BRANCH   4  15
ATOM     13  O   UNL     1      36.702 -21.290 -17.765  0.00  0.00    -0.126 OA
ATOM     14  O   UNL     1      35.265 -22.713 -18.619  0.00  0.00    -0.126 OA
ATOM     15  N   UNL     1      35.874 -21.616 -18.650  0.00  0.00    +0.058 N 
ENDBRANCH   4  15
TORSDOF 2
ENDMDL
MODEL 7
REMARK VINA RESULT:      -8.4      5.142      6.769
REMARK  Name = 7114
REMARK  2 active torsions:
REMARK  status: ('A' for Active; 'I' for Inactive)
REMARK    1  A    between atoms: C_1  and  C_7
REMARK    2  A    between atoms: C_4  and  N_15
REMARK                            x       y       z     vdW  Elec       q    Type
REMARK                         _______ _______ _______ _____ _____    ______ ____
ROOT
ATOM      1  C   UNL     1      34.627 -17.611 -21.942  0.00  0.00    +0.000 C 
ATOM      2  C   UNL     1      34.082 -16.510 -21.283  0.00  0.00    +0.002 C 
ATOM      3  C   UNL     1      34.874 -17.552 -23.313  0.00  0.00    +0.002 C 
ATOM      4  C   UNL     1      34.032 -15.287 -23.367  0.00  0.00    +0.143 C 
ATOM      5  C   UNL     1      33.785 -15.348 -21.995  0.00  0.00    +0.024 C 
ATOM      6  C   UNL     1      34.578 -16.389 -24.025  0.00  0.00    +0.024 C 
ENDROOT
BRANCH   1   7
ATOM      7  C   UNL     1      34.937 -18.816 -21.203  0.00  0.00    +0.000 C 
ATOM      8  C   UNL     1      36.265 -19.147 -20.934  0.00  0.00    +0.000 C 
ATOM      9  C   UNL     1      33.908 -19.646 -20.759  0.00  0.00    +0.000 C 
ATOM     10  C   UNL     1      36.564 -20.308 -20.222  0.00  0.00    +0.000 C 
ATOM     11  C   UNL     1      34.207 -20.808 -20.046  0.00  0.00    +0.000 C 
ATOM     12  C   UNL     1      35.535 -21.139 -19.778  0.00  0.00    +0.000 C 
ENDBRANCH   1   7
BRANCH   4  15
ATOM     13  O   UNL     1      33.990 -12.991 -23.572  0.00  0.00    -0.126 OA
ATOM     14  O   UNL     1      33.218 -14.203 -25.231  0.00  0.00    -0.126 OA
ATOM     15  N   UNL     1      33.732 -14.104 -24.091  0.00  0.00    +0.058 N 
ENDBRANCH   4  15
TORSDOF 2
ENDMDL
MODEL 8
REMARK VINA RESULT:      -8.1      5.174      7.273
REMARK  Name = 7114
REMARK  2 active torsions:
REMARK  status: ('A' for Active; 'I' for Inactive)
REMARK    1  A    between atoms: C_1  and  C_7
REMARK    2  A    between atoms: C_4  and  N_15
REMARK                            x       y       z     vdW  Elec       q    Type
REMARK                         _______ _______ _______ _____ _____    ______ ____
ROOT
ATOM      1  C   UNL     1      35.502 -23.146 -15.228  0.00  0.00    +0.000 C 
ATOM      2  C   UNL     1      34.450 -23.763 -14.552  0.00  0.00    +0.002 C 
ATOM      3  C   UNL     1      36.716 -22.925 -14.578  0.00  0.00    +0.002 C 
ATOM      4  C   UNL     1      35.827 -23.941 -12.574  0.00  0.00    +0.143 C 
ATOM      5  C   UNL     1      34.613 -24.161 -13.224  0.00  0.00    +0.024 C 
ATOM      6  C   UNL     1      36.879 -23.324 -13.251  0.00  0.00    +0.024 C 
ENDROOT
BRANCH   1   7
ATOM      7  C   UNL     1      35.334 -22.735 -16.605  0.00  0.00    +0.000 C 
ATOM      8  C   UNL     1      36.368 -22.072 -17.266  0.00  0.00    +0.000 C 
ATOM      9  C   UNL     1      34.138 -23.002 -17.272  0.00  0.00    +0.000 C 
ATOM     10  C   UNL     1      36.207 -21.675 -18.593  0.00  0.00    +0.000 C 
ATOM     11  C   UNL     1      33.977 -22.605 -18.600  0.00  0.00    +0.000 C 
ATOM     12  C   UNL     1      35.011 -21.941 -19.261  0.00  0.00    +0.000 C 
ENDBRANCH   1   7
BRANCH   4  15
ATOM     13  O   UNL     1      36.942 -23.870 -10.557  0.00  0.00    -0.126 OA
ATOM     14  O   UNL     1      35.187 -25.175 -10.735  0.00  0.00    -0.126 OA
ATOM     15  N   UNL     1      35.994 -24.348 -11.225  0.00  0.00    +0.058 N 
ENDBRANCH   4  15
TORSDOF 2
ENDMDL
MODEL 9
REMARK VINA RESULT:      -8.1      2.700      4.217
REMARK  Name = 7114
REMARK  2 active torsions:
REMARK  status: ('A' for Active; 'I' for Inactive)
REMARK    1  A    between atoms: C_1  and  C_7
REMARK    2  A    between atoms: C_4  and  N_15
REMARK                            x       y       z     vdW  Elec       q    Type
REMARK                         _______ _______ _______ _____ _____    ______ ____
ROOT
ATOM      1  C   UNL     1      34.511 -16.680 -23.276  0.00  0.00    +0.000 C 
ATOM      2  C   UNL     1      34.756 -17.959 -23.775  0.00  0.00    +0.002 C 
ATOM      3  C   UNL     1      34.718 -16.408 -21.923  0.00  0.00    +0.002 C 
ATOM      4  C   UNL     1      35.415 -18.694 -21.569  0.00  0.00    +0.143 C 
ATOM      5  C   UNL     1      35.208 -18.966 -22.922  0.00  0.00    +0.024 C 
ATOM      6  C   UNL     1      35.170 -17.414 -21.071  0.00  0.00    +0.024 C 
ENDROOT
BRANCH   1   7
ATOM      7  C   UNL     1      34.044 -15.635 -24.161  0.00  0.00    +0.000 C 
ATOM      8  C   UNL     1      33.952 -14.322 -23.701  0.00  0.00    +0.000 C 
ATOM      9  C   UNL     1      33.685 -15.941 -25.473  0.00  0.00    +0.000 C 
ATOM     10  C   UNL     1      33.501 -13.314 -24.553  0.00  0.00    +0.000 C 
ATOM     11  C   UNL     1      33.234 -14.933 -26.326  0.00  0.00    +0.000 C 
ATOM     12  C   UNL     1      33.142 -13.619 -25.866  0.00  0.00    +0.000 C 
ENDBRANCH   1   7
BRANCH   4  15
ATOM     13  O   UNL     1      35.194 -20.762 -20.574  0.00  0.00    -0.126 OA
ATOM     14  O   UNL     1      36.958 -19.551 -20.087  0.00  0.00    -0.126 OA
ATOM     15  N   UNL     1      35.878 -19.718 -20.702  0.00  0.00    +0.058 N 
ENDBRANCH   4  15
TORSDOF 2
ENDMDL
