MODEL 1
REMARK VINA RESULT:      -5.3      0.000      0.000
REMARK  Name = 99288
REMARK  5 active torsions:
REMARK  status: ('A' for Active; 'I' for Inactive)
REMARK    1  A    between atoms: CA_1  and  N_2
REMARK    2  A    between atoms: CA_1  and  C_7
REMARK    3  A    between atoms: CA_1  and  CB_10
REMARK    4  A    between atoms: C_7  and  O_8
REMARK    5  A    between atoms: CB_10  and  CG1_12
REMARK                            x       y       z     vdW  Elec       q    Type
REMARK                         _______ _______ _______ _____ _____    ______ ____
ROOT
ATOM      1  CA  ILE A   1      38.927 -25.165 -14.392  0.00  0.00    +0.036 C 
ENDROOT
BRANCH   1   2
ATOM      2  N   ILE A   1      37.918 -25.668 -15.331  0.00  0.00    +0.389 N 
ATOM      3  H1  ILE A   1      37.568 -26.568 -15.004  0.00  0.00    -0.088 HD
ATOM      4  H2  ILE A   1      38.340 -25.782 -16.253  0.00  0.00    -0.088 HD
ATOM      5  H3  ILE A   1      37.147 -25.003 -15.390  0.00  0.00    -0.088 HD
ENDBRANCH   1   2
BRANCH   1   7
ATOM      6  OXT ILE A   1      40.946 -26.450 -13.916  0.00  0.00    -0.253 OA
ATOM      7  C   ILE A   1      40.210 -25.911 -14.732  0.00  0.00    +0.293 C 
BRANCH   7   8
ATOM      8  O   ILE A   1      40.452 -25.941 -16.069  0.00  0.00    -0.482 OA
ATOM      9  H   ILE A   1      41.334 -25.948 -16.385  0.00  0.00    +0.295 HD
ENDBRANCH   7   8
ENDBRANCH   1   7
BRANCH   1  10
ATOM     10  CB  ILE A   1      38.524 -25.414 -12.918  0.00  0.00    -0.010 C 
ATOM     11  CG2 ILE A   1      37.266 -26.293 -12.826  0.00  0.00    -0.002 C 
BRANCH  10  12
ATOM     12  CG1 ILE A   1      38.326 -24.123 -12.088  0.00  0.00    -0.002 C 
ATOM     13  CD1 ILE A   1      37.126 -23.274 -12.487  0.00  0.00    -0.000 C 
ENDBRANCH  10  12
ENDBRANCH   1  10
TORSDOF 5
ENDMDL
MODEL 2
REMARK VINA RESULT:      -5.2     10.861     11.666
REMARK  Name = 99288
REMARK  5 active torsions:
REMARK  status: ('A' for Active; 'I' for Inactive)
REMARK    1  A    between atoms: CA_1  and  N_2
REMARK    2  A    between atoms: CA_1  and  C_7
REMARK    3  A    between atoms: CA_1  and  CB_10
REMARK    4  A    between atoms: C_7  and  O_8
REMARK    5  A    between atoms: CB_10  and  CG1_12
REMARK                            x       y       z     vdW  Elec       q    Type
REMARK                         _______ _______ _______ _____ _____    ______ ____
ROOT
ATOM      1  CA  ILE A   1      40.963 -14.420 -15.990  0.00  0.00    +0.036 C 
ENDROOT
BRANCH   1   2
ATOM      2  N   ILE A   1      41.249 -13.587 -14.817  0.00  0.00    +0.389 N 
ATOM      3  H1  ILE A   1      42.221 -13.719 -14.536  0.00  0.00    -0.088 HD
ATOM      4  H2  ILE A   1      40.633 -13.857 -14.050  0.00  0.00    -0.088 HD
ATOM      5  H3  ILE A   1      41.092 -12.606 -15.050  0.00  0.00    -0.088 HD
ENDBRANCH   1   2
BRANCH   1   7
ATOM      6  OXT ILE A   1      42.126 -16.480 -15.393  0.00  0.00    -0.253 OA
ATOM      7  C   ILE A   1      41.077 -15.859 -15.508  0.00  0.00    +0.293 C 
BRANCH   7   8
ATOM      8  O   ILE A   1      39.870 -16.393 -15.183  0.00  0.00    -0.482 OA
ATOM      9  H   ILE A   1      39.723 -16.729 -14.321  0.00  0.00    +0.295 HD
ENDBRANCH   7   8
ENDBRANCH   1   7
BRANCH   1  10
ATOM     10  CB  ILE A   1      41.955 -14.151 -17.149  0.00  0.00    -0.010 C 
ATOM     11  CG2 ILE A   1      42.167 -12.644 -17.362  0.00  0.00    -0.002 C 
BRANCH  10  12
ATOM     12  CG1 ILE A   1      41.563 -14.823 -18.487  0.00  0.00    -0.002 C 
ATOM     13  CD1 ILE A   1      42.439 -15.999 -18.902  0.00  0.00    -0.000 C 
ENDBRANCH  10  12
ENDBRANCH   1  10
TORSDOF 5
ENDMDL
MODEL 3
REMARK VINA RESULT:      -5.1     10.907     11.642
REMARK  Name = 99288
REMARK  5 active torsions:
REMARK  status: ('A' for Active; 'I' for Inactive)
REMARK    1  A    between atoms: CA_1  and  N_2
REMARK    2  A    between atoms: CA_1  and  C_7
REMARK    3  A    between atoms: CA_1  and  CB_10
REMARK    4  A    between atoms: C_7  and  O_8
REMARK    5  A    between atoms: CB_10  and  CG1_12
REMARK                            x       y       z     vdW  Elec       q    Type
REMARK                         _______ _______ _______ _____ _____    ______ ____
ROOT
ATOM      1  CA  ILE A   1      34.847 -17.918 -22.254  0.00  0.00    +0.036 C 
ENDROOT
BRANCH   1   2
ATOM      2  N   ILE A   1      36.075 -18.219 -22.997  0.00  0.00    +0.389 N 
ATOM      3  H1  ILE A   1      36.776 -18.592 -22.357  0.00  0.00    -0.088 HD
ATOM      4  H2  ILE A   1      36.430 -17.365 -23.428  0.00  0.00    -0.088 HD
ATOM      5  H3  ILE A   1      35.875 -18.907 -23.722  0.00  0.00    -0.088 HD
ENDBRANCH   1   2
BRANCH   1   7
ATOM      6  OXT ILE A   1      34.965 -16.072 -20.663  0.00  0.00    -0.253 OA
ATOM      7  C   ILE A   1      34.975 -16.463 -21.823  0.00  0.00    +0.293 C 
BRANCH   7   8
ATOM      8  O   ILE A   1      35.133 -15.622 -22.879  0.00  0.00    -0.482 OA
ATOM      9  H   ILE A   1      34.493 -15.605 -23.563  0.00  0.00    +0.295 HD
ENDBRANCH   7   8
ENDBRANCH   1   7
BRANCH   1  10
ATOM     10  CB  ILE A   1      34.671 -18.840 -21.023  0.00  0.00    -0.010 C 
ATOM     11  CG2 ILE A   1      35.886 -19.764 -20.842  0.00  0.00    -0.002 C 
BRANCH  10  12
ATOM     12  CG1 ILE A   1      33.370 -19.677 -21.038  0.00  0.00    -0.002 C 
ATOM     13  CD1 ILE A   1      33.283 -20.758 -19.968  0.00  0.00    -0.000 C 
ENDBRANCH  10  12
ENDBRANCH   1  10
TORSDOF 5
ENDMDL
MODEL 4
REMARK VINA RESULT:      -5.0     10.129     10.854
REMARK  Name = 99288
REMARK  5 active torsions:
REMARK  status: ('A' for Active; 'I' for Inactive)
REMARK    1  A    between atoms: CA_1  and  N_2
REMARK    2  A    between atoms: CA_1  and  C_7
REMARK    3  A    between atoms: CA_1  and  CB_10
REMARK    4  A    between atoms: C_7  and  O_8
REMARK    5  A    between atoms: CB_10  and  CG1_12
REMARK                            x       y       z     vdW  Elec       q    Type
REMARK                         _______ _______ _______ _____ _____    ______ ____
ROOT
ATOM      1  CA  ILE A   1      35.830 -18.577 -21.532  0.00  0.00    +0.036 C 
ENDROOT
BRANCH   1   2
ATOM      2  N   ILE A   1      35.255 -17.469 -20.762  0.00  0.00    +0.389 N 
ATOM      3  H1  ILE A   1      35.533 -16.583 -21.182  0.00  0.00    -0.088 HD
ATOM      4  H2  ILE A   1      35.593 -17.511 -19.800  0.00  0.00    -0.088 HD
ATOM      5  H3  ILE A   1      34.237 -17.544 -20.767  0.00  0.00    -0.088 HD
ENDBRANCH   1   2
BRANCH   1   7
ATOM      6  OXT ILE A   1      35.254 -19.023 -23.860  0.00  0.00    -0.253 OA
ATOM      7  C   ILE A   1      35.592 -18.227 -22.994  0.00  0.00    +0.293 C 
BRANCH   7   8
ATOM      8  O   ILE A   1      35.771 -16.903 -23.245  0.00  0.00    -0.482 OA
ATOM      9  H   ILE A   1      35.368 -16.509 -23.993  0.00  0.00    +0.295 HD
ENDBRANCH   7   8
ENDBRANCH   1   7
BRANCH   1  10
ATOM     10  CB  ILE A   1      35.171 -19.934 -21.180  0.00  0.00    -0.010 C 
ATOM     11  CG2 ILE A   1      33.710 -19.746 -20.743  0.00  0.00    -0.002 C 
BRANCH  10  12
ATOM     12  CG1 ILE A   1      35.939 -20.754 -20.115  0.00  0.00    -0.002 C 
ATOM     13  CD1 ILE A   1      35.086 -21.724 -19.308  0.00  0.00    -0.000 C 
ENDBRANCH  10  12
ENDBRANCH   1  10
TORSDOF 5
ENDMDL
MODEL 5
REMARK VINA RESULT:      -4.9      8.370      9.140
REMARK  Name = 99288
REMARK  5 active torsions:
REMARK  status: ('A' for Active; 'I' for Inactive)
REMARK    1  A    between atoms: CA_1  and  N_2
REMARK    2  A    between atoms: CA_1  and  C_7
REMARK    3  A    between atoms: CA_1  and  CB_10
REMARK    4  A    between atoms: C_7  and  O_8
REMARK    5  A    between atoms: CB_10  and  CG1_12
REMARK                            x       y       z     vdW  Elec       q    Type
REMARK                         _______ _______ _______ _____ _____    ______ ____
ROOT
ATOM      1  CA  ILE A   1      30.237 -25.114 -14.941  0.00  0.00    +0.036 C 
ENDROOT
BRANCH   1   2
ATOM      2  N   ILE A   1      28.912 -25.464 -14.418  0.00  0.00    +0.389 N 
ATOM      3  H1  ILE A   1      28.651 -26.393 -14.746  0.00  0.00    -0.088 HD
ATOM      4  H2  ILE A   1      28.226 -24.783 -14.746  0.00  0.00    -0.088 HD
ATOM      5  H3  ILE A   1      28.937 -25.457 -13.398  0.00  0.00    -0.088 HD
ENDBRANCH   1   2
BRANCH   1   7
ATOM      6  OXT ILE A   1      30.787 -24.126 -12.779  0.00  0.00    -0.253 OA
ATOM      7  C   ILE A   1      31.103 -24.846 -13.718  0.00  0.00    +0.293 C 
BRANCH   7   8
ATOM      8  O   ILE A   1      32.281 -25.521 -13.760  0.00  0.00    -0.482 OA
ATOM      9  H   ILE A   1      32.550 -26.039 -13.027  0.00  0.00    +0.295 HD
ENDBRANCH   7   8
ENDBRANCH   1   7
BRANCH   1  10
ATOM     10  CB  ILE A   1      30.188 -23.869 -15.861  0.00  0.00    -0.010 C 
ATOM     11  CG2 ILE A   1      31.585 -23.252 -16.036  0.00  0.00    -0.002 C 
BRANCH  10  12
ATOM     12  CG1 ILE A   1      29.185 -22.783 -15.406  0.00  0.00    -0.002 C 
ATOM     13  CD1 ILE A   1      28.058 -22.490 -16.389  0.00  0.00    -0.000 C 
ENDBRANCH  10  12
ENDBRANCH   1  10
TORSDOF 5
ENDMDL
MODEL 6
REMARK VINA RESULT:      -4.9     11.644     12.406
REMARK  Name = 99288
REMARK  5 active torsions:
REMARK  status: ('A' for Active; 'I' for Inactive)
REMARK    1  A    between atoms: CA_1  and  N_2
REMARK    2  A    between atoms: CA_1  and  C_7
REMARK    3  A    between atoms: CA_1  and  CB_10
REMARK    4  A    between atoms: C_7  and  O_8
REMARK    5  A    between atoms: CB_10  and  CG1_12
REMARK                            x       y       z     vdW  Elec       q    Type
REMARK                         _______ _______ _______ _____ _____    ______ ____
ROOT
ATOM      1  CA  ILE A   1      35.288 -18.662 -23.249  0.00  0.00    +0.036 C 
ENDROOT
BRANCH   1   2
ATOM      2  N   ILE A   1      36.595 -18.157 -22.816  0.00  0.00    +0.389 N 
ATOM      3  H1  ILE A   1      37.159 -17.927 -23.634  0.00  0.00    -0.088 HD
ATOM      4  H2  ILE A   1      37.071 -18.873 -22.266  0.00  0.00    -0.088 HD
ATOM      5  H3  ILE A   1      36.465 -17.322 -22.246  0.00  0.00    -0.088 HD
ENDBRANCH   1   2
BRANCH   1   7
ATOM      6  OXT ILE A   1      34.078 -18.101 -25.292  0.00  0.00    -0.253 OA
ATOM      7  C   ILE A   1      34.879 -17.783 -24.423  0.00  0.00    +0.293 C 
BRANCH   7   8
ATOM      8  O   ILE A   1      35.486 -16.568 -24.396  0.00  0.00    -0.482 OA
ATOM      9  H   ILE A   1      36.212 -16.419 -23.821  0.00  0.00    +0.295 HD
ENDBRANCH   7   8
ENDBRANCH   1   7
BRANCH   1  10
ATOM     10  CB  ILE A   1      34.233 -18.592 -22.118  0.00  0.00    -0.010 C 
ATOM     11  CG2 ILE A   1      34.366 -17.288 -21.314  0.00  0.00    -0.002 C 
BRANCH  10  12
ATOM     12  CG1 ILE A   1      34.250 -19.806 -21.159  0.00  0.00    -0.002 C 
ATOM     13  CD1 ILE A   1      32.918 -20.120 -20.489  0.00  0.00    -0.000 C 
ENDBRANCH  10  12
ENDBRANCH   1  10
TORSDOF 5
ENDMDL
MODEL 7
REMARK VINA RESULT:      -4.8      9.216     10.171
REMARK  Name = 99288
REMARK  5 active torsions:
REMARK  status: ('A' for Active; 'I' for Inactive)
REMARK    1  A    between atoms: CA_1  and  N_2
REMARK    2  A    between atoms: CA_1  and  C_7
REMARK    3  A    between atoms: CA_1  and  CB_10
REMARK    4  A    between atoms: C_7  and  O_8
REMARK    5  A    between atoms: CB_10  and  CG1_12
REMARK                            x       y       z     vdW  Elec       q    Type
REMARK                         _______ _______ _______ _____ _____    ______ ____
ROOT
ATOM      1  CA  ILE A   1      28.927 -23.488 -15.440  0.00  0.00    +0.036 C 
ENDROOT
BRANCH   1   2
ATOM      2  N   ILE A   1      29.105 -24.942 -15.512  0.00  0.00    +0.389 N 
ATOM      3  H1  ILE A   1      29.891 -25.158 -16.125  0.00  0.00    -0.088 HD
ATOM      4  H2  ILE A   1      28.257 -25.371 -15.883  0.00  0.00    -0.088 HD
ATOM      5  H3  ILE A   1      29.291 -25.308 -14.578  0.00  0.00    -0.088 HD
ENDBRANCH   1   2
BRANCH   1   7
ATOM      6  OXT ILE A   1      27.802 -23.893 -17.567  0.00  0.00    -0.253 OA
ATOM      7  C   ILE A   1      28.182 -23.104 -16.711  0.00  0.00    +0.293 C 
BRANCH   7   8
ATOM      8  O   ILE A   1      27.952 -21.767 -16.792  0.00  0.00    -0.482 OA
ATOM      9  H   ILE A   1      28.466 -21.238 -17.370  0.00  0.00    +0.295 HD
ENDBRANCH   7   8
ENDBRANCH   1   7
BRANCH   1  10
ATOM     10  CB  ILE A   1      30.280 -22.740 -15.351  0.00  0.00    -0.010 C 
ATOM     11  CG2 ILE A   1      31.129 -22.974 -16.610  0.00  0.00    -0.002 C 
BRANCH  10  12
ATOM     12  CG1 ILE A   1      31.108 -23.075 -14.087  0.00  0.00    -0.002 C 
ATOM     13  CD1 ILE A   1      32.549 -23.490 -14.349  0.00  0.00    -0.000 C 
ENDBRANCH  10  12
ENDBRANCH   1  10
TORSDOF 5
ENDMDL
MODEL 8
REMARK VINA RESULT:      -4.8      8.270      9.028
REMARK  Name = 99288
REMARK  5 active torsions:
REMARK  status: ('A' for Active; 'I' for Inactive)
REMARK    1  A    between atoms: CA_1  and  N_2
REMARK    2  A    between atoms: CA_1  and  C_7
REMARK    3  A    between atoms: CA_1  and  CB_10
REMARK    4  A    between atoms: C_7  and  O_8
REMARK    5  A    between atoms: CB_10  and  CG1_12
REMARK                            x       y       z     vdW  Elec       q    Type
REMARK                         _______ _______ _______ _____ _____    ______ ____
ROOT
ATOM      1  CA  ILE A   1      34.880 -21.406 -18.996  0.00  0.00    +0.036 C 
ENDROOT
BRANCH   1   2
ATOM      2  N   ILE A   1      36.046 -21.995 -18.330  0.00  0.00    +0.389 N 
ATOM      3  H1  ILE A   1      35.752 -22.806 -17.785  0.00  0.00    -0.088 HD
ATOM      4  H2  ILE A   1      36.469 -21.304 -17.710  0.00  0.00    -0.088 HD
ATOM      5  H3  ILE A   1      36.727 -22.285 -19.031  0.00  0.00    -0.088 HD
ENDBRANCH   1   2
BRANCH   1   7
ATOM      6  OXT ILE A   1      34.154 -23.656 -19.601  0.00  0.00    -0.253 OA
ATOM      7  C   ILE A   1      33.883 -22.545 -19.162  0.00  0.00    +0.293 C 
BRANCH   7   8
ATOM      8  O   ILE A   1      32.637 -22.208 -18.739  0.00  0.00    -0.482 OA
ATOM      9  H   ILE A   1      31.897 -22.364 -19.292  0.00  0.00    +0.295 HD
ENDBRANCH   7   8
ENDBRANCH   1   7
BRANCH   1  10
ATOM     10  CB  ILE A   1      35.244 -20.793 -20.371  0.00  0.00    -0.010 C 
ATOM     11  CG2 ILE A   1      36.610 -20.090 -20.323  0.00  0.00    -0.002 C 
BRANCH  10  12
ATOM     12  CG1 ILE A   1      34.175 -19.830 -20.939  0.00  0.00    -0.002 C 
ATOM     13  CD1 ILE A   1      34.491 -19.250 -22.312  0.00  0.00    -0.000 C 
ENDBRANCH  10  12
ENDBRANCH   1  10
TORSDOF 5
ENDMDL
MODEL 9
REMARK VINA RESULT:      -4.7     10.597     11.331
REMARK  Name = 99288
REMARK  5 active torsions:
REMARK  status: ('A' for Active; 'I' for Inactive)
REMARK    1  A    between atoms: CA_1  and  N_2
REMARK    2  A    between atoms: CA_1  and  C_7
REMARK    3  A    between atoms: CA_1  and  CB_10
REMARK    4  A    between atoms: C_7  and  O_8
REMARK    5  A    between atoms: CB_10  and  CG1_12
REMARK                            x       y       z     vdW  Elec       q    Type
REMARK                         _______ _______ _______ _____ _____    ______ ____
ROOT
ATOM      1  CA  ILE A   1      34.706 -18.124 -22.306  0.00  0.00    +0.036 C 
ENDROOT
BRANCH   1   2
ATOM      2  N   ILE A   1      36.042 -17.919 -22.877  0.00  0.00    +0.389 N 
ATOM      3  H1  ILE A   1      35.956 -17.677 -23.864  0.00  0.00    -0.088 HD
ATOM      4  H2  ILE A   1      36.587 -18.776 -22.782  0.00  0.00    -0.088 HD
ATOM      5  H3  ILE A   1      36.511 -17.162 -22.380  0.00  0.00    -0.088 HD
ENDBRANCH   1   2
BRANCH   1   7
ATOM      6  OXT ILE A   1      35.301 -16.779 -20.359  0.00  0.00    -0.253 OA
ATOM      7  C   ILE A   1      34.526 -17.017 -21.277  0.00  0.00    +0.293 C 
BRANCH   7   8
ATOM      8  O   ILE A   1      33.403 -16.284 -21.496  0.00  0.00    -0.482 OA
ATOM      9  H   ILE A   1      33.462 -15.457 -21.935  0.00  0.00    +0.295 HD
ENDBRANCH   7   8
ENDBRANCH   1   7
BRANCH   1  10
ATOM     10  CB  ILE A   1      34.565 -19.517 -21.643  0.00  0.00    -0.010 C 
ATOM     11  CG2 ILE A   1      33.271 -19.611 -20.818  0.00  0.00    -0.002 C 
BRANCH  10  12
ATOM     12  CG1 ILE A   1      35.776 -19.931 -20.774  0.00  0.00    -0.002 C 
ATOM     13  CD1 ILE A   1      35.511 -21.066 -19.793  0.00  0.00    -0.000 C 
ENDBRANCH  10  12
ENDBRANCH   1  10
TORSDOF 5
ENDMDL
