MODEL 1
REMARK VINA RESULT:     -10.3      0.000      0.000
REMARK  Name = 91469
REMARK  3 active torsions:
REMARK  status: ('A' for Active; 'I' for Inactive)
REMARK    1  A    between atoms: C_2  and  C_11
REMARK    2  A    between atoms: C_10  and  O_19
REMARK    3  A    between atoms: C_16  and  O_17
REMARK                            x       y       z     vdW  Elec       q    Type
REMARK                         _______ _______ _______ _____ _____    ______ ____
ROOT
ATOM      1  O   UNL     1      36.756 -20.079 -20.132  0.00  0.00    -0.475 OA
ATOM      2  C   UNL     1      35.321 -19.522 -22.043  0.00  0.00    +0.070 C 
ATOM      3  C   UNL     1      34.061 -19.987 -21.302  0.00  0.00    +0.038 C 
ATOM      4  C   UNL     1      36.336 -19.025 -21.008  0.00  0.00    +0.210 C 
ATOM      5  C   UNL     1      34.432 -20.832 -20.114  0.00  0.00    +0.012 C 
ATOM      6  C   UNL     1      35.735 -20.821 -19.598  0.00  0.00    +0.138 C 
ATOM      7  C   UNL     1      33.458 -21.626 -19.494  0.00  0.00    +0.002 C 
ATOM      8  C   UNL     1      36.064 -21.624 -18.502  0.00  0.00    +0.073 C 
ATOM      9  C   UNL     1      33.787 -22.415 -18.391  0.00  0.00    +0.036 C 
ATOM     10  C   UNL     1      35.090 -22.417 -17.898  0.00  0.00    +0.137 C 
ENDROOT
BRANCH   2  11
ATOM     11  C   UNL     1      35.004 -18.494 -23.109  0.00  0.00    -0.018 C 
ATOM     12  C   UNL     1      34.559 -18.908 -24.365  0.00  0.00    -0.001 C 
ATOM     13  C   UNL     1      35.155 -17.136 -22.835  0.00  0.00    -0.001 C 
ATOM     14  C   UNL     1      34.267 -17.962 -25.346  0.00  0.00    +0.036 C 
ATOM     15  C   UNL     1      34.863 -16.190 -23.818  0.00  0.00    +0.036 C 
ATOM     16  C   UNL     1      34.419 -16.603 -25.073  0.00  0.00    +0.134 C 
BRANCH  16  17
ATOM     17  O   UNL     1      34.134 -15.680 -26.033  0.00  0.00    -0.506 OA
ATOM     18  H   UNL     1      33.944 -15.957 -26.907  0.00  0.00    +0.292 HD
ENDBRANCH  16  17
ENDBRANCH   2  11
BRANCH  10  19
ATOM     19  O   UNL     1      35.412 -23.193 -16.827  0.00  0.00    -0.505 OA
ATOM     20  H   UNL     1      34.738 -23.624 -16.341  0.00  0.00    +0.292 HD
ENDBRANCH  10  19
TORSDOF 3
ENDMDL
MODEL 2
REMARK VINA RESULT:      -9.6      1.859      7.067
REMARK  Name = 91469
REMARK  3 active torsions:
REMARK  status: ('A' for Active; 'I' for Inactive)
REMARK    1  A    between atoms: C_2  and  C_11
REMARK    2  A    between atoms: C_10  and  O_19
REMARK    3  A    between atoms: C_16  and  O_17
REMARK                            x       y       z     vdW  Elec       q    Type
REMARK                         _______ _______ _______ _____ _____    ______ ____
ROOT
ATOM      1  O   UNL     1      34.873 -17.549 -23.782  0.00  0.00    -0.475 OA
ATOM      2  C   UNL     1      34.891 -18.518 -21.527  0.00  0.00    +0.070 C 
ATOM      3  C   UNL     1      33.997 -17.399 -20.979  0.00  0.00    +0.038 C 
ATOM      4  C   UNL     1      34.564 -18.718 -23.011  0.00  0.00    +0.210 C 
ATOM      5  C   UNL     1      33.973 -16.233 -21.929  0.00  0.00    +0.012 C 
ATOM      6  C   UNL     1      34.395 -16.375 -23.259  0.00  0.00    +0.138 C 
ATOM      7  C   UNL     1      33.500 -14.989 -21.493  0.00  0.00    +0.002 C 
ATOM      8  C   UNL     1      34.379 -15.277 -24.123  0.00  0.00    +0.073 C 
ATOM      9  C   UNL     1      33.472 -13.898 -22.363  0.00  0.00    +0.036 C 
ATOM     10  C   UNL     1      33.915 -14.042 -23.675  0.00  0.00    +0.137 C 
ENDROOT
BRANCH   2  11
ATOM     11  C   UNL     1      34.768 -19.791 -20.713  0.00  0.00    -0.018 C 
ATOM     12  C   UNL     1      33.507 -20.275 -20.366  0.00  0.00    -0.001 C 
ATOM     13  C   UNL     1      35.914 -20.475 -20.313  0.00  0.00    -0.001 C 
ATOM     14  C   UNL     1      33.393 -21.446 -19.618  0.00  0.00    +0.036 C 
ATOM     15  C   UNL     1      35.799 -21.646 -19.564  0.00  0.00    +0.036 C 
ATOM     16  C   UNL     1      34.539 -22.132 -19.216  0.00  0.00    +0.134 C 
BRANCH  16  17
ATOM     17  O   UNL     1      34.428 -23.274 -18.484  0.00  0.00    -0.506 OA
ATOM     18  H   UNL     1      34.830 -23.331 -17.640  0.00  0.00    +0.292 HD
ENDBRANCH  16  17
ENDBRANCH   2  11
BRANCH  10  19
ATOM     19  O   UNL     1      33.894 -12.975 -24.521  0.00  0.00    -0.505 OA
ATOM     20  H   UNL     1      34.633 -12.798 -25.070  0.00  0.00    +0.292 HD
ENDBRANCH  10  19
TORSDOF 3
ENDMDL
MODEL 3
REMARK VINA RESULT:      -9.6      1.864      7.081
REMARK  Name = 91469
REMARK  3 active torsions:
REMARK  status: ('A' for Active; 'I' for Inactive)
REMARK    1  A    between atoms: C_2  and  C_11
REMARK    2  A    between atoms: C_10  and  O_19
REMARK    3  A    between atoms: C_16  and  O_17
REMARK                            x       y       z     vdW  Elec       q    Type
REMARK                         _______ _______ _______ _____ _____    ______ ____
ROOT
ATOM      1  O   UNL     1      34.896 -17.543 -23.773  0.00  0.00    -0.475 OA
ATOM      2  C   UNL     1      34.883 -18.521 -21.522  0.00  0.00    +0.070 C 
ATOM      3  C   UNL     1      33.975 -17.409 -20.984  0.00  0.00    +0.038 C 
ATOM      4  C   UNL     1      34.581 -18.716 -23.012  0.00  0.00    +0.210 C 
ATOM      5  C   UNL     1      33.960 -16.239 -21.930  0.00  0.00    +0.012 C 
ATOM      6  C   UNL     1      34.404 -16.373 -23.253  0.00  0.00    +0.138 C 
ATOM      7  C   UNL     1      33.473 -14.999 -21.496  0.00  0.00    +0.002 C 
ATOM      8  C   UNL     1      34.397 -15.272 -24.113  0.00  0.00    +0.073 C 
ATOM      9  C   UNL     1      33.454 -13.905 -22.362  0.00  0.00    +0.036 C 
ATOM     10  C   UNL     1      33.919 -14.041 -23.667  0.00  0.00    +0.137 C 
ENDROOT
BRANCH   2  11
ATOM     11  C   UNL     1      34.753 -19.798 -20.716  0.00  0.00    -0.018 C 
ATOM     12  C   UNL     1      35.898 -20.492 -20.325  0.00  0.00    -0.001 C 
ATOM     13  C   UNL     1      33.493 -20.276 -20.366  0.00  0.00    -0.001 C 
ATOM     14  C   UNL     1      35.780 -21.666 -19.583  0.00  0.00    +0.036 C 
ATOM     15  C   UNL     1      33.375 -21.451 -19.624  0.00  0.00    +0.036 C 
ATOM     16  C   UNL     1      34.518 -22.146 -19.232  0.00  0.00    +0.134 C 
BRANCH  16  17
ATOM     17  O   UNL     1      34.403 -23.294 -18.508  0.00  0.00    -0.506 OA
ATOM     18  H   UNL     1      34.281 -24.113 -18.946  0.00  0.00    +0.292 HD
ENDBRANCH  16  17
ENDBRANCH   2  11
BRANCH  10  19
ATOM     19  O   UNL     1      33.906 -12.971 -24.510  0.00  0.00    -0.505 OA
ATOM     20  H   UNL     1      33.582 -13.066 -25.383  0.00  0.00    +0.292 HD
ENDBRANCH  10  19
TORSDOF 3
ENDMDL
MODEL 4
REMARK VINA RESULT:      -9.4      1.136      1.770
REMARK  Name = 91469
REMARK  3 active torsions:
REMARK  status: ('A' for Active; 'I' for Inactive)
REMARK    1  A    between atoms: C_2  and  C_11
REMARK    2  A    between atoms: C_10  and  O_19
REMARK    3  A    between atoms: C_16  and  O_17
REMARK                            x       y       z     vdW  Elec       q    Type
REMARK                         _______ _______ _______ _____ _____    ______ ____
ROOT
ATOM      1  O   UNL     1      36.561 -19.260 -21.072  0.00  0.00    -0.475 OA
ATOM      2  C   UNL     1      34.875 -18.402 -22.634  0.00  0.00    +0.070 C 
ATOM      3  C   UNL     1      33.724 -18.908 -21.757  0.00  0.00    +0.038 C 
ATOM      4  C   UNL     1      36.072 -18.085 -21.731  0.00  0.00    +0.210 C 
ATOM      5  C   UNL     1      34.228 -19.915 -20.758  0.00  0.00    +0.012 C 
ATOM      6  C   UNL     1      35.595 -20.024 -20.469  0.00  0.00    +0.138 C 
ATOM      7  C   UNL     1      33.320 -20.743 -20.086  0.00  0.00    +0.002 C 
ATOM      8  C   UNL     1      36.046 -20.975 -19.550  0.00  0.00    +0.073 C 
ATOM      9  C   UNL     1      33.772 -21.681 -19.158  0.00  0.00    +0.036 C 
ATOM     10  C   UNL     1      35.134 -21.800 -18.893  0.00  0.00    +0.137 C 
ENDROOT
BRANCH   2  11
ATOM     11  C   UNL     1      34.455 -17.232 -23.500  0.00  0.00    -0.018 C 
ATOM     12  C   UNL     1      34.198 -15.991 -22.915  0.00  0.00    -0.001 C 
ATOM     13  C   UNL     1      34.325 -17.395 -24.877  0.00  0.00    -0.001 C 
ATOM     14  C   UNL     1      33.812 -14.914 -23.711  0.00  0.00    +0.036 C 
ATOM     15  C   UNL     1      33.938 -16.316 -25.673  0.00  0.00    +0.036 C 
ATOM     16  C   UNL     1      33.681 -15.076 -25.090  0.00  0.00    +0.134 C 
BRANCH  16  17
ATOM     17  O   UNL     1      33.303 -14.023 -25.866  0.00  0.00    -0.506 OA
ATOM     18  H   UNL     1      32.579 -14.112 -26.454  0.00  0.00    +0.292 HD
ENDBRANCH  16  17
ENDBRANCH   2  11
BRANCH  10  19
ATOM     19  O   UNL     1      35.576 -22.721 -17.993  0.00  0.00    -0.505 OA
ATOM     20  H   UNL     1      35.949 -23.526 -18.291  0.00  0.00    +0.292 HD
ENDBRANCH  10  19
TORSDOF 3
ENDMDL
MODEL 5
REMARK VINA RESULT:      -9.2      3.225      5.727
REMARK  Name = 91469
REMARK  3 active torsions:
REMARK  status: ('A' for Active; 'I' for Inactive)
REMARK    1  A    between atoms: C_2  and  C_11
REMARK    2  A    between atoms: C_10  and  O_19
REMARK    3  A    between atoms: C_16  and  O_17
REMARK                            x       y       z     vdW  Elec       q    Type
REMARK                         _______ _______ _______ _____ _____    ______ ____
ROOT
ATOM      1  O   UNL     1      34.174 -23.869 -15.714  0.00  0.00    -0.475 OA
ATOM      2  C   UNL     1      33.640 -22.811 -17.863  0.00  0.00    +0.070 C 
ATOM      3  C   UNL     1      32.231 -22.433 -17.390  0.00  0.00    +0.038 C 
ATOM      4  C   UNL     1      34.568 -22.851 -16.644  0.00  0.00    +0.210 C 
ATOM      5  C   UNL     1      31.861 -23.219 -16.162  0.00  0.00    +0.012 C 
ATOM      6  C   UNL     1      32.839 -23.872 -15.399  0.00  0.00    +0.138 C 
ATOM      7  C   UNL     1      30.522 -23.283 -15.754  0.00  0.00    +0.002 C 
ATOM      8  C   UNL     1      32.474 -24.610 -14.269  0.00  0.00    +0.073 C 
ATOM      9  C   UNL     1      30.163 -24.008 -14.617  0.00  0.00    +0.036 C 
ATOM     10  C   UNL     1      31.138 -24.674 -13.878  0.00  0.00    +0.137 C 
ENDROOT
BRANCH   2  11
ATOM     11  C   UNL     1      34.136 -21.890 -18.959  0.00  0.00    -0.018 C 
ATOM     12  C   UNL     1      33.231 -21.088 -19.655  0.00  0.00    -0.001 C 
ATOM     13  C   UNL     1      35.493 -21.845 -19.270  0.00  0.00    -0.001 C 
ATOM     14  C   UNL     1      33.687 -20.239 -20.663  0.00  0.00    +0.036 C 
ATOM     15  C   UNL     1      35.948 -20.996 -20.280  0.00  0.00    +0.036 C 
ATOM     16  C   UNL     1      35.045 -20.193 -20.976  0.00  0.00    +0.134 C 
BRANCH  16  17
ATOM     17  O   UNL     1      35.489 -19.366 -21.962  0.00  0.00    -0.506 OA
ATOM     18  H   UNL     1      34.879 -18.843 -22.444  0.00  0.00    +0.292 HD
ENDBRANCH  16  17
ENDBRANCH   2  11
BRANCH  10  19
ATOM     19  O   UNL     1      30.787 -25.388 -12.773  0.00  0.00    -0.505 OA
ATOM     20  H   UNL     1      31.380 -26.017 -12.413  0.00  0.00    +0.292 HD
ENDBRANCH  10  19
TORSDOF 3
ENDMDL
MODEL 6
REMARK VINA RESULT:      -9.0      1.243      1.885
REMARK  Name = 91469
REMARK  3 active torsions:
REMARK  status: ('A' for Active; 'I' for Inactive)
REMARK    1  A    between atoms: C_2  and  C_11
REMARK    2  A    between atoms: C_10  and  O_19
REMARK    3  A    between atoms: C_16  and  O_17
REMARK                            x       y       z     vdW  Elec       q    Type
REMARK                         _______ _______ _______ _____ _____    ______ ____
ROOT
ATOM      1  O   UNL     1      32.868 -20.957 -19.908  0.00  0.00    -0.475 OA
ATOM      2  C   UNL     1      34.272 -19.329 -21.090  0.00  0.00    +0.070 C 
ATOM      3  C   UNL     1      35.558 -20.058 -20.682  0.00  0.00    +0.038 C 
ATOM      4  C   UNL     1      33.139 -20.356 -21.181  0.00  0.00    +0.210 C 
ATOM      5  C   UNL     1      35.284 -21.010 -19.550  0.00  0.00    +0.012 C 
ATOM      6  C   UNL     1      33.977 -21.408 -19.239  0.00  0.00    +0.138 C 
ATOM      7  C   UNL     1      36.351 -21.530 -18.805  0.00  0.00    +0.002 C 
ATOM      8  C   UNL     1      33.741 -22.282 -18.174  0.00  0.00    +0.073 C 
ATOM      9  C   UNL     1      36.113 -22.414 -17.751  0.00  0.00    +0.036 C 
ATOM     10  C   UNL     1      34.809 -22.786 -17.434  0.00  0.00    +0.137 C 
ENDROOT
BRANCH   2  11
ATOM     11  C   UNL     1      34.455 -18.529 -22.364  0.00  0.00    -0.018 C 
ATOM     12  C   UNL     1      34.442 -19.177 -23.600  0.00  0.00    -0.001 C 
ATOM     13  C   UNL     1      34.637 -17.149 -22.301  0.00  0.00    -0.001 C 
ATOM     14  C   UNL     1      34.610 -18.442 -24.772  0.00  0.00    +0.036 C 
ATOM     15  C   UNL     1      34.806 -16.414 -23.474  0.00  0.00    +0.036 C 
ATOM     16  C   UNL     1      34.792 -17.060 -24.710  0.00  0.00    +0.134 C 
BRANCH  16  17
ATOM     17  O   UNL     1      34.957 -16.343 -25.856  0.00  0.00    -0.506 OA
ATOM     18  H   UNL     1      34.210 -16.090 -26.361  0.00  0.00    +0.292 HD
ENDBRANCH  16  17
ENDBRANCH   2  11
BRANCH  10  19
ATOM     19  O   UNL     1      34.576 -23.643 -16.402  0.00  0.00    -0.505 OA
ATOM     20  H   UNL     1      33.736 -23.662 -15.989  0.00  0.00    +0.292 HD
ENDBRANCH  10  19
TORSDOF 3
ENDMDL
MODEL 7
REMARK VINA RESULT:      -8.8      1.866      7.309
REMARK  Name = 91469
REMARK  3 active torsions:
REMARK  status: ('A' for Active; 'I' for Inactive)
REMARK    1  A    between atoms: C_2  and  C_11
REMARK    2  A    between atoms: C_10  and  O_19
REMARK    3  A    between atoms: C_16  and  O_17
REMARK                            x       y       z     vdW  Elec       q    Type
REMARK                         _______ _______ _______ _____ _____    ______ ____
ROOT
ATOM      1  O   UNL     1      34.252 -15.246 -21.775  0.00  0.00    -0.475 OA
ATOM      2  C   UNL     1      34.218 -17.699 -21.726  0.00  0.00    +0.070 C 
ATOM      3  C   UNL     1      34.443 -17.788 -23.240  0.00  0.00    +0.038 C 
ATOM      4  C   UNL     1      34.869 -16.410 -21.212  0.00  0.00    +0.210 C 
ATOM      5  C   UNL     1      34.157 -16.462 -23.893  0.00  0.00    +0.012 C 
ATOM      6  C   UNL     1      34.090 -15.284 -23.136  0.00  0.00    +0.138 C 
ATOM      7  C   UNL     1      33.977 -16.394 -25.280  0.00  0.00    +0.002 C 
ATOM      8  C   UNL     1      33.808 -14.064 -23.758  0.00  0.00    +0.073 C 
ATOM      9  C   UNL     1      33.711 -15.172 -25.899  0.00  0.00    +0.036 C 
ATOM     10  C   UNL     1      33.622 -14.010 -25.138  0.00  0.00    +0.137 C 
ENDROOT
BRANCH   2  11
ATOM     11  C   UNL     1      34.705 -18.941 -21.007  0.00  0.00    -0.018 C 
ATOM     12  C   UNL     1      33.784 -19.864 -20.514  0.00  0.00    -0.001 C 
ATOM     13  C   UNL     1      36.071 -19.159 -20.841  0.00  0.00    -0.001 C 
ATOM     14  C   UNL     1      34.231 -21.008 -19.853  0.00  0.00    +0.036 C 
ATOM     15  C   UNL     1      36.518 -20.302 -20.179  0.00  0.00    +0.036 C 
ATOM     16  C   UNL     1      35.598 -21.227 -19.685  0.00  0.00    +0.134 C 
BRANCH  16  17
ATOM     17  O   UNL     1      36.034 -22.343 -19.038  0.00  0.00    -0.506 OA
ATOM     18  H   UNL     1      36.934 -22.597 -19.098  0.00  0.00    +0.292 HD
ENDBRANCH  16  17
ENDBRANCH   2  11
BRANCH  10  19
ATOM     19  O   UNL     1      33.355 -12.819 -25.742  0.00  0.00    -0.505 OA
ATOM     20  H   UNL     1      33.101 -12.078 -25.226  0.00  0.00    +0.292 HD
ENDBRANCH  10  19
TORSDOF 3
ENDMDL
MODEL 8
REMARK VINA RESULT:      -8.7      2.477      4.517
REMARK  Name = 91469
REMARK  3 active torsions:
REMARK  status: ('A' for Active; 'I' for Inactive)
REMARK    1  A    between atoms: C_2  and  C_11
REMARK    2  A    between atoms: C_10  and  O_19
REMARK    3  A    between atoms: C_16  and  O_17
REMARK                            x       y       z     vdW  Elec       q    Type
REMARK                         _______ _______ _______ _____ _____    ______ ____
ROOT
ATOM      1  O   UNL     1      37.287 -22.536 -16.575  0.00  0.00    -0.475 OA
ATOM      2  C   UNL     1      35.755 -22.022 -18.422  0.00  0.00    +0.070 C 
ATOM      3  C   UNL     1      34.526 -22.361 -17.571  0.00  0.00    +0.038 C 
ATOM      4  C   UNL     1      36.866 -21.519 -17.494  0.00  0.00    +0.210 C 
ATOM      5  C   UNL     1      34.931 -23.146 -16.353  0.00  0.00    +0.012 C 
ATOM      6  C   UNL     1      36.265 -23.179 -15.925  0.00  0.00    +0.138 C 
ATOM      7  C   UNL     1      33.961 -23.839 -15.617  0.00  0.00    +0.002 C 
ATOM      8  C   UNL     1      36.625 -23.926 -14.800  0.00  0.00    +0.073 C 
ATOM      9  C   UNL     1      34.321 -24.572 -14.485  0.00  0.00    +0.036 C 
ATOM     10  C   UNL     1      35.653 -24.618 -14.080  0.00  0.00    +0.137 C 
ENDROOT
BRANCH   2  11
ATOM     11  C   UNL     1      35.422 -21.049 -19.535  0.00  0.00    -0.018 C 
ATOM     12  C   UNL     1      36.438 -20.310 -20.139  0.00  0.00    -0.001 C 
ATOM     13  C   UNL     1      34.102 -20.894 -19.953  0.00  0.00    -0.001 C 
ATOM     14  C   UNL     1      36.133 -19.414 -21.164  0.00  0.00    +0.036 C 
ATOM     15  C   UNL     1      33.796 -19.998 -20.977  0.00  0.00    +0.036 C 
ATOM     16  C   UNL     1      34.812 -19.258 -21.583  0.00  0.00    +0.134 C 
BRANCH  16  17
ATOM     17  O   UNL     1      34.514 -18.382 -22.582  0.00  0.00    -0.506 OA
ATOM     18  H   UNL     1      34.509 -18.673 -23.473  0.00  0.00    +0.292 HD
ENDBRANCH  16  17
ENDBRANCH   2  11
BRANCH  10  19
ATOM     19  O   UNL     1      36.005 -25.339 -12.980  0.00  0.00    -0.505 OA
ATOM     20  H   UNL     1      36.907 -25.414 -12.738  0.00  0.00    +0.292 HD
ENDBRANCH  10  19
TORSDOF 3
ENDMDL
MODEL 9
REMARK VINA RESULT:      -8.7      6.817      8.966
REMARK  Name = 91469
REMARK  3 active torsions:
REMARK  status: ('A' for Active; 'I' for Inactive)
REMARK    1  A    between atoms: C_2  and  C_11
REMARK    2  A    between atoms: C_10  and  O_19
REMARK    3  A    between atoms: C_16  and  O_17
REMARK                            x       y       z     vdW  Elec       q    Type
REMARK                         _______ _______ _______ _____ _____    ______ ____
ROOT
ATOM      1  O   UNL     1      31.874 -22.618 -17.274  0.00  0.00    -0.475 OA
ATOM      2  C   UNL     1      33.718 -23.095 -15.727  0.00  0.00    +0.070 C 
ATOM      3  C   UNL     1      32.853 -24.057 -14.904  0.00  0.00    +0.038 C 
ATOM      4  C   UNL     1      33.217 -23.108 -17.175  0.00  0.00    +0.210 C 
ATOM      5  C   UNL     1      31.396 -23.855 -15.221  0.00  0.00    +0.012 C 
ATOM      6  C   UNL     1      30.996 -23.167 -16.375  0.00  0.00    +0.138 C 
ATOM      7  C   UNL     1      30.419 -24.379 -14.365  0.00  0.00    +0.002 C 
ATOM      8  C   UNL     1      29.637 -22.976 -16.645  0.00  0.00    +0.073 C 
ATOM      9  C   UNL     1      29.063 -24.199 -14.645  0.00  0.00    +0.036 C 
ATOM     10  C   UNL     1      28.674 -23.495 -15.782  0.00  0.00    +0.137 C 
ENDROOT
BRANCH   2  11
ATOM     11  C   UNL     1      35.194 -23.414 -15.604  0.00  0.00    -0.018 C 
ATOM     12  C   UNL     1      35.598 -24.634 -15.062  0.00  0.00    -0.001 C 
ATOM     13  C   UNL     1      36.145 -22.491 -16.032  0.00  0.00    -0.001 C 
ATOM     14  C   UNL     1      36.956 -24.929 -14.948  0.00  0.00    +0.036 C 
ATOM     15  C   UNL     1      37.504 -22.786 -15.918  0.00  0.00    +0.036 C 
ATOM     16  C   UNL     1      37.909 -24.005 -15.377  0.00  0.00    +0.134 C 
BRANCH  16  17
ATOM     17  O   UNL     1      39.235 -24.294 -15.265  0.00  0.00    -0.506 OA
ATOM     18  H   UNL     1      39.589 -24.558 -14.438  0.00  0.00    +0.292 HD
ENDBRANCH  16  17
ENDBRANCH   2  11
BRANCH  10  19
ATOM     19  O   UNL     1      27.352 -23.313 -16.051  0.00  0.00    -0.505 OA
ATOM     20  H   UNL     1      26.898 -23.919 -16.603  0.00  0.00    +0.292 HD
ENDBRANCH  10  19
TORSDOF 3
ENDMDL
