MODEL 1
REMARK VINA RESULT:     -10.7      0.000      0.000
REMARK  Name = 40466888
REMARK  9 active torsions:
REMARK  status: ('A' for Active; 'I' for Inactive)
REMARK    1  A    between atoms: N_1  and  C_7
REMARK    2  A    between atoms: N_1  and  C_19
REMARK    3  A    between atoms: C_9  and  C_18
REMARK    4  A    between atoms: C_19  and  C_21
REMARK    5  A    between atoms: C_19  and  C_25
REMARK    6  A    between atoms: C_21  and  O_22
REMARK    7  A    between atoms: O_22  and  C_23
REMARK    8  A    between atoms: C_25  and  C_26
REMARK    9  A    between atoms: C_26  and  C_27
REMARK                            x       y       z     vdW  Elec       q    Type
REMARK                         _______ _______ _______ _____ _____    ______ ____
ROOT
ATOM      1  N   UNL     1      33.180 -23.562 -15.096  0.00  0.00    +0.399 N 
ATOM      2  H   UNL     1      32.923 -23.021 -14.271  0.00  0.00    -0.083 HD
ATOM      3  H   UNL     1      32.760 -24.491 -15.102  0.00  0.00    -0.083 HD
ENDROOT
BRANCH   1   7
ATOM      4  O   UNL     1      34.301 -24.336 -12.782  0.00  0.00    -0.276 OA
ATOM      5  N   UNL     1      36.434 -24.671 -13.614  0.00  0.00    -0.214 N 
ATOM      6  N   UNL     1      37.259 -24.602 -14.756  0.00  0.00    -0.202 NA
ATOM      7  C   UNL     1      34.665 -23.757 -15.089  0.00  0.00    +0.019 C 
ATOM      8  C   UNL     1      35.315 -22.399 -15.380  0.00  0.00    -0.011 C 
ATOM      9  C   UNL     1      37.023 -24.982 -12.304  0.00  0.00    +0.194 C 
ATOM     10  C   UNL     1      37.735 -23.245 -15.016  0.00  0.00    +0.092 C 
ATOM     11  C   UNL     1      36.743 -22.510 -15.922  0.00  0.00    +0.017 C 
ATOM     12  C   UNL     1      35.096 -24.288 -13.723  0.00  0.00    +0.219 C 
ATOM     13  C   UNL     1      38.294 -25.630 -14.797  0.00  0.00    +0.092 C 
ATOM     14  C   UNL     1      38.185 -25.968 -12.347  0.00  0.00    +0.034 C 
ATOM     15  C   UNL     1      39.117 -25.690 -13.518  0.00  0.00    +0.021 C 
BRANCH   9  18
ATOM     16  O   UNL     1      38.638 -23.332 -11.836  0.00  0.00    -0.244 OA
ATOM     17  O   UNL     1      36.598 -23.221 -10.807  0.00  0.00    -0.244 OA
ATOM     18  C   UNL     1      37.465 -23.720 -11.578  0.00  0.00    +0.384 C 
ENDBRANCH   9  18
ENDBRANCH   1   7
BRANCH   1  19
ATOM     19  C   UNL     1      32.674 -22.853 -16.296  0.00  0.00    +0.041 C 
BRANCH  19  21
ATOM     20  O   UNL     1      30.417 -22.285 -16.991  0.00  0.00    -0.252 OA
ATOM     21  C   UNL     1      31.184 -23.071 -16.447  0.00  0.00    +0.297 C 
BRANCH  21  22
ATOM     22  O   UNL     1      30.839 -24.285 -15.927  0.00  0.00    -0.450 OA
BRANCH  22  23
ATOM     23  C   UNL     1      29.447 -24.613 -15.992  0.00  0.00    +0.208 C 
ATOM     24  C   UNL     1      29.002 -25.144 -14.647  0.00  0.00    +0.051 C 
ENDBRANCH  22  23
ENDBRANCH  21  22
ENDBRANCH  19  21
BRANCH  19  25
ATOM     25  C   UNL     1      33.507 -23.248 -17.526  0.00  0.00    -0.006 C 
BRANCH  25  26
ATOM     26  C   UNL     1      33.129 -22.600 -18.868  0.00  0.00    +0.025 C 
BRANCH  26  27
ATOM     27  C   UNL     1      34.169 -21.673 -19.441  0.00  0.00    -0.022 C 
ATOM     28  C   UNL     1      35.521 -21.899 -19.185  0.00  0.00    -0.004 C 
ATOM     29  C   UNL     1      33.779 -20.587 -20.226  0.00  0.00    -0.004 C 
ATOM     30  C   UNL     1      36.484 -21.039 -19.715  0.00  0.00    -0.000 C 
ATOM     31  C   UNL     1      34.741 -19.728 -20.756  0.00  0.00    -0.000 C 
ATOM     32  C   UNL     1      36.094 -19.954 -20.500  0.00  0.00    -0.000 C 
ENDBRANCH  26  27
ENDBRANCH  25  26
ENDBRANCH  19  25
ENDBRANCH   1  19
TORSDOF 9
ENDMDL
MODEL 2
REMARK VINA RESULT:      -9.7      1.693      2.581
REMARK  Name = 40466888
REMARK  9 active torsions:
REMARK  status: ('A' for Active; 'I' for Inactive)
REMARK    1  A    between atoms: N_1  and  C_7
REMARK    2  A    between atoms: N_1  and  C_19
REMARK    3  A    between atoms: C_9  and  C_18
REMARK    4  A    between atoms: C_19  and  C_21
REMARK    5  A    between atoms: C_19  and  C_25
REMARK    6  A    between atoms: C_21  and  O_22
REMARK    7  A    between atoms: O_22  and  C_23
REMARK    8  A    between atoms: C_25  and  C_26
REMARK    9  A    between atoms: C_26  and  C_27
REMARK                            x       y       z     vdW  Elec       q    Type
REMARK                         _______ _______ _______ _____ _____    ______ ____
ROOT
ATOM      1  N   UNL     1      33.299 -23.957 -16.033  0.00  0.00    +0.399 N 
ATOM      2  H   UNL     1      32.645 -24.730 -15.911  0.00  0.00    -0.083 HD
ATOM      3  H   UNL     1      33.960 -24.120 -16.792  0.00  0.00    -0.083 HD
ENDROOT
BRANCH   1   7
ATOM      4  O   UNL     1      35.631 -25.284 -15.919  0.00  0.00    -0.276 OA
ATOM      5  N   UNL     1      36.356 -24.383 -13.914  0.00  0.00    -0.214 N 
ATOM      6  N   UNL     1      36.040 -23.511 -12.853  0.00  0.00    -0.202 NA
ATOM      7  C   UNL     1      34.103 -23.816 -14.778  0.00  0.00    +0.019 C 
ATOM      8  C   UNL     1      33.281 -24.410 -13.628  0.00  0.00    -0.011 C 
ATOM      9  C   UNL     1      37.566 -25.213 -13.845  0.00  0.00    +0.194 C 
ATOM     10  C   UNL     1      35.158 -24.132 -11.866  0.00  0.00    +0.092 C 
ATOM     11  C   UNL     1      33.695 -23.889 -12.250  0.00  0.00    +0.017 C 
ATOM     12  C   UNL     1      35.428 -24.558 -14.943  0.00  0.00    +0.219 C 
ATOM     13  C   UNL     1      37.200 -22.827 -12.288  0.00  0.00    +0.092 C 
ATOM     14  C   UNL     1      38.752 -24.552 -13.151  0.00  0.00    +0.034 C 
ATOM     15  C   UNL     1      38.322 -23.783 -11.910  0.00  0.00    +0.021 C 
BRANCH   9  18
ATOM     16  O   UNL     1      37.180 -27.534 -13.971  0.00  0.00    -0.244 OA
ATOM     17  O   UNL     1      37.194 -26.515 -11.923  0.00  0.00    -0.244 OA
ATOM     18  C   UNL     1      37.286 -26.554 -13.182  0.00  0.00    +0.384 C 
ENDBRANCH   9  18
ENDBRANCH   1   7
BRANCH   1  19
ATOM     19  C   UNL     1      32.525 -22.743 -16.390  0.00  0.00    +0.041 C 
BRANCH  19  21
ATOM     20  O   UNL     1      30.819 -22.697 -14.663  0.00  0.00    -0.252 OA
ATOM     21  C   UNL     1      31.117 -22.836 -15.842  0.00  0.00    +0.297 C 
BRANCH  21  22
ATOM     22  O   UNL     1      30.238 -23.053 -16.863  0.00  0.00    -0.450 OA
BRANCH  22  23
ATOM     23  C   UNL     1      28.962 -23.577 -16.480  0.00  0.00    +0.208 C 
ATOM     24  C   UNL     1      27.927 -22.478 -16.578  0.00  0.00    +0.051 C 
ENDBRANCH  22  23
ENDBRANCH  21  22
ENDBRANCH  19  21
BRANCH  19  25
ATOM     25  C   UNL     1      32.609 -22.497 -17.905  0.00  0.00    -0.006 C 
BRANCH  25  26
ATOM     26  C   UNL     1      33.969 -22.735 -18.581  0.00  0.00    +0.025 C 
BRANCH  26  27
ATOM     27  C   UNL     1      34.476 -21.583 -19.409  0.00  0.00    -0.022 C 
ATOM     28  C   UNL     1      33.574 -20.746 -20.064  0.00  0.00    -0.004 C 
ATOM     29  C   UNL     1      35.849 -21.356 -19.521  0.00  0.00    -0.004 C 
ATOM     30  C   UNL     1      34.045 -19.679 -20.831  0.00  0.00    -0.000 C 
ATOM     31  C   UNL     1      36.318 -20.289 -20.287  0.00  0.00    -0.000 C 
ATOM     32  C   UNL     1      35.416 -19.451 -20.943  0.00  0.00    -0.000 C 
ENDBRANCH  26  27
ENDBRANCH  25  26
ENDBRANCH  19  25
ENDBRANCH   1  19
TORSDOF 9
ENDMDL
MODEL 3
REMARK VINA RESULT:      -9.4      1.658      4.619
REMARK  Name = 40466888
REMARK  9 active torsions:
REMARK  status: ('A' for Active; 'I' for Inactive)
REMARK    1  A    between atoms: N_1  and  C_7
REMARK    2  A    between atoms: N_1  and  C_19
REMARK    3  A    between atoms: C_9  and  C_18
REMARK    4  A    between atoms: C_19  and  C_21
REMARK    5  A    between atoms: C_19  and  C_25
REMARK    6  A    between atoms: C_21  and  O_22
REMARK    7  A    between atoms: O_22  and  C_23
REMARK    8  A    between atoms: C_25  and  C_26
REMARK    9  A    between atoms: C_26  and  C_27
REMARK                            x       y       z     vdW  Elec       q    Type
REMARK                         _______ _______ _______ _____ _____    ______ ____
ROOT
ATOM      1  N   UNL     1      34.056 -22.852 -15.908  0.00  0.00    +0.399 N 
ATOM      2  H   UNL     1      34.086 -21.850 -16.096  0.00  0.00    -0.083 HD
ATOM      3  H   UNL     1      33.525 -23.078 -15.068  0.00  0.00    -0.083 HD
ENDROOT
BRANCH   1   7
ATOM      4  O   UNL     1      34.724 -23.530 -13.397  0.00  0.00    -0.276 OA
ATOM      5  N   UNL     1      36.819 -24.380 -13.897  0.00  0.00    -0.214 N 
ATOM      6  N   UNL     1      37.760 -24.619 -14.918  0.00  0.00    -0.202 NA
ATOM      7  C   UNL     1      35.456 -23.331 -15.681  0.00  0.00    +0.019 C 
ATOM      8  C   UNL     1      36.405 -22.175 -16.019  0.00  0.00    -0.011 C 
ATOM      9  C   UNL     1      37.179 -24.631 -12.494  0.00  0.00    +0.194 C 
ATOM     10  C   UNL     1      38.537 -23.426 -15.248  0.00  0.00    +0.092 C 
ATOM     11  C   UNL     1      37.829 -22.632 -16.350  0.00  0.00    +0.017 C 
ATOM     12  C   UNL     1      35.612 -23.758 -14.223  0.00  0.00    +0.219 C 
ATOM     13  C   UNL     1      38.555 -25.827 -14.714  0.00  0.00    +0.092 C 
ATOM     14  C   UNL     1      38.106 -25.822 -12.280  0.00  0.00    +0.034 C 
ATOM     15  C   UNL     1      39.200 -25.884 -13.336  0.00  0.00    +0.021 C 
BRANCH   9  18
ATOM     16  O   UNL     1      36.968 -22.542 -11.426  0.00  0.00    -0.244 OA
ATOM     17  O   UNL     1      39.057 -23.391 -11.813  0.00  0.00    -0.244 OA
ATOM     18  C   UNL     1      37.794 -23.399 -11.847  0.00  0.00    +0.384 C 
ENDBRANCH   9  18
ENDBRANCH   1   7
BRANCH   1  19
ATOM     19  C   UNL     1      33.370 -23.519 -17.042  0.00  0.00    +0.041 C 
BRANCH  19  21
ATOM     20  O   UNL     1      32.467 -21.929 -18.640  0.00  0.00    -0.252 OA
ATOM     21  C   UNL     1      33.398 -22.633 -18.269  0.00  0.00    +0.297 C 
BRANCH  21  22
ATOM     22  O   UNL     1      34.623 -22.707 -18.866  0.00  0.00    -0.450 OA
BRANCH  22  23
ATOM     23  C   UNL     1      34.964 -21.611 -19.720  0.00  0.00    +0.208 C 
ATOM     24  C   UNL     1      36.444 -21.324 -19.589  0.00  0.00    +0.051 C 
ENDBRANCH  22  23
ENDBRANCH  21  22
ENDBRANCH  19  21
BRANCH  19  25
ATOM     25  C   UNL     1      31.966 -23.970 -16.610  0.00  0.00    -0.006 C 
BRANCH  25  26
ATOM     26  C   UNL     1      31.250 -23.118 -15.550  0.00  0.00    +0.025 C 
BRANCH  26  27
ATOM     27  C   UNL     1      29.788 -22.868 -15.818  0.00  0.00    -0.022 C 
ATOM     28  C   UNL     1      29.229 -23.249 -17.037  0.00  0.00    -0.004 C 
ATOM     29  C   UNL     1      28.996 -22.255 -14.847  0.00  0.00    -0.004 C 
ATOM     30  C   UNL     1      27.875 -23.016 -17.285  0.00  0.00    -0.000 C 
ATOM     31  C   UNL     1      27.643 -22.023 -15.095  0.00  0.00    -0.000 C 
ATOM     32  C   UNL     1      27.083 -22.403 -16.315  0.00  0.00    -0.000 C 
ENDBRANCH  26  27
ENDBRANCH  25  26
ENDBRANCH  19  25
ENDBRANCH   1  19
TORSDOF 9
ENDMDL
MODEL 4
REMARK VINA RESULT:      -9.0      1.714      4.855
REMARK  Name = 40466888
REMARK  9 active torsions:
REMARK  status: ('A' for Active; 'I' for Inactive)
REMARK    1  A    between atoms: N_1  and  C_7
REMARK    2  A    between atoms: N_1  and  C_19
REMARK    3  A    between atoms: C_9  and  C_18
REMARK    4  A    between atoms: C_19  and  C_21
REMARK    5  A    between atoms: C_19  and  C_25
REMARK    6  A    between atoms: C_21  and  O_22
REMARK    7  A    between atoms: O_22  and  C_23
REMARK    8  A    between atoms: C_25  and  C_26
REMARK    9  A    between atoms: C_26  and  C_27
REMARK                            x       y       z     vdW  Elec       q    Type
REMARK                         _______ _______ _______ _____ _____    ______ ____
ROOT
ATOM      1  N   UNL     1      35.145 -22.150 -17.044  0.00  0.00    +0.399 N 
ATOM      2  H   UNL     1      35.690 -21.401 -17.470  0.00  0.00    -0.083 HD
ATOM      3  H   UNL     1      34.462 -21.802 -16.371  0.00  0.00    -0.083 HD
ENDROOT
BRANCH   1   7
ATOM      4  O   UNL     1      34.726 -22.416 -14.404  0.00  0.00    -0.276 OA
ATOM      5  N   UNL     1      36.304 -24.072 -14.047  0.00  0.00    -0.214 N 
ATOM      6  N   UNL     1      37.298 -24.875 -14.643  0.00  0.00    -0.202 NA
ATOM      7  C   UNL     1      36.081 -23.044 -16.292  0.00  0.00    +0.019 C 
ATOM      8  C   UNL     1      37.485 -22.436 -16.385  0.00  0.00    -0.011 C 
ATOM      9  C   UNL     1      36.113 -24.102 -12.590  0.00  0.00    +0.194 C 
ATOM     10  C   UNL     1      38.568 -24.167 -14.793  0.00  0.00    +0.092 C 
ATOM     11  C   UNL     1      38.606 -23.450 -16.146  0.00  0.00    +0.017 C 
ATOM     12  C   UNL     1      35.623 -23.144 -14.838  0.00  0.00    +0.219 C 
ATOM     13  C   UNL     1      37.408 -26.207 -14.054  0.00  0.00    +0.092 C 
ATOM     14  C   UNL     1      36.341 -25.465 -11.947  0.00  0.00    +0.034 C 
ATOM     15  C   UNL     1      37.552 -26.173 -12.539  0.00  0.00    +0.021 C 
BRANCH   9  18
ATOM     16  O   UNL     1      37.049 -23.176 -10.637  0.00  0.00    -0.244 OA
ATOM     17  O   UNL     1      37.538 -22.234 -12.663  0.00  0.00    -0.244 OA
ATOM     18  C   UNL     1      36.986 -23.069 -11.893  0.00  0.00    +0.384 C 
ENDBRANCH   9  18
ENDBRANCH   1   7
BRANCH   1  19
ATOM     19  C   UNL     1      34.383 -22.840 -18.112  0.00  0.00    +0.041 C 
BRANCH  19  21
ATOM     20  O   UNL     1      33.041 -21.953 -19.932  0.00  0.00    -0.252 OA
ATOM     21  C   UNL     1      34.036 -21.871 -19.222  0.00  0.00    +0.297 C 
BRANCH  21  22
ATOM     22  O   UNL     1      34.971 -20.878 -19.278  0.00  0.00    -0.450 OA
BRANCH  22  23
ATOM     23  C   UNL     1      35.748 -20.827 -20.479  0.00  0.00    +0.208 C 
ATOM     24  C   UNL     1      35.728 -19.414 -21.020  0.00  0.00    +0.051 C 
ENDBRANCH  22  23
ENDBRANCH  21  22
ENDBRANCH  19  21
BRANCH  19  25
ATOM     25  C   UNL     1      33.179 -23.574 -17.503  0.00  0.00    -0.006 C 
BRANCH  25  26
ATOM     26  C   UNL     1      32.125 -22.718 -16.782  0.00  0.00    +0.025 C 
BRANCH  26  27
ATOM     27  C   UNL     1      31.077 -23.499 -16.033  0.00  0.00    -0.022 C 
ATOM     28  C   UNL     1      31.444 -24.301 -14.953  0.00  0.00    -0.004 C 
ATOM     29  C   UNL     1      29.738 -23.420 -16.420  0.00  0.00    -0.004 C 
ATOM     30  C   UNL     1      30.473 -25.025 -14.260  0.00  0.00    -0.000 C 
ATOM     31  C   UNL     1      28.768 -24.143 -15.727  0.00  0.00    -0.000 C 
ATOM     32  C   UNL     1      29.135 -24.946 -14.647  0.00  0.00    -0.000 C 
ENDBRANCH  26  27
ENDBRANCH  25  26
ENDBRANCH  19  25
ENDBRANCH   1  19
TORSDOF 9
ENDMDL
MODEL 5
REMARK VINA RESULT:      -8.9     11.844     15.803
REMARK  Name = 40466888
REMARK  9 active torsions:
REMARK  status: ('A' for Active; 'I' for Inactive)
REMARK    1  A    between atoms: N_1  and  C_7
REMARK    2  A    between atoms: N_1  and  C_19
REMARK    3  A    between atoms: C_9  and  C_18
REMARK    4  A    between atoms: C_19  and  C_21
REMARK    5  A    between atoms: C_19  and  C_25
REMARK    6  A    between atoms: C_21  and  O_22
REMARK    7  A    between atoms: O_22  and  C_23
REMARK    8  A    between atoms: C_25  and  C_26
REMARK    9  A    between atoms: C_26  and  C_27
REMARK                            x       y       z     vdW  Elec       q    Type
REMARK                         _______ _______ _______ _____ _____    ______ ____
ROOT
ATOM      1  N   UNL     1      33.370  -9.846 -23.616  0.00  0.00    +0.399 N 
ATOM      2  H   UNL     1      32.588  -9.723 -24.259  0.00  0.00    -0.083 HD
ATOM      3  H   UNL     1      34.274  -9.750 -24.077  0.00  0.00    -0.083 HD
ENDROOT
BRANCH   1   7
ATOM      4  O   UNL     1      34.215 -11.837 -25.207  0.00  0.00    -0.276 OA
ATOM      5  N   UNL     1      34.082 -13.521 -23.624  0.00  0.00    -0.214 N 
ATOM      6  N   UNL     1      33.738 -13.839 -22.294  0.00  0.00    -0.202 NA
ATOM      7  C   UNL     1      33.310 -11.234 -23.060  0.00  0.00    +0.019 C 
ATOM      8  C   UNL     1      31.836 -11.569 -22.798  0.00  0.00    -0.011 C 
ATOM      9  C   UNL     1      34.444 -14.592 -24.563  0.00  0.00    +0.194 C 
ATOM     10  C   UNL     1      32.298 -14.025 -22.122  0.00  0.00    +0.092 C 
ATOM     11  C   UNL     1      31.638 -12.688 -21.773  0.00  0.00    +0.017 C 
ATOM     12  C   UNL     1      33.920 -12.207 -24.067  0.00  0.00    +0.219 C 
ATOM     13  C   UNL     1      34.563 -14.891 -21.708  0.00  0.00    +0.092 C 
ATOM     14  C   UNL     1      35.206 -15.755 -23.937  0.00  0.00    +0.034 C 
ATOM     15  C   UNL     1      34.636 -16.138 -22.579  0.00  0.00    +0.021 C 
BRANCH   9  18
ATOM     16  O   UNL     1      32.250 -14.332 -25.378  0.00  0.00    -0.244 OA
ATOM     17  O   UNL     1      33.339 -16.314 -25.720  0.00  0.00    -0.244 OA
ATOM     18  C   UNL     1      33.222 -15.131 -25.292  0.00  0.00    +0.384 C 
ENDBRANCH   9  18
ENDBRANCH   1   7
BRANCH   1  19
ATOM     19  C   UNL     1      33.297  -8.783 -22.584  0.00  0.00    +0.041 C 
BRANCH  19  21
ATOM     20  O   UNL     1      31.002  -8.329 -23.236  0.00  0.00    -0.252 OA
ATOM     21  C   UNL     1      31.861  -8.361 -22.363  0.00  0.00    +0.297 C 
BRANCH  21  22
ATOM     22  O   UNL     1      31.663  -8.066 -21.044  0.00  0.00    -0.450 OA
BRANCH  22  23
ATOM     23  C   UNL     1      32.398  -8.868 -20.114  0.00  0.00    +0.208 C 
ATOM     24  C   UNL     1      31.456  -9.859 -19.465  0.00  0.00    +0.051 C 
ENDBRANCH  22  23
ENDBRANCH  21  22
ENDBRANCH  19  21
BRANCH  19  25
ATOM     25  C   UNL     1      34.253  -7.636 -22.949  0.00  0.00    -0.006 C 
BRANCH  25  26
ATOM     26  C   UNL     1      34.657  -7.501 -24.426  0.00  0.00    +0.025 C 
BRANCH  26  27
ATOM     27  C   UNL     1      34.030  -6.339 -25.152  0.00  0.00    -0.022 C 
ATOM     28  C   UNL     1      34.673  -5.777 -26.255  0.00  0.00    -0.004 C 
ATOM     29  C   UNL     1      32.806  -5.825 -24.721  0.00  0.00    -0.004 C 
ATOM     30  C   UNL     1      34.092  -4.701 -26.927  0.00  0.00    -0.000 C 
ATOM     31  C   UNL     1      32.226  -4.750 -25.393  0.00  0.00    -0.000 C 
ATOM     32  C   UNL     1      32.870  -4.187 -26.496  0.00  0.00    -0.000 C 
ENDBRANCH  26  27
ENDBRANCH  25  26
ENDBRANCH  19  25
ENDBRANCH   1  19
TORSDOF 9
ENDMDL
MODEL 6
REMARK VINA RESULT:      -8.9      9.228     13.909
REMARK  Name = 40466888
REMARK  9 active torsions:
REMARK  status: ('A' for Active; 'I' for Inactive)
REMARK    1  A    between atoms: N_1  and  C_7
REMARK    2  A    between atoms: N_1  and  C_19
REMARK    3  A    between atoms: C_9  and  C_18
REMARK    4  A    between atoms: C_19  and  C_21
REMARK    5  A    between atoms: C_19  and  C_25
REMARK    6  A    between atoms: C_21  and  O_22
REMARK    7  A    between atoms: O_22  and  C_23
REMARK    8  A    between atoms: C_25  and  C_26
REMARK    9  A    between atoms: C_26  and  C_27
REMARK                            x       y       z     vdW  Elec       q    Type
REMARK                         _______ _______ _______ _____ _____    ______ ____
ROOT
ATOM      1  N   UNL     1      33.530 -14.512 -23.456  0.00  0.00    +0.399 N 
ATOM      2  H   UNL     1      32.707 -14.880 -23.931  0.00  0.00    -0.083 HD
ATOM      3  H   UNL     1      33.402 -14.444 -22.447  0.00  0.00    -0.083 HD
ENDROOT
BRANCH   1   7
ATOM      4  O   UNL     1      32.441 -12.491 -22.063  0.00  0.00    -0.276 OA
ATOM      5  N   UNL     1      33.465 -10.776 -23.233  0.00  0.00    -0.214 N 
ATOM      6  N   UNL     1      34.331 -10.453 -24.298  0.00  0.00    -0.202 NA
ATOM      7  C   UNL     1      33.784 -13.125 -23.957  0.00  0.00    +0.019 C 
ATOM      8  C   UNL     1      33.145 -13.006 -25.346  0.00  0.00    -0.011 C 
ATOM      9  C   UNL     1      32.759  -9.707 -22.513  0.00  0.00    +0.194 C 
ATOM     10  C   UNL     1      33.655 -10.479 -25.593  0.00  0.00    +0.092 C 
ATOM     11  C   UNL     1      33.743 -11.883 -26.198  0.00  0.00    +0.017 C 
ATOM     12  C   UNL     1      33.172 -12.118 -22.985  0.00  0.00    +0.219 C 
ATOM     13  C   UNL     1      35.141  -9.262 -24.057  0.00  0.00    +0.092 C 
ATOM     14  C   UNL     1      33.552  -8.414 -22.358  0.00  0.00    +0.034 C 
ATOM     15  C   UNL     1      34.310  -8.060 -23.629  0.00  0.00    +0.021 C 
BRANCH   9  18
ATOM     16  O   UNL     1      31.431  -8.463 -24.010  0.00  0.00    -0.244 OA
ATOM     17  O   UNL     1      30.455 -10.107 -22.753  0.00  0.00    -0.244 OA
ATOM     18  C   UNL     1      31.416  -9.393 -23.157  0.00  0.00    +0.384 C 
ENDBRANCH   9  18
ENDBRANCH   1   7
BRANCH   1  19
ATOM     19  C   UNL     1      34.658 -15.449 -23.684  0.00  0.00    +0.041 C 
BRANCH  19  21
ATOM     20  O   UNL     1      33.603 -16.124 -25.764  0.00  0.00    -0.252 OA
ATOM     21  C   UNL     1      34.336 -16.394 -24.821  0.00  0.00    +0.297 C 
BRANCH  21  22
ATOM     22  O   UNL     1      35.016 -17.566 -24.655  0.00  0.00    -0.450 OA
BRANCH  22  23
ATOM     23  C   UNL     1      34.280 -18.756 -24.955  0.00  0.00    +0.208 C 
ATOM     24  C   UNL     1      35.029 -19.951 -24.407  0.00  0.00    +0.051 C 
ENDBRANCH  22  23
ENDBRANCH  21  22
ENDBRANCH  19  21
BRANCH  19  25
ATOM     25  C   UNL     1      35.038 -16.139 -22.365  0.00  0.00    -0.006 C 
BRANCH  25  26
ATOM     26  C   UNL     1      33.941 -16.949 -21.655  0.00  0.00    +0.025 C 
BRANCH  26  27
ATOM     27  C   UNL     1      34.372 -18.305 -21.160  0.00  0.00    -0.022 C 
ATOM     28  C   UNL     1      35.729 -18.609 -21.054  0.00  0.00    -0.004 C 
ATOM     29  C   UNL     1      33.414 -19.257 -20.808  0.00  0.00    -0.004 C 
ATOM     30  C   UNL     1      36.129 -19.865 -20.596  0.00  0.00    -0.000 C 
ATOM     31  C   UNL     1      33.814 -20.512 -20.351  0.00  0.00    -0.000 C 
ATOM     32  C   UNL     1      35.172 -20.817 -20.245  0.00  0.00    -0.000 C 
ENDBRANCH  26  27
ENDBRANCH  25  26
ENDBRANCH  19  25
ENDBRANCH   1  19
TORSDOF 9
ENDMDL
MODEL 7
REMARK VINA RESULT:      -8.8      2.288      5.082
REMARK  Name = 40466888
REMARK  9 active torsions:
REMARK  status: ('A' for Active; 'I' for Inactive)
REMARK    1  A    between atoms: N_1  and  C_7
REMARK    2  A    between atoms: N_1  and  C_19
REMARK    3  A    between atoms: C_9  and  C_18
REMARK    4  A    between atoms: C_19  and  C_21
REMARK    5  A    between atoms: C_19  and  C_25
REMARK    6  A    between atoms: C_21  and  O_22
REMARK    7  A    between atoms: O_22  and  C_23
REMARK    8  A    between atoms: C_25  and  C_26
REMARK    9  A    between atoms: C_26  and  C_27
REMARK                            x       y       z     vdW  Elec       q    Type
REMARK                         _______ _______ _______ _____ _____    ______ ____
ROOT
ATOM      1  N   UNL     1      34.529 -22.478 -16.769  0.00  0.00    +0.399 N 
ATOM      2  H   UNL     1      35.359 -22.632 -17.341  0.00  0.00    -0.083 HD
ATOM      3  H   UNL     1      34.273 -21.493 -16.708  0.00  0.00    -0.083 HD
ENDROOT
BRANCH   1   7
ATOM      4  O   UNL     1      36.930 -23.600 -16.334  0.00  0.00    -0.276 OA
ATOM      5  N   UNL     1      36.736 -23.767 -14.034  0.00  0.00    -0.214 N 
ATOM      6  N   UNL     1      35.903 -23.539 -12.920  0.00  0.00    -0.202 NA
ATOM      7  C   UNL     1      34.825 -22.938 -15.375  0.00  0.00    +0.019 C 
ATOM      8  C   UNL     1      33.827 -24.050 -15.029  0.00  0.00    -0.011 C 
ATOM      9  C   UNL     1      38.011 -24.478 -13.861  0.00  0.00    +0.194 C 
ATOM     10  C   UNL     1      34.910 -24.596 -12.742  0.00  0.00    +0.092 C 
ATOM     11  C   UNL     1      33.639 -24.253 -13.524  0.00  0.00    +0.017 C 
ATOM     12  C   UNL     1      36.261 -23.452 -15.308  0.00  0.00    +0.219 C 
ATOM     13  C   UNL     1      36.630 -23.174 -11.707  0.00  0.00    +0.092 C 
ATOM     14  C   UNL     1      38.724 -24.195 -12.544  0.00  0.00    +0.034 C 
ATOM     15  C   UNL     1      37.750 -24.149 -11.374  0.00  0.00    +0.021 C 
BRANCH   9  18
ATOM     16  O   UNL     1      37.518 -26.603 -12.971  0.00  0.00    -0.244 OA
ATOM     17  O   UNL     1      38.035 -26.416 -15.191  0.00  0.00    -0.244 OA
ATOM     18  C   UNL     1      37.837 -25.981 -14.022  0.00  0.00    +0.384 C 
ENDBRANCH   9  18
ENDBRANCH   1   7
BRANCH   1  19
ATOM     19  C   UNL     1      33.387 -23.180 -17.404  0.00  0.00    +0.041 C 
BRANCH  19  21
ATOM     20  O   UNL     1      34.087 -23.964 -19.593  0.00  0.00    -0.252 OA
ATOM     21  C   UNL     1      33.509 -23.127 -18.911  0.00  0.00    +0.297 C 
BRANCH  21  22
ATOM     22  O   UNL     1      32.845 -22.034 -19.390  0.00  0.00    -0.450 OA
BRANCH  22  23
ATOM     23  C   UNL     1      33.671 -20.968 -19.868  0.00  0.00    +0.208 C 
ATOM     24  C   UNL     1      32.797 -19.925 -20.531  0.00  0.00    +0.051 C 
ENDBRANCH  22  23
ENDBRANCH  21  22
ENDBRANCH  19  21
BRANCH  19  25
ATOM     25  C   UNL     1      32.064 -22.632 -16.848  0.00  0.00    -0.006 C 
BRANCH  25  26
ATOM     26  C   UNL     1      31.039 -23.657 -16.335  0.00  0.00    +0.025 C 
BRANCH  26  27
ATOM     27  C   UNL     1      29.630 -23.139 -16.212  0.00  0.00    -0.022 C 
ATOM     28  C   UNL     1      29.205 -22.551 -15.021  0.00  0.00    -0.004 C 
ATOM     29  C   UNL     1      28.749 -23.247 -17.290  0.00  0.00    -0.004 C 
ATOM     30  C   UNL     1      27.899 -22.072 -14.907  0.00  0.00    -0.000 C 
ATOM     31  C   UNL     1      27.445 -22.768 -17.175  0.00  0.00    -0.000 C 
ATOM     32  C   UNL     1      27.020 -22.180 -15.983  0.00  0.00    -0.000 C 
ENDBRANCH  26  27
ENDBRANCH  25  26
ENDBRANCH  19  25
ENDBRANCH   1  19
TORSDOF 9
ENDMDL
MODEL 8
REMARK VINA RESULT:      -8.8     12.803     16.485
REMARK  Name = 40466888
REMARK  9 active torsions:
REMARK  status: ('A' for Active; 'I' for Inactive)
REMARK    1  A    between atoms: N_1  and  C_7
REMARK    2  A    between atoms: N_1  and  C_19
REMARK    3  A    between atoms: C_9  and  C_18
REMARK    4  A    between atoms: C_19  and  C_21
REMARK    5  A    between atoms: C_19  and  C_25
REMARK    6  A    between atoms: C_21  and  O_22
REMARK    7  A    between atoms: O_22  and  C_23
REMARK    8  A    between atoms: C_25  and  C_26
REMARK    9  A    between atoms: C_26  and  C_27
REMARK                            x       y       z     vdW  Elec       q    Type
REMARK                         _______ _______ _______ _____ _____    ______ ____
ROOT
ATOM      1  N   UNL     1      31.759  -8.668 -22.579  0.00  0.00    +0.399 N 
ATOM      2  H   UNL     1      31.313  -9.250 -21.871  0.00  0.00    -0.083 HD
ATOM      3  H   UNL     1      31.084  -8.166 -23.156  0.00  0.00    -0.083 HD
ENDROOT
BRANCH   1   7
ATOM      4  O   UNL     1      31.541 -11.316 -22.195  0.00  0.00    -0.276 OA
ATOM      5  N   UNL     1      32.740 -11.960 -24.068  0.00  0.00    -0.214 N 
ATOM      6  N   UNL     1      33.471 -11.513 -25.187  0.00  0.00    -0.202 NA
ATOM      7  C   UNL     1      32.540  -9.556 -23.497  0.00  0.00    +0.019 C 
ATOM      8  C   UNL     1      34.029  -9.269 -23.269  0.00  0.00    -0.011 C 
ATOM      9  C   UNL     1      32.685 -13.394 -23.753  0.00  0.00    +0.194 C 
ATOM     10  C   UNL     1      34.846 -11.154 -24.845  0.00  0.00    +0.092 C 
ATOM     11  C   UNL     1      34.915  -9.676 -24.449  0.00  0.00    +0.017 C 
ATOM     12  C   UNL     1      32.210 -11.015 -23.186  0.00  0.00    +0.219 C 
ATOM     13  C   UNL     1      33.339 -12.375 -26.358  0.00  0.00    +0.092 C 
ATOM     14  C   UNL     1      32.665 -14.311 -24.971  0.00  0.00    +0.034 C 
ATOM     15  C   UNL     1      33.628 -13.837 -26.051  0.00  0.00    +0.021 C 
BRANCH   9  18
ATOM     16  O   UNL     1      34.830 -14.308 -23.415  0.00  0.00    -0.244 OA
ATOM     17  O   UNL     1      33.622 -13.597 -21.607  0.00  0.00    -0.244 OA
ATOM     18  C   UNL     1      33.826 -13.808 -22.836  0.00  0.00    +0.384 C 
ENDBRANCH   9  18
ENDBRANCH   1   7
BRANCH   1  19
ATOM     19  C   UNL     1      32.582  -7.644 -21.891  0.00  0.00    +0.041 C 
BRANCH  19  21
ATOM     20  O   UNL     1      32.993  -7.056 -19.571  0.00  0.00    -0.252 OA
ATOM     21  C   UNL     1      32.484  -7.811 -20.390  0.00  0.00    +0.297 C 
BRANCH  21  22
ATOM     22  O   UNL     1      31.712  -8.898 -20.095  0.00  0.00    -0.450 OA
BRANCH  22  23
ATOM     23  C   UNL     1      32.295  -9.844 -19.193  0.00  0.00    +0.208 C 
ATOM     24  C   UNL     1      31.256 -10.881 -18.827  0.00  0.00    +0.051 C 
ENDBRANCH  22  23
ENDBRANCH  21  22
ENDBRANCH  19  21
BRANCH  19  25
ATOM     25  C   UNL     1      32.211  -6.244 -22.405  0.00  0.00    -0.006 C 
BRANCH  25  26
ATOM     26  C   UNL     1      31.557  -6.156 -23.794  0.00  0.00    +0.025 C 
BRANCH  26  27
ATOM     27  C   UNL     1      32.454  -5.636 -24.886  0.00  0.00    -0.022 C 
ATOM     28  C   UNL     1      33.704  -6.217 -25.097  0.00  0.00    -0.004 C 
ATOM     29  C   UNL     1      32.035  -4.573 -25.687  0.00  0.00    -0.004 C 
ATOM     30  C   UNL     1      34.536  -5.735 -26.109  0.00  0.00    -0.000 C 
ATOM     31  C   UNL     1      32.866  -4.092 -26.698  0.00  0.00    -0.000 C 
ATOM     32  C   UNL     1      34.117  -4.672 -26.908  0.00  0.00    -0.000 C 
ENDBRANCH  26  27
ENDBRANCH  25  26
ENDBRANCH  19  25
ENDBRANCH   1  19
TORSDOF 9
ENDMDL
MODEL 9
REMARK VINA RESULT:      -8.6      2.524      7.514
REMARK  Name = 40466888
REMARK  9 active torsions:
REMARK  status: ('A' for Active; 'I' for Inactive)
REMARK    1  A    between atoms: N_1  and  C_7
REMARK    2  A    between atoms: N_1  and  C_19
REMARK    3  A    between atoms: C_9  and  C_18
REMARK    4  A    between atoms: C_19  and  C_21
REMARK    5  A    between atoms: C_19  and  C_25
REMARK    6  A    between atoms: C_21  and  O_22
REMARK    7  A    between atoms: O_22  and  C_23
REMARK    8  A    between atoms: C_25  and  C_26
REMARK    9  A    between atoms: C_26  and  C_27
REMARK                            x       y       z     vdW  Elec       q    Type
REMARK                         _______ _______ _______ _____ _____    ______ ____
ROOT
ATOM      1  N   UNL     1      34.291 -22.840 -16.736  0.00  0.00    +0.399 N 
ATOM      2  H   UNL     1      34.060 -21.868 -16.941  0.00  0.00    -0.083 HD
ATOM      3  H   UNL     1      34.363 -23.411 -17.578  0.00  0.00    -0.083 HD
ENDROOT
BRANCH   1   7
ATOM      4  O   UNL     1      31.781 -22.498 -17.627  0.00  0.00    -0.276 OA
ATOM      5  N   UNL     1      30.750 -23.843 -16.049  0.00  0.00    -0.214 N 
ATOM      6  N   UNL     1      30.944 -24.659 -14.916  0.00  0.00    -0.202 NA
ATOM      7  C   UNL     1      33.188 -23.422 -15.908  0.00  0.00    +0.019 C 
ATOM      8  C   UNL     1      33.200 -22.711 -14.549  0.00  0.00    -0.011 C 
ATOM      9  C   UNL     1      29.388 -23.537 -16.508  0.00  0.00    +0.194 C 
ATOM     10  C   UNL     1      31.059 -23.881 -13.684  0.00  0.00    +0.092 C 
ATOM     11  C   UNL     1      32.524 -23.514 -13.435  0.00  0.00    +0.017 C 
ATOM     12  C   UNL     1      31.856 -23.212 -16.623  0.00  0.00    +0.219 C 
ATOM     13  C   UNL     1      30.021 -25.788 -14.840  0.00  0.00    +0.092 C 
ATOM     14  C   UNL     1      28.386 -24.671 -16.325  0.00  0.00    +0.034 C 
ATOM     15  C   UNL     1      28.564 -25.372 -14.986  0.00  0.00    +0.021 C 
BRANCH   9  18
ATOM     16  O   UNL     1      29.403 -21.960 -14.758  0.00  0.00    -0.244 OA
ATOM     17  O   UNL     1      27.902 -21.716 -16.467  0.00  0.00    -0.244 OA
ATOM     18  C   UNL     1      28.845 -22.280 -15.844  0.00  0.00    +0.384 C 
ENDBRANCH   9  18
ENDBRANCH   1   7
BRANCH   1  19
ATOM     19  C   UNL     1      35.620 -22.875 -16.078  0.00  0.00    +0.041 C 
BRANCH  19  21
ATOM     20  O   UNL     1      37.432 -21.288 -16.383  0.00  0.00    -0.252 OA
ATOM     21  C   UNL     1      36.622 -22.066 -16.872  0.00  0.00    +0.297 C 
BRANCH  21  22
ATOM     22  O   UNL     1      36.514 -22.368 -18.199  0.00  0.00    -0.450 OA
BRANCH  22  23
ATOM     23  C   UNL     1      36.517 -21.248 -19.090  0.00  0.00    +0.208 C 
ATOM     24  C   UNL     1      35.129 -21.074 -19.669  0.00  0.00    +0.051 C 
ENDBRANCH  22  23
ENDBRANCH  21  22
ENDBRANCH  19  21
BRANCH  19  25
ATOM     25  C   UNL     1      36.034 -24.332 -15.818  0.00  0.00    -0.006 C 
BRANCH  25  26
ATOM     26  C   UNL     1      37.174 -24.570 -14.814  0.00  0.00    +0.025 C 
BRANCH  26  27
ATOM     27  C   UNL     1      36.832 -24.257 -13.381  0.00  0.00    -0.022 C 
ATOM     28  C   UNL     1      37.436 -23.175 -12.740  0.00  0.00    -0.004 C 
ATOM     29  C   UNL     1      35.911 -25.050 -12.693  0.00  0.00    -0.004 C 
ATOM     30  C   UNL     1      37.119 -22.886 -11.412  0.00  0.00    -0.000 C 
ATOM     31  C   UNL     1      35.595 -24.760 -11.367  0.00  0.00    -0.000 C 
ATOM     32  C   UNL     1      36.200 -23.678 -10.725  0.00  0.00    -0.000 C 
ENDBRANCH  26  27
ENDBRANCH  25  26
ENDBRANCH  19  25
ENDBRANCH   1  19
TORSDOF 9
ENDMDL
