MODEL 1
REMARK VINA RESULT:      -9.3      0.000      0.000
REMARK  Name = 92400
REMARK  9 active torsions:
REMARK  status: ('A' for Active; 'I' for Inactive)
REMARK    1  A    between atoms: C_3  and  C_9
REMARK    2  A    between atoms: C_4  and  S_24
REMARK    3  A    between atoms: C_7  and  C_12
REMARK    4  A    between atoms: C_9  and  O_10
REMARK    5  A    between atoms: C_12  and  C_14
REMARK    6  A    between atoms: C_14  and  S_15
REMARK    7  A    between atoms: S_15  and  C_17
REMARK    8  A    between atoms: C_17  and  C_18
REMARK    9  A    between atoms: S_24  and  C_25
REMARK                            x       y       z     vdW  Elec       q    Type
REMARK                         _______ _______ _______ _____ _____    ______ ____
ROOT
ATOM      1  O   UNL     1      35.141 -18.175 -23.789  0.00  0.00    -0.275 OA
ATOM      2  N   UNL     1      34.587 -16.303 -22.552  0.00  0.00    -0.271 N 
ATOM      3  C   UNL     1      34.452 -15.568 -21.298  0.00  0.00    +0.175 C 
ATOM      4  C   UNL     1      34.170 -14.037 -23.163  0.00  0.00    +0.074 C 
ATOM      5  C   UNL     1      34.581 -14.095 -21.688  0.00  0.00    +0.044 C 
ATOM      6  C   UNL     1      34.593 -15.401 -23.699  0.00  0.00    +0.105 C 
ATOM      7  C   UNL     1      34.870 -17.651 -22.706  0.00  0.00    +0.226 C 
ENDROOT
BRANCH   3   9
ATOM      8  O   UNL     1      32.442 -16.851 -20.901  0.00  0.00    -0.248 OA
ATOM      9  C   UNL     1      33.111 -15.851 -20.690  0.00  0.00    +0.332 C 
BRANCH   9  10
ATOM     10  O   UNL     1      32.734 -14.839 -19.870  0.00  0.00    -0.479 OA
ATOM     11  H   UNL     1      32.665 -13.966 -20.205  0.00  0.00    +0.295 HD
ENDBRANCH   9  10
ENDBRANCH   3   9
BRANCH   7  12
ATOM     12  C   UNL     1      34.830 -18.487 -21.452  0.00  0.00    +0.088 C 
ATOM     13  C   UNL     1      36.267 -18.681 -20.983  0.00  0.00    +0.010 C 
BRANCH  12  14
ATOM     14  C   UNL     1      34.157 -19.832 -21.715  0.00  0.00    +0.074 C 
BRANCH  14  15
ATOM     15  S   UNL     1      33.338 -20.484 -20.225  0.00  0.00    -0.072 S 
BRANCH  15  17
ATOM     16  O   UNL     1      35.616 -21.802 -20.260  0.00  0.00    -0.280 OA
ATOM     17  C   UNL     1      34.592 -21.568 -19.631  0.00  0.00    +0.221 C 
BRANCH  17  18
ATOM     18  C   UNL     1      34.345 -22.239 -18.329  0.00  0.00    +0.045 C 
ATOM     19  C   UNL     1      33.067 -22.698 -18.013  0.00  0.00    +0.004 C 
ATOM     20  C   UNL     1      35.391 -22.410 -17.422  0.00  0.00    +0.004 C 
ATOM     21  C   UNL     1      32.833 -23.328 -16.791  0.00  0.00    +0.000 C 
ATOM     22  C   UNL     1      35.159 -23.040 -16.200  0.00  0.00    +0.000 C 
ATOM     23  C   UNL     1      33.879 -23.500 -15.885  0.00  0.00    +0.000 C 
ENDBRANCH  17  18
ENDBRANCH  15  17
ENDBRANCH  14  15
ENDBRANCH  12  14
ENDBRANCH   7  12
BRANCH   4  24
ATOM     24  S   UNL     1      32.378 -13.763 -23.367  0.00  0.00    -0.113 S 
BRANCH  24  25
ATOM     25  C   UNL     1      32.184 -12.161 -22.598  0.00  0.00    +0.025 C 
ATOM     26  C   UNL     1      31.504 -12.045 -21.386  0.00  0.00    +0.006 C 
ATOM     27  C   UNL     1      32.713 -11.025 -23.211  0.00  0.00    +0.006 C 
ATOM     28  C   UNL     1      31.352 -10.795 -20.787  0.00  0.00    +0.001 C 
ATOM     29  C   UNL     1      32.562  -9.774 -22.612  0.00  0.00    +0.001 C 
ATOM     30  C   UNL     1      31.882  -9.659 -21.400  0.00  0.00    +0.000 C 
ENDBRANCH  24  25
ENDBRANCH   4  24
TORSDOF 9
ENDMDL
MODEL 2
REMARK VINA RESULT:      -9.1      2.702      4.836
REMARK  Name = 92400
REMARK  9 active torsions:
REMARK  status: ('A' for Active; 'I' for Inactive)
REMARK    1  A    between atoms: C_3  and  C_9
REMARK    2  A    between atoms: C_4  and  S_24
REMARK    3  A    between atoms: C_7  and  C_12
REMARK    4  A    between atoms: C_9  and  O_10
REMARK    5  A    between atoms: C_12  and  C_14
REMARK    6  A    between atoms: C_14  and  S_15
REMARK    7  A    between atoms: S_15  and  C_17
REMARK    8  A    between atoms: C_17  and  C_18
REMARK    9  A    between atoms: S_24  and  C_25
REMARK                            x       y       z     vdW  Elec       q    Type
REMARK                         _______ _______ _______ _____ _____    ______ ____
ROOT
ATOM      1  O   UNL     1      32.481 -21.066 -19.131  0.00  0.00    -0.275 OA
ATOM      2  N   UNL     1      34.114 -20.194 -20.516  0.00  0.00    -0.271 N 
ATOM      3  C   UNL     1      35.364 -20.281 -21.264  0.00  0.00    +0.175 C 
ATOM      4  C   UNL     1      34.172 -18.267 -21.917  0.00  0.00    +0.074 C 
ATOM      5  C   UNL     1      35.206 -19.283 -22.412  0.00  0.00    +0.044 C 
ATOM      6  C   UNL     1      33.284 -19.093 -20.993  0.00  0.00    +0.105 C 
ATOM      7  C   UNL     1      33.622 -21.110 -19.599  0.00  0.00    +0.226 C 
ENDROOT
BRANCH   3   9
ATOM      8  O   UNL     1      36.611 -20.207 -19.194  0.00  0.00    -0.248 OA
ATOM      9  C   UNL     1      36.510 -19.904 -20.374  0.00  0.00    +0.332 C 
BRANCH   9  10
ATOM     10  O   UNL     1      37.427 -19.174 -21.056  0.00  0.00    -0.479 OA
ATOM     11  H   UNL     1      37.453 -18.242 -20.954  0.00  0.00    +0.295 HD
ENDBRANCH   9  10
ENDBRANCH   3   9
BRANCH   7  12
ATOM     12  C   UNL     1      34.570 -22.203 -19.175  0.00  0.00    +0.088 C 
ATOM     13  C   UNL     1      34.156 -23.478 -19.902  0.00  0.00    +0.010 C 
BRANCH  12  14
ATOM     14  C   UNL     1      34.530 -22.402 -17.662  0.00  0.00    +0.074 C 
BRANCH  14  15
ATOM     15  S   UNL     1      33.684 -23.947 -17.203  0.00  0.00    -0.072 S 
BRANCH  15  17
ATOM     16  O   UNL     1      33.462 -23.006 -14.755  0.00  0.00    -0.280 OA
ATOM     17  C   UNL     1      32.861 -23.427 -15.736  0.00  0.00    +0.221 C 
BRANCH  17  18
ATOM     18  C   UNL     1      31.382 -23.554 -15.709  0.00  0.00    +0.045 C 
ATOM     19  C   UNL     1      30.779 -24.502 -14.883  0.00  0.00    +0.004 C 
ATOM     20  C   UNL     1      30.596 -22.726 -16.510  0.00  0.00    +0.004 C 
ATOM     21  C   UNL     1      29.390 -24.622 -14.856  0.00  0.00    +0.000 C 
ATOM     22  C   UNL     1      29.206 -22.845 -16.484  0.00  0.00    +0.000 C 
ATOM     23  C   UNL     1      28.603 -23.794 -15.656  0.00  0.00    +0.000 C 
ENDBRANCH  17  18
ENDBRANCH  15  17
ENDBRANCH  14  15
ENDBRANCH  12  14
ENDBRANCH   7  12
BRANCH   4  24
ATOM     24  S   UNL     1      34.948 -16.873 -21.032  0.00  0.00    -0.113 S 
BRANCH  24  25
ATOM     25  C   UNL     1      34.091 -15.483 -21.758  0.00  0.00    +0.025 C 
ATOM     26  C   UNL     1      33.011 -14.903 -21.092  0.00  0.00    +0.006 C 
ATOM     27  C   UNL     1      34.501 -14.977 -22.991  0.00  0.00    +0.006 C 
ATOM     28  C   UNL     1      32.342 -13.818 -21.658  0.00  0.00    +0.001 C 
ATOM     29  C   UNL     1      33.833 -13.891 -23.558  0.00  0.00    +0.001 C 
ATOM     30  C   UNL     1      32.753 -13.312 -22.891  0.00  0.00    +0.000 C 
ENDBRANCH  24  25
ENDBRANCH   4  24
TORSDOF 9
ENDMDL
MODEL 3
REMARK VINA RESULT:      -9.1      2.221      9.887
REMARK  Name = 92400
REMARK  9 active torsions:
REMARK  status: ('A' for Active; 'I' for Inactive)
REMARK    1  A    between atoms: C_3  and  C_9
REMARK    2  A    between atoms: C_4  and  S_24
REMARK    3  A    between atoms: C_7  and  C_12
REMARK    4  A    between atoms: C_9  and  O_10
REMARK    5  A    between atoms: C_12  and  C_14
REMARK    6  A    between atoms: C_14  and  S_15
REMARK    7  A    between atoms: S_15  and  C_17
REMARK    8  A    between atoms: C_17  and  C_18
REMARK    9  A    between atoms: S_24  and  C_25
REMARK                            x       y       z     vdW  Elec       q    Type
REMARK                         _______ _______ _______ _____ _____    ______ ____
ROOT
ATOM      1  O   UNL     1      35.099 -16.438 -25.699  0.00  0.00    -0.275 OA
ATOM      2  N   UNL     1      34.402 -17.364 -23.699  0.00  0.00    -0.271 N 
ATOM      3  C   UNL     1      33.485 -17.475 -22.568  0.00  0.00    +0.175 C 
ATOM      4  C   UNL     1      35.019 -19.359 -22.549  0.00  0.00    +0.074 C 
ATOM      5  C   UNL     1      33.625 -18.919 -22.087  0.00  0.00    +0.044 C 
ATOM      6  C   UNL     1      35.233 -18.557 -23.828  0.00  0.00    +0.105 C 
ATOM      7  C   UNL     1      34.411 -16.382 -24.677  0.00  0.00    +0.226 C 
ENDROOT
BRANCH   3   9
ATOM      8  O   UNL     1      35.038 -16.233 -21.193  0.00  0.00    -0.248 OA
ATOM      9  C   UNL     1      33.886 -16.505 -21.497  0.00  0.00    +0.332 C 
BRANCH   9  10
ATOM     10  O   UNL     1      32.792 -15.969 -20.903  0.00  0.00    -0.479 OA
ATOM     11  H   UNL     1      32.886 -15.246 -20.313  0.00  0.00    +0.295 HD
ENDBRANCH   9  10
ENDBRANCH   3   9
BRANCH   7  12
ATOM     12  C   UNL     1      33.517 -15.193 -24.434  0.00  0.00    +0.088 C 
ATOM     13  C   UNL     1      32.913 -14.792 -25.775  0.00  0.00    +0.010 C 
BRANCH  12  14
ATOM     14  C   UNL     1      34.302 -14.035 -23.823  0.00  0.00    +0.074 C 
BRANCH  14  15
ATOM     15  S   UNL     1      33.213 -12.664 -23.325  0.00  0.00    -0.072 S 
BRANCH  15  17
ATOM     16  O   UNL     1      34.290 -11.602 -25.479  0.00  0.00    -0.280 OA
ATOM     17  C   UNL     1      33.828 -11.384 -24.366  0.00  0.00    +0.221 C 
BRANCH  17  18
ATOM     18  C   UNL     1      33.806 -10.002 -23.823  0.00  0.00    +0.045 C 
ATOM     19  C   UNL     1      32.764  -9.597 -22.990  0.00  0.00    +0.004 C 
ATOM     20  C   UNL     1      34.828  -9.109 -24.146  0.00  0.00    +0.004 C 
ATOM     21  C   UNL     1      32.742  -8.300 -22.479  0.00  0.00    +0.000 C 
ATOM     22  C   UNL     1      34.807  -7.811 -23.635  0.00  0.00    +0.000 C 
ATOM     23  C   UNL     1      33.763  -7.407 -22.801  0.00  0.00    +0.000 C 
ENDBRANCH  17  18
ENDBRANCH  15  17
ENDBRANCH  14  15
ENDBRANCH  12  14
ENDBRANCH   7  12
BRANCH   4  24
ATOM     24  S   UNL     1      36.302 -18.993 -21.304  0.00  0.00    -0.113 S 
BRANCH  24  25
ATOM     25  C   UNL     1      35.968 -20.254 -20.082  0.00  0.00    +0.025 C 
ATOM     26  C   UNL     1      36.953 -20.615 -19.164  0.00  0.00    +0.006 C 
ATOM     27  C   UNL     1      34.720 -20.877 -20.047  0.00  0.00    +0.006 C 
ATOM     28  C   UNL     1      36.693 -21.599 -18.211  0.00  0.00    +0.001 C 
ATOM     29  C   UNL     1      34.459 -21.861 -19.093  0.00  0.00    +0.001 C 
ATOM     30  C   UNL     1      35.446 -22.222 -18.175  0.00  0.00    +0.000 C 
ENDBRANCH  24  25
ENDBRANCH   4  24
TORSDOF 9
ENDMDL
MODEL 4
REMARK VINA RESULT:      -9.0      2.144      3.768
REMARK  Name = 92400
REMARK  9 active torsions:
REMARK  status: ('A' for Active; 'I' for Inactive)
REMARK    1  A    between atoms: C_3  and  C_9
REMARK    2  A    between atoms: C_4  and  S_24
REMARK    3  A    between atoms: C_7  and  C_12
REMARK    4  A    between atoms: C_9  and  O_10
REMARK    5  A    between atoms: C_12  and  C_14
REMARK    6  A    between atoms: C_14  and  S_15
REMARK    7  A    between atoms: S_15  and  C_17
REMARK    8  A    between atoms: C_17  and  C_18
REMARK    9  A    between atoms: S_24  and  C_25
REMARK                            x       y       z     vdW  Elec       q    Type
REMARK                         _______ _______ _______ _____ _____    ______ ____
ROOT
ATOM      1  O   UNL     1      32.696 -14.374 -19.968  0.00  0.00    -0.275 OA
ATOM      2  N   UNL     1      32.715 -14.081 -22.261  0.00  0.00    -0.271 N 
ATOM      3  C   UNL     1      32.657 -14.574 -23.634  0.00  0.00    +0.175 C 
ATOM      4  C   UNL     1      32.456 -12.154 -23.638  0.00  0.00    +0.074 C 
ATOM      5  C   UNL     1      32.105 -13.405 -24.450  0.00  0.00    +0.044 C 
ATOM      6  C   UNL     1      32.431 -12.651 -22.197  0.00  0.00    +0.105 C 
ATOM      7  C   UNL     1      32.826 -14.837 -21.104  0.00  0.00    +0.226 C 
ENDROOT
BRANCH   3   9
ATOM      8  O   UNL     1      35.069 -14.674 -23.507  0.00  0.00    -0.248 OA
ATOM      9  C   UNL     1      34.033 -14.953 -24.092  0.00  0.00    +0.332 C 
BRANCH   9  10
ATOM     10  O   UNL     1      33.977 -15.647 -25.255  0.00  0.00    -0.479 OA
ATOM     11  H   UNL     1      34.643 -16.275 -25.458  0.00  0.00    +0.295 HD
ENDBRANCH   9  10
ENDBRANCH   3   9
BRANCH   7  12
ATOM     12  C   UNL     1      33.126 -16.302 -21.292  0.00  0.00    +0.088 C 
ATOM     13  C   UNL     1      31.955 -17.089 -20.714  0.00  0.00    +0.010 C 
BRANCH  12  14
ATOM     14  C   UNL     1      34.433 -16.684 -20.601  0.00  0.00    +0.074 C 
BRANCH  14  15
ATOM     15  S   UNL     1      35.604 -17.471 -21.751  0.00  0.00    -0.072 S 
BRANCH  15  17
ATOM     16  O   UNL     1      34.193 -19.184 -23.166  0.00  0.00    -0.280 OA
ATOM     17  C   UNL     1      34.744 -18.969 -22.094  0.00  0.00    +0.221 C 
BRANCH  17  18
ATOM     18  C   UNL     1      34.672 -19.972 -21.001  0.00  0.00    +0.045 C 
ATOM     19  C   UNL     1      33.432 -20.381 -20.511  0.00  0.00    +0.004 C 
ATOM     20  C   UNL     1      35.844 -20.506 -20.466  0.00  0.00    +0.004 C 
ATOM     21  C   UNL     1      33.363 -21.324 -19.486  0.00  0.00    +0.000 C 
ATOM     22  C   UNL     1      35.776 -21.449 -19.441  0.00  0.00    +0.000 C 
ATOM     23  C   UNL     1      34.535 -21.858 -18.951  0.00  0.00    +0.000 C 
ENDBRANCH  17  18
ENDBRANCH  15  17
ENDBRANCH  14  15
ENDBRANCH  12  14
ENDBRANCH   7  12
BRANCH   4  24
ATOM     24  S   UNL     1      34.091 -11.480 -24.087  0.00  0.00    -0.113 S 
BRANCH  24  25
ATOM     25  C   UNL     1      33.814  -9.727 -23.872  0.00  0.00    +0.025 C 
ATOM     26  C   UNL     1      32.538  -9.254 -23.567  0.00  0.00    +0.006 C 
ATOM     27  C   UNL     1      34.875  -8.832 -24.009  0.00  0.00    +0.006 C 
ATOM     28  C   UNL     1      32.322  -7.886 -23.400  0.00  0.00    +0.001 C 
ATOM     29  C   UNL     1      34.659  -7.464 -23.841  0.00  0.00    +0.001 C 
ATOM     30  C   UNL     1      33.382  -6.991 -23.537  0.00  0.00    +0.000 C 
ENDBRANCH  24  25
ENDBRANCH   4  24
TORSDOF 9
ENDMDL
MODEL 5
REMARK VINA RESULT:      -9.0      2.918      5.142
REMARK  Name = 92400
REMARK  9 active torsions:
REMARK  status: ('A' for Active; 'I' for Inactive)
REMARK    1  A    between atoms: C_3  and  C_9
REMARK    2  A    between atoms: C_4  and  S_24
REMARK    3  A    between atoms: C_7  and  C_12
REMARK    4  A    between atoms: C_9  and  O_10
REMARK    5  A    between atoms: C_12  and  C_14
REMARK    6  A    between atoms: C_14  and  S_15
REMARK    7  A    between atoms: S_15  and  C_17
REMARK    8  A    between atoms: C_17  and  C_18
REMARK    9  A    between atoms: S_24  and  C_25
REMARK                            x       y       z     vdW  Elec       q    Type
REMARK                         _______ _______ _______ _____ _____    ______ ____
ROOT
ATOM      1  O   UNL     1      32.436 -21.133 -18.991  0.00  0.00    -0.275 OA
ATOM      2  N   UNL     1      34.077 -20.307 -20.394  0.00  0.00    -0.271 N 
ATOM      3  C   UNL     1      35.325 -20.422 -21.142  0.00  0.00    +0.175 C 
ATOM      4  C   UNL     1      34.156 -18.407 -21.831  0.00  0.00    +0.074 C 
ATOM      5  C   UNL     1      35.177 -19.445 -22.308  0.00  0.00    +0.044 C 
ATOM      6  C   UNL     1      33.259 -19.204 -20.890  0.00  0.00    +0.105 C 
ATOM      7  C   UNL     1      33.575 -21.199 -19.459  0.00  0.00    +0.226 C 
ENDROOT
BRANCH   3   9
ATOM      8  O   UNL     1      36.583 -20.336 -19.079  0.00  0.00    -0.248 OA
ATOM      9  C   UNL     1      36.477 -20.043 -20.261  0.00  0.00    +0.332 C 
BRANCH   9  10
ATOM     10  O   UNL     1      37.393 -19.321 -20.953  0.00  0.00    -0.479 OA
ATOM     11  H   UNL     1      37.813 -18.587 -20.549  0.00  0.00    +0.295 HD
ENDBRANCH   9  10
ENDBRANCH   3   9
BRANCH   7  12
ATOM     12  C   UNL     1      34.511 -22.295 -19.016  0.00  0.00    +0.088 C 
ATOM     13  C   UNL     1      34.302 -23.483 -19.949  0.00  0.00    +0.010 C 
BRANCH  12  14
ATOM     14  C   UNL     1      34.242 -22.688 -17.565  0.00  0.00    +0.074 C 
BRANCH  14  15
ATOM     15  S   UNL     1      35.760 -22.656 -16.561  0.00  0.00    -0.072 S 
BRANCH  15  17
ATOM     16  O   UNL     1      34.140 -23.989 -14.973  0.00  0.00    -0.280 OA
ATOM     17  C   UNL     1      35.306 -23.770 -15.276  0.00  0.00    +0.221 C 
BRANCH  17  18
ATOM     18  C   UNL     1      36.409 -24.423 -14.526  0.00  0.00    +0.045 C 
ATOM     19  C   UNL     1      36.942 -23.807 -13.393  0.00  0.00    +0.004 C 
ATOM     20  C   UNL     1      36.913 -25.651 -14.953  0.00  0.00    +0.004 C 
ATOM     21  C   UNL     1      37.977 -24.419 -12.687  0.00  0.00    +0.000 C 
ATOM     22  C   UNL     1      37.948 -26.264 -14.248  0.00  0.00    +0.000 C 
ATOM     23  C   UNL     1      38.480 -25.647 -13.114  0.00  0.00    +0.000 C 
ENDBRANCH  17  18
ENDBRANCH  15  17
ENDBRANCH  14  15
ENDBRANCH  12  14
ENDBRANCH   7  12
BRANCH   4  24
ATOM     24  S   UNL     1      34.950 -17.006 -20.973  0.00  0.00    -0.113 S 
BRANCH  24  25
ATOM     25  C   UNL     1      34.111 -15.619 -21.726  0.00  0.00    +0.025 C 
ATOM     26  C   UNL     1      34.537 -15.132 -22.962  0.00  0.00    +0.006 C 
ATOM     27  C   UNL     1      33.029 -15.023 -21.078  0.00  0.00    +0.006 C 
ATOM     28  C   UNL     1      33.882 -14.049 -23.549  0.00  0.00    +0.001 C 
ATOM     29  C   UNL     1      32.374 -13.940 -21.665  0.00  0.00    +0.001 C 
ATOM     30  C   UNL     1      32.801 -13.454 -22.901  0.00  0.00    +0.000 C 
ENDBRANCH  24  25
ENDBRANCH   4  24
TORSDOF 9
ENDMDL
MODEL 6
REMARK VINA RESULT:      -8.8      3.453      6.066
REMARK  Name = 92400
REMARK  9 active torsions:
REMARK  status: ('A' for Active; 'I' for Inactive)
REMARK    1  A    between atoms: C_3  and  C_9
REMARK    2  A    between atoms: C_4  and  S_24
REMARK    3  A    between atoms: C_7  and  C_12
REMARK    4  A    between atoms: C_9  and  O_10
REMARK    5  A    between atoms: C_12  and  C_14
REMARK    6  A    between atoms: C_14  and  S_15
REMARK    7  A    between atoms: S_15  and  C_17
REMARK    8  A    between atoms: C_17  and  C_18
REMARK    9  A    between atoms: S_24  and  C_25
REMARK                            x       y       z     vdW  Elec       q    Type
REMARK                         _______ _______ _______ _____ _____    ______ ____
ROOT
ATOM      1  O   UNL     1      32.346 -12.588 -20.942  0.00  0.00    -0.275 OA
ATOM      2  N   UNL     1      32.504 -11.037 -22.648  0.00  0.00    -0.271 N 
ATOM      3  C   UNL     1      32.716 -10.655 -24.041  0.00  0.00    +0.175 C 
ATOM      4  C   UNL     1      31.858  -8.748 -22.805  0.00  0.00    +0.074 C 
ATOM      5  C   UNL     1      31.945  -9.346 -24.213  0.00  0.00    +0.044 C 
ATOM      6  C   UNL     1      31.833  -9.977 -21.903  0.00  0.00    +0.105 C 
ATOM      7  C   UNL     1      32.707 -12.285 -22.082  0.00  0.00    +0.226 C 
ENDROOT
BRANCH   3   9
ATOM      8  O   UNL     1      34.932  -9.804 -23.584  0.00  0.00    -0.248 OA
ATOM      9  C   UNL     1      34.180 -10.457 -24.292  0.00  0.00    +0.332 C 
BRANCH   9  10
ATOM     10  O   UNL     1      34.564 -11.101 -25.422  0.00  0.00    -0.479 OA
ATOM     11  H   UNL     1      34.110 -11.874 -25.698  0.00  0.00    +0.295 HD
ENDBRANCH   9  10
ENDBRANCH   3   9
BRANCH   7  12
ATOM     12  C   UNL     1      33.415 -13.300 -22.944  0.00  0.00    +0.088 C 
ATOM     13  C   UNL     1      32.347 -14.139 -23.637  0.00  0.00    +0.010 C 
BRANCH  12  14
ATOM     14  C   UNL     1      34.338 -14.179 -22.104  0.00  0.00    +0.074 C 
BRANCH  14  15
ATOM     15  S   UNL     1      33.539 -15.745 -21.631  0.00  0.00    -0.072 S 
BRANCH  15  17
ATOM     16  O   UNL     1      35.412 -16.672 -23.230  0.00  0.00    -0.280 OA
ATOM     17  C   UNL     1      34.722 -16.896 -22.244  0.00  0.00    +0.221 C 
BRANCH  17  18
ATOM     18  C   UNL     1      34.833 -18.195 -21.533  0.00  0.00    +0.045 C 
ATOM     19  C   UNL     1      36.089 -18.700 -21.196  0.00  0.00    +0.004 C 
ATOM     20  C   UNL     1      33.682 -18.909 -21.200  0.00  0.00    +0.004 C 
ATOM     21  C   UNL     1      36.195 -19.919 -20.527  0.00  0.00    +0.000 C 
ATOM     22  C   UNL     1      33.787 -20.128 -20.531  0.00  0.00    +0.000 C 
ATOM     23  C   UNL     1      35.044 -20.633 -20.195  0.00  0.00    +0.000 C 
ENDBRANCH  17  18
ENDBRANCH  15  17
ENDBRANCH  14  15
ENDBRANCH  12  14
ENDBRANCH   7  12
BRANCH   4  24
ATOM     24  S   UNL     1      33.280  -7.669 -22.428  0.00  0.00    -0.113 S 
BRANCH  24  25
ATOM     25  C   UNL     1      33.337  -6.647 -23.894  0.00  0.00    +0.025 C 
ATOM     26  C   UNL     1      32.268  -5.806 -24.200  0.00  0.00    +0.006 C 
ATOM     27  C   UNL     1      34.451  -6.691 -24.732  0.00  0.00    +0.006 C 
ATOM     28  C   UNL     1      32.312  -5.009 -25.345  0.00  0.00    +0.001 C 
ATOM     29  C   UNL     1      34.496  -5.894 -25.876  0.00  0.00    +0.001 C 
ATOM     30  C   UNL     1      33.427  -5.053 -26.182  0.00  0.00    +0.000 C 
ENDBRANCH  24  25
ENDBRANCH   4  24
TORSDOF 9
ENDMDL
MODEL 7
REMARK VINA RESULT:      -8.6      3.977      6.780
REMARK  Name = 92400
REMARK  9 active torsions:
REMARK  status: ('A' for Active; 'I' for Inactive)
REMARK    1  A    between atoms: C_3  and  C_9
REMARK    2  A    between atoms: C_4  and  S_24
REMARK    3  A    between atoms: C_7  and  C_12
REMARK    4  A    between atoms: C_9  and  O_10
REMARK    5  A    between atoms: C_12  and  C_14
REMARK    6  A    between atoms: C_14  and  S_15
REMARK    7  A    between atoms: S_15  and  C_17
REMARK    8  A    between atoms: C_17  and  C_18
REMARK    9  A    between atoms: S_24  and  C_25
REMARK                            x       y       z     vdW  Elec       q    Type
REMARK                         _______ _______ _______ _____ _____    ______ ____
ROOT
ATOM      1  O   UNL     1      32.221 -12.354 -20.719  0.00  0.00    -0.275 OA
ATOM      2  N   UNL     1      32.426 -10.887 -22.494  0.00  0.00    -0.271 N 
ATOM      3  C   UNL     1      32.669 -10.575 -23.899  0.00  0.00    +0.175 C 
ATOM      4  C   UNL     1      31.802  -8.604 -22.774  0.00  0.00    +0.074 C 
ATOM      5  C   UNL     1      31.913  -9.271 -24.149  0.00  0.00    +0.044 C 
ATOM      6  C   UNL     1      31.749  -9.788 -21.814  0.00  0.00    +0.105 C 
ATOM      7  C   UNL     1      32.607 -12.109 -21.864  0.00  0.00    +0.226 C 
ENDROOT
BRANCH   3   9
ATOM      8  O   UNL     1      34.869  -9.661 -23.484  0.00  0.00    -0.248 OA
ATOM      9  C   UNL     1      34.140 -10.401 -24.129  0.00  0.00    +0.332 C 
BRANCH   9  10
ATOM     10  O   UNL     1      34.560 -11.176 -25.160  0.00  0.00    -0.479 OA
ATOM     11  H   UNL     1      35.070 -11.944 -24.990  0.00  0.00    +0.295 HD
ENDBRANCH   9  10
ENDBRANCH   3   9
BRANCH   7  12
ATOM     12  C   UNL     1      33.325 -13.169 -22.661  0.00  0.00    +0.088 C 
ATOM     13  C   UNL     1      32.265 -14.016 -23.357  0.00  0.00    +0.010 C 
BRANCH  12  14
ATOM     14  C   UNL     1      34.203 -14.030 -21.756  0.00  0.00    +0.074 C 
BRANCH  14  15
ATOM     15  S   UNL     1      33.321 -15.510 -21.165  0.00  0.00    -0.072 S 
BRANCH  15  17
ATOM     16  O   UNL     1      35.414 -16.950 -20.479  0.00  0.00    -0.280 OA
ATOM     17  C   UNL     1      34.587 -16.720 -21.352  0.00  0.00    +0.221 C 
BRANCH  17  18
ATOM     18  C   UNL     1      34.644 -17.444 -22.648  0.00  0.00    +0.045 C 
ATOM     19  C   UNL     1      34.755 -18.834 -22.665  0.00  0.00    +0.004 C 
ATOM     20  C   UNL     1      34.586 -16.733 -23.846  0.00  0.00    +0.004 C 
ATOM     21  C   UNL     1      34.808 -19.514 -23.881  0.00  0.00    +0.000 C 
ATOM     22  C   UNL     1      34.639 -17.413 -25.063  0.00  0.00    +0.000 C 
ATOM     23  C   UNL     1      34.750 -18.804 -25.080  0.00  0.00    +0.000 C 
ENDBRANCH  17  18
ENDBRANCH  15  17
ENDBRANCH  14  15
ENDBRANCH  12  14
ENDBRANCH   7  12
BRANCH   4  24
ATOM     24  S   UNL     1      33.225  -7.518 -22.420  0.00  0.00    -0.113 S 
BRANCH  24  25
ATOM     25  C   UNL     1      33.298  -6.546 -23.918  0.00  0.00    +0.025 C 
ATOM     26  C   UNL     1      32.249  -5.688 -24.246  0.00  0.00    +0.006 C 
ATOM     27  C   UNL     1      34.406  -6.644 -24.760  0.00  0.00    +0.006 C 
ATOM     28  C   UNL     1      32.306  -4.929 -25.415  0.00  0.00    +0.001 C 
ATOM     29  C   UNL     1      34.464  -5.885 -25.929  0.00  0.00    +0.001 C 
ATOM     30  C   UNL     1      33.414  -5.027 -26.256  0.00  0.00    +0.000 C 
ENDBRANCH  24  25
ENDBRANCH   4  24
TORSDOF 9
ENDMDL
MODEL 8
REMARK VINA RESULT:      -8.6      1.845      9.972
REMARK  Name = 92400
REMARK  9 active torsions:
REMARK  status: ('A' for Active; 'I' for Inactive)
REMARK    1  A    between atoms: C_3  and  C_9
REMARK    2  A    between atoms: C_4  and  S_24
REMARK    3  A    between atoms: C_7  and  C_12
REMARK    4  A    between atoms: C_9  and  O_10
REMARK    5  A    between atoms: C_12  and  C_14
REMARK    6  A    between atoms: C_14  and  S_15
REMARK    7  A    between atoms: S_15  and  C_17
REMARK    8  A    between atoms: C_17  and  C_18
REMARK    9  A    between atoms: S_24  and  C_25
REMARK                            x       y       z     vdW  Elec       q    Type
REMARK                         _______ _______ _______ _____ _____    ______ ____
ROOT
ATOM      1  O   UNL     1      32.609 -14.887 -21.239  0.00  0.00    -0.275 OA
ATOM      2  N   UNL     1      34.202 -16.254 -22.207  0.00  0.00    -0.271 N 
ATOM      3  C   UNL     1      35.201 -16.566 -23.225  0.00  0.00    +0.175 C 
ATOM      4  C   UNL     1      35.366 -18.178 -21.415  0.00  0.00    +0.074 C 
ATOM      5  C   UNL     1      36.174 -17.526 -22.542  0.00  0.00    +0.044 C 
ATOM      6  C   UNL     1      34.372 -17.090 -21.023  0.00  0.00    +0.105 C 
ATOM      7  C   UNL     1      33.308 -15.196 -22.208  0.00  0.00    +0.226 C 
ENDROOT
BRANCH   3   9
ATOM      8  O   UNL     1      33.767 -18.164 -24.336  0.00  0.00    -0.248 OA
ATOM      9  C   UNL     1      34.535 -17.216 -24.401  0.00  0.00    +0.332 C 
BRANCH   9  10
ATOM     10  O   UNL     1      34.905 -16.610 -25.556  0.00  0.00    -0.479 OA
ATOM     11  H   UNL     1      34.416 -15.877 -25.878  0.00  0.00    +0.295 HD
ENDBRANCH   9  10
ENDBRANCH   3   9
BRANCH   7  12
ATOM     12  C   UNL     1      33.214 -14.404 -23.488  0.00  0.00    +0.088 C 
ATOM     13  C   UNL     1      34.556 -13.713 -23.700  0.00  0.00    +0.010 C 
BRANCH  12  14
ATOM     14  C   UNL     1      32.081 -13.383 -23.415  0.00  0.00    +0.074 C 
BRANCH  14  15
ATOM     15  S   UNL     1      32.710 -11.676 -23.347  0.00  0.00    -0.072 S 
BRANCH  15  17
ATOM     16  O   UNL     1      31.111 -11.785 -21.259  0.00  0.00    -0.280 OA
ATOM     17  C   UNL     1      31.797 -11.063 -21.972  0.00  0.00    +0.221 C 
BRANCH  17  18
ATOM     18  C   UNL     1      31.855  -9.601 -21.720  0.00  0.00    +0.045 C 
ATOM     19  C   UNL     1      31.599  -8.704 -22.757  0.00  0.00    +0.004 C 
ATOM     20  C   UNL     1      32.164  -9.124 -20.446  0.00  0.00    +0.004 C 
ATOM     21  C   UNL     1      31.651  -7.331 -22.521  0.00  0.00    +0.000 C 
ATOM     22  C   UNL     1      32.217  -7.750 -20.210  0.00  0.00    +0.000 C 
ATOM     23  C   UNL     1      31.961  -6.854 -21.248  0.00  0.00    +0.000 C 
ENDBRANCH  17  18
ENDBRANCH  15  17
ENDBRANCH  14  15
ENDBRANCH  12  14
ENDBRANCH   7  12
BRANCH   4  24
ATOM     24  S   UNL     1      34.516 -19.695 -21.968  0.00  0.00    -0.113 S 
BRANCH  24  25
ATOM     25  C   UNL     1      34.646 -20.716 -20.507  0.00  0.00    +0.025 C 
ATOM     26  C   UNL     1      35.889 -20.935 -19.916  0.00  0.00    +0.006 C 
ATOM     27  C   UNL     1      33.501 -21.295 -19.957  0.00  0.00    +0.006 C 
ATOM     28  C   UNL     1      35.990 -21.733 -18.776  0.00  0.00    +0.001 C 
ATOM     29  C   UNL     1      33.602 -22.092 -18.816  0.00  0.00    +0.001 C 
ATOM     30  C   UNL     1      34.846 -22.310 -18.226  0.00  0.00    +0.000 C 
ENDBRANCH  24  25
ENDBRANCH   4  24
TORSDOF 9
ENDMDL
MODEL 9
REMARK VINA RESULT:      -8.5      2.573     10.438
REMARK  Name = 92400
REMARK  9 active torsions:
REMARK  status: ('A' for Active; 'I' for Inactive)
REMARK    1  A    between atoms: C_3  and  C_9
REMARK    2  A    between atoms: C_4  and  S_24
REMARK    3  A    between atoms: C_7  and  C_12
REMARK    4  A    between atoms: C_9  and  O_10
REMARK    5  A    between atoms: C_12  and  C_14
REMARK    6  A    between atoms: C_14  and  S_15
REMARK    7  A    between atoms: S_15  and  C_17
REMARK    8  A    between atoms: C_17  and  C_18
REMARK    9  A    between atoms: S_24  and  C_25
REMARK                            x       y       z     vdW  Elec       q    Type
REMARK                         _______ _______ _______ _____ _____    ______ ____
ROOT
ATOM      1  O   UNL     1      34.010 -14.440 -25.102  0.00  0.00    -0.275 OA
ATOM      2  N   UNL     1      33.902 -15.574 -23.091  0.00  0.00    -0.271 N 
ATOM      3  C   UNL     1      33.543 -15.686 -21.681  0.00  0.00    +0.175 C 
ATOM      4  C   UNL     1      34.186 -17.872 -22.524  0.00  0.00    +0.074 C 
ATOM      5  C   UNL     1      33.349 -17.183 -21.441  0.00  0.00    +0.044 C 
ATOM      6  C   UNL     1      34.133 -16.886 -23.687  0.00  0.00    +0.105 C 
ATOM      7  C   UNL     1      33.860 -14.434 -23.878  0.00  0.00    +0.226 C 
ENDROOT
BRANCH   3   9
ATOM      8  O   UNL     1      35.324 -14.156 -21.104  0.00  0.00    -0.248 OA
ATOM      9  C   UNL     1      34.654 -15.142 -20.834  0.00  0.00    +0.332 C 
BRANCH   9  10
ATOM     10  O   UNL     1      34.822 -15.897 -19.720  0.00  0.00    -0.479 OA
ATOM     11  H   UNL     1      34.178 -15.876 -19.039  0.00  0.00    +0.295 HD
ENDBRANCH   9  10
ENDBRANCH   3   9
BRANCH   7  12
ATOM     12  C   UNL     1      33.619 -13.134 -23.154  0.00  0.00    +0.088 C 
ATOM     13  C   UNL     1      32.145 -13.089 -22.768  0.00  0.00    +0.010 C 
BRANCH  12  14
ATOM     14  C   UNL     1      33.988 -11.942 -24.035  0.00  0.00    +0.074 C 
BRANCH  14  15
ATOM     15  S   UNL     1      32.740 -10.619 -23.943  0.00  0.00    -0.072 S 
BRANCH  15  17
ATOM     16  O   UNL     1      34.990  -9.270 -23.735  0.00  0.00    -0.280 OA
ATOM     17  C   UNL     1      33.775  -9.241 -23.584  0.00  0.00    +0.221 C 
BRANCH  17  18
ATOM     18  C   UNL     1      33.117  -8.025 -23.041  0.00  0.00    +0.045 C 
ATOM     19  C   UNL     1      32.899  -7.904 -21.669  0.00  0.00    +0.004 C 
ATOM     20  C   UNL     1      32.719  -7.004 -23.903  0.00  0.00    +0.004 C 
ATOM     21  C   UNL     1      32.283  -6.762 -21.158  0.00  0.00    +0.000 C 
ATOM     22  C   UNL     1      32.102  -5.861 -23.393  0.00  0.00    +0.000 C 
ATOM     23  C   UNL     1      31.884  -5.741 -22.020  0.00  0.00    +0.000 C 
ENDBRANCH  17  18
ENDBRANCH  15  17
ENDBRANCH  14  15
ENDBRANCH  12  14
ENDBRANCH   7  12
BRANCH   4  24
ATOM     24  S   UNL     1      35.900 -18.175 -21.979  0.00  0.00    -0.113 S 
BRANCH  24  25
ATOM     25  C   UNL     1      35.672 -19.563 -20.876  0.00  0.00    +0.025 C 
ATOM     26  C   UNL     1      34.398 -20.092 -20.673  0.00  0.00    +0.006 C 
ATOM     27  C   UNL     1      36.769 -20.118 -20.217  0.00  0.00    +0.006 C 
ATOM     28  C   UNL     1      34.220 -21.175 -19.812  0.00  0.00    +0.001 C 
ATOM     29  C   UNL     1      36.592 -21.201 -19.356  0.00  0.00    +0.001 C 
ATOM     30  C   UNL     1      35.317 -21.730 -19.154  0.00  0.00    +0.000 C 
ENDBRANCH  24  25
ENDBRANCH   4  24
TORSDOF 9
ENDMDL
