MODEL 1
REMARK VINA RESULT:      -5.3      0.000      0.000
REMARK  Name = 25202592
REMARK  5 active torsions:
REMARK  status: ('A' for Active; 'I' for Inactive)
REMARK    1  A    between atoms: C_1  and  N_2
REMARK    2  A    between atoms: C_1  and  C_6
REMARK    3  A    between atoms: C_1  and  C_8
REMARK    4  A    between atoms: C_8  and  C_9
REMARK    5  A    between atoms: C_9  and  C_12
REMARK                            x       y       z     vdW  Elec       q    Type
REMARK                         _______ _______ _______ _____ _____    ______ ____
ROOT
ATOM      1  C   UNL     1      34.461 -18.504 -21.637  0.00  0.00    -0.042 C 
ENDROOT
BRANCH   1   2
ATOM      2  N   UNL     1      35.225 -17.514 -20.811  0.00  0.00    +0.384 N 
ATOM      3  H   UNL     1      36.106 -17.292 -21.276  0.00  0.00    -0.089 HD
ATOM      4  H   UNL     1      35.417 -17.914 -19.892  0.00  0.00    -0.089 HD
ATOM      5  H   UNL     1      34.673 -16.663 -20.703  0.00  0.00    -0.089 HD
ENDBRANCH   1   2
BRANCH   1   6
ATOM      6  C   UNL     1      34.161 -19.747 -20.847  0.00  0.00    -0.048 C 
ATOM      7  C   UNL     1      32.929 -20.118 -20.480  0.00  0.00    -0.007 C 
ENDBRANCH   1   6
BRANCH   1   8
ATOM      8  C   UNL     1      35.294 -18.785 -22.900  0.00  0.00    -0.006 C 
BRANCH   8   9
ATOM      9  C   UNL     1      34.637 -18.318 -24.200  0.00  0.00    +0.112 C 
BRANCH   9  12
ATOM     10  O   UNL     1      34.715 -16.617 -25.827  0.00  0.00    -0.246 OA
ATOM     11  O   UNL     1      35.376 -16.117 -23.697  0.00  0.00    -0.246 OA
ATOM     12  C   UNL     1      34.935 -16.872 -24.608  0.00  0.00    +0.365 C 
ENDBRANCH   9  12
ENDBRANCH   8   9
ENDBRANCH   1   8
TORSDOF 5
ENDMDL
MODEL 2
REMARK VINA RESULT:      -5.1      4.259      5.601
REMARK  Name = 25202592
REMARK  5 active torsions:
REMARK  status: ('A' for Active; 'I' for Inactive)
REMARK    1  A    between atoms: C_1  and  N_2
REMARK    2  A    between atoms: C_1  and  C_6
REMARK    3  A    between atoms: C_1  and  C_8
REMARK    4  A    between atoms: C_8  and  C_9
REMARK    5  A    between atoms: C_9  and  C_12
REMARK                            x       y       z     vdW  Elec       q    Type
REMARK                         _______ _______ _______ _____ _____    ______ ____
ROOT
ATOM      1  C   UNL     1      35.156 -19.614 -21.465  0.00  0.00    -0.042 C 
ENDROOT
BRANCH   1   2
ATOM      2  N   UNL     1      35.976 -18.638 -20.676  0.00  0.00    +0.384 N 
ATOM      3  H   UNL     1      36.911 -18.577 -21.080  0.00  0.00    -0.089 HD
ATOM      4  H   UNL     1      36.044 -18.955 -19.709  0.00  0.00    -0.089 HD
ATOM      5  H   UNL     1      35.533 -17.721 -20.704  0.00  0.00    -0.089 HD
ENDBRANCH   1   2
BRANCH   1   6
ATOM      6  C   UNL     1      34.526 -18.947 -22.656  0.00  0.00    -0.048 C 
ATOM      7  C   UNL     1      34.903 -19.170 -23.921  0.00  0.00    -0.007 C 
ENDBRANCH   1   6
BRANCH   1   8
ATOM      8  C   UNL     1      34.120 -20.223 -20.504  0.00  0.00    -0.006 C 
BRANCH   8   9
ATOM      9  C   UNL     1      34.667 -21.349 -19.626  0.00  0.00    +0.112 C 
BRANCH   9  12
ATOM     10  O   UNL     1      34.041 -23.613 -19.446  0.00  0.00    -0.246 OA
ATOM     11  O   UNL     1      32.563 -22.015 -18.749  0.00  0.00    -0.246 OA
ATOM     12  C   UNL     1      33.656 -22.428 -19.228  0.00  0.00    +0.365 C 
ENDBRANCH   9  12
ENDBRANCH   8   9
ENDBRANCH   1   8
TORSDOF 5
ENDMDL
MODEL 3
REMARK VINA RESULT:      -5.1     10.202     10.795
REMARK  Name = 25202592
REMARK  5 active torsions:
REMARK  status: ('A' for Active; 'I' for Inactive)
REMARK    1  A    between atoms: C_1  and  N_2
REMARK    2  A    between atoms: C_1  and  C_6
REMARK    3  A    between atoms: C_1  and  C_8
REMARK    4  A    between atoms: C_8  and  C_9
REMARK    5  A    between atoms: C_9  and  C_12
REMARK                            x       y       z     vdW  Elec       q    Type
REMARK                         _______ _______ _______ _____ _____    ______ ____
ROOT
ATOM      1  C   UNL     1      29.322 -24.211 -15.787  0.00  0.00    -0.042 C 
ENDROOT
BRANCH   1   2
ATOM      2  N   UNL     1      29.114 -25.136 -14.627  0.00  0.00    +0.384 N 
ATOM      3  H   UNL     1      30.012 -25.523 -14.337  0.00  0.00    -0.089 HD
ATOM      4  H   UNL     1      28.491 -25.895 -14.904  0.00  0.00    -0.089 HD
ATOM      5  H   UNL     1      28.699 -24.621 -13.851  0.00  0.00    -0.089 HD
ENDBRANCH   1   2
BRANCH   1   6
ATOM      6  C   UNL     1      30.725 -23.673 -15.801  0.00  0.00    -0.048 C 
ATOM      7  C   UNL     1      31.207 -22.822 -14.887  0.00  0.00    -0.007 C 
ENDBRANCH   1   6
BRANCH   1   8
ATOM      8  C   UNL     1      28.258 -23.103 -15.685  0.00  0.00    -0.006 C 
BRANCH   8   9
ATOM      9  C   UNL     1      27.737 -22.611 -17.036  0.00  0.00    +0.112 C 
BRANCH   9  12
ATOM     10  O   UNL     1      26.466 -20.794 -17.832  0.00  0.00    -0.246 OA
ATOM     11  O   UNL     1      25.638 -22.022 -16.092  0.00  0.00    -0.246 OA
ATOM     12  C   UNL     1      26.486 -21.729 -16.980  0.00  0.00    +0.365 C 
ENDBRANCH   9  12
ENDBRANCH   8   9
ENDBRANCH   1   8
TORSDOF 5
ENDMDL
MODEL 4
REMARK VINA RESULT:      -5.0     10.046     10.630
REMARK  Name = 25202592
REMARK  5 active torsions:
REMARK  status: ('A' for Active; 'I' for Inactive)
REMARK    1  A    between atoms: C_1  and  N_2
REMARK    2  A    between atoms: C_1  and  C_6
REMARK    3  A    between atoms: C_1  and  C_8
REMARK    4  A    between atoms: C_8  and  C_9
REMARK    5  A    between atoms: C_9  and  C_12
REMARK                            x       y       z     vdW  Elec       q    Type
REMARK                         _______ _______ _______ _____ _____    ______ ____
ROOT
ATOM      1  C   UNL     1      30.543 -24.446 -14.748  0.00  0.00    -0.042 C 
ENDROOT
BRANCH   1   2
ATOM      2  N   UNL     1      30.371 -25.003 -13.368  0.00  0.00    +0.384 N 
ATOM      3  H   UNL     1      31.180 -24.752 -12.797  0.00  0.00    -0.089 HD
ATOM      4  H   UNL     1      30.294 -26.018 -13.418  0.00  0.00    -0.089 HD
ATOM      5  H   UNL     1      29.526 -24.617 -12.948  0.00  0.00    -0.089 HD
ENDBRANCH   1   2
BRANCH   1   6
ATOM      6  C   UNL     1      31.425 -23.228 -14.731  0.00  0.00    -0.048 C 
ATOM      7  C   UNL     1      32.696 -23.223 -15.150  0.00  0.00    -0.007 C 
ENDBRANCH   1   6
BRANCH   1   8
ATOM      8  C   UNL     1      29.137 -24.156 -15.303  0.00  0.00    -0.006 C 
BRANCH   8   9
ATOM      9  C   UNL     1      29.009 -22.804 -16.007  0.00  0.00    +0.112 C 
BRANCH   9  12
ATOM     10  O   UNL     1      27.650 -23.783 -17.663  0.00  0.00    -0.246 OA
ATOM     11  O   UNL     1      27.354 -21.570 -17.180  0.00  0.00    -0.246 OA
ATOM     12  C   UNL     1      27.889 -22.705 -17.048  0.00  0.00    +0.365 C 
ENDBRANCH   9  12
ENDBRANCH   8   9
ENDBRANCH   1   8
TORSDOF 5
ENDMDL
MODEL 5
REMARK VINA RESULT:      -4.9      5.133      6.193
REMARK  Name = 25202592
REMARK  5 active torsions:
REMARK  status: ('A' for Active; 'I' for Inactive)
REMARK    1  A    between atoms: C_1  and  N_2
REMARK    2  A    between atoms: C_1  and  C_6
REMARK    3  A    between atoms: C_1  and  C_8
REMARK    4  A    between atoms: C_8  and  C_9
REMARK    5  A    between atoms: C_9  and  C_12
REMARK                            x       y       z     vdW  Elec       q    Type
REMARK                         _______ _______ _______ _____ _____    ______ ____
ROOT
ATOM      1  C   UNL     1      35.272 -20.239 -20.774  0.00  0.00    -0.042 C 
ENDROOT
BRANCH   1   2
ATOM      2  N   UNL     1      36.328 -19.228 -20.446  0.00  0.00    +0.384 N 
ATOM      3  H   UNL     1      36.436 -19.167 -19.433  0.00  0.00    -0.089 HD
ATOM      4  H   UNL     1      36.053 -18.317 -20.814  0.00  0.00    -0.089 HD
ATOM      5  H   UNL     1      37.213 -19.513 -20.865  0.00  0.00    -0.089 HD
ENDBRANCH   1   2
BRANCH   1   6
ATOM      6  C   UNL     1      33.948 -19.572 -21.025  0.00  0.00    -0.048 C 
ATOM      7  C   UNL     1      32.784 -20.017 -20.537  0.00  0.00    -0.007 C 
ENDBRANCH   1   6
BRANCH   1   8
ATOM      8  C   UNL     1      35.222 -21.244 -19.609  0.00  0.00    -0.006 C 
BRANCH   8   9
ATOM      9  C   UNL     1      36.574 -21.489 -18.937  0.00  0.00    +0.112 C 
BRANCH   9  12
ATOM     10  O   UNL     1      37.360 -21.323 -16.723  0.00  0.00    -0.246 OA
ATOM     11  O   UNL     1      35.649 -22.772 -17.165  0.00  0.00    -0.246 OA
ATOM     12  C   UNL     1      36.514 -21.902 -17.463  0.00  0.00    +0.365 C 
ENDBRANCH   9  12
ENDBRANCH   8   9
ENDBRANCH   1   8
TORSDOF 5
ENDMDL
MODEL 6
REMARK VINA RESULT:      -4.9      3.729      4.816
REMARK  Name = 25202592
REMARK  5 active torsions:
REMARK  status: ('A' for Active; 'I' for Inactive)
REMARK    1  A    between atoms: C_1  and  N_2
REMARK    2  A    between atoms: C_1  and  C_6
REMARK    3  A    between atoms: C_1  and  C_8
REMARK    4  A    between atoms: C_8  and  C_9
REMARK    5  A    between atoms: C_9  and  C_12
REMARK                            x       y       z     vdW  Elec       q    Type
REMARK                         _______ _______ _______ _____ _____    ______ ____
ROOT
ATOM      1  C   UNL     1      35.131 -18.279 -21.600  0.00  0.00    -0.042 C 
ENDROOT
BRANCH   1   2
ATOM      2  N   UNL     1      36.197 -18.718 -20.643  0.00  0.00    +0.384 N 
ATOM      3  H   UNL     1      36.795 -19.411 -21.095  0.00  0.00    -0.089 HD
ATOM      4  H   UNL     1      35.764 -19.131 -19.817  0.00  0.00    -0.089 HD
ATOM      5  H   UNL     1      36.759 -17.914 -20.367  0.00  0.00    -0.089 HD
ENDBRANCH   1   2
BRANCH   1   6
ATOM      6  C   UNL     1      34.382 -17.092 -21.064  0.00  0.00    -0.048 C 
ATOM      7  C   UNL     1      34.568 -15.837 -21.493  0.00  0.00    -0.007 C 
ENDBRANCH   1   6
BRANCH   1   8
ATOM      8  C   UNL     1      34.220 -19.493 -21.859  0.00  0.00    -0.006 C 
BRANCH   8   9
ATOM      9  C   UNL     1      33.277 -19.825 -20.702  0.00  0.00    +0.112 C 
BRANCH   9  12
ATOM     10  O   UNL     1      34.903 -21.119 -19.593  0.00  0.00    -0.246 OA
ATOM     11  O   UNL     1      32.730 -21.825 -19.545  0.00  0.00    -0.246 OA
ATOM     12  C   UNL     1      33.669 -21.042 -19.859  0.00  0.00    +0.365 C 
ENDBRANCH   9  12
ENDBRANCH   8   9
ENDBRANCH   1   8
TORSDOF 5
ENDMDL
MODEL 7
REMARK VINA RESULT:      -4.8      3.380      4.497
REMARK  Name = 25202592
REMARK  5 active torsions:
REMARK  status: ('A' for Active; 'I' for Inactive)
REMARK    1  A    between atoms: C_1  and  N_2
REMARK    2  A    between atoms: C_1  and  C_6
REMARK    3  A    between atoms: C_1  and  C_8
REMARK    4  A    between atoms: C_8  and  C_9
REMARK    5  A    between atoms: C_9  and  C_12
REMARK                            x       y       z     vdW  Elec       q    Type
REMARK                         _______ _______ _______ _____ _____    ______ ____
ROOT
ATOM      1  C   UNL     1      35.755 -18.340 -22.762  0.00  0.00    -0.042 C 
ENDROOT
BRANCH   1   2
ATOM      2  N   UNL     1      35.618 -16.879 -23.067  0.00  0.00    +0.384 N 
ATOM      3  H   UNL     1      36.537 -16.438 -23.035  0.00  0.00    -0.089 HD
ATOM      4  H   UNL     1      35.008 -16.443 -22.376  0.00  0.00    -0.089 HD
ATOM      5  H   UNL     1      35.217 -16.762 -23.997  0.00  0.00    -0.089 HD
ENDBRANCH   1   2
BRANCH   1   6
ATOM      6  C   UNL     1      34.972 -19.170 -23.742  0.00  0.00    -0.048 C 
ATOM      7  C   UNL     1      34.417 -18.680 -24.857  0.00  0.00    -0.007 C 
ENDBRANCH   1   6
BRANCH   1   8
ATOM      8  C   UNL     1      35.301 -18.548 -21.306  0.00  0.00    -0.006 C 
BRANCH   8   9
ATOM      9  C   UNL     1      33.891 -19.124 -21.167  0.00  0.00    +0.112 C 
BRANCH   9  12
ATOM     10  O   UNL     1      34.877 -20.824 -19.868  0.00  0.00    -0.246 OA
ATOM     11  O   UNL     1      32.635 -20.939 -20.290  0.00  0.00    -0.246 OA
ATOM     12  C   UNL     1      33.783 -20.421 -20.359  0.00  0.00    +0.365 C 
ENDBRANCH   9  12
ENDBRANCH   8   9
ENDBRANCH   1   8
TORSDOF 5
ENDMDL
MODEL 8
REMARK VINA RESULT:      -4.8     10.737     12.052
REMARK  Name = 25202592
REMARK  5 active torsions:
REMARK  status: ('A' for Active; 'I' for Inactive)
REMARK    1  A    between atoms: C_1  and  N_2
REMARK    2  A    between atoms: C_1  and  C_6
REMARK    3  A    between atoms: C_1  and  C_8
REMARK    4  A    between atoms: C_8  and  C_9
REMARK    5  A    between atoms: C_9  and  C_12
REMARK                            x       y       z     vdW  Elec       q    Type
REMARK                         _______ _______ _______ _____ _____    ______ ____
ROOT
ATOM      1  C   UNL     1      37.057 -25.267 -14.856  0.00  0.00    -0.042 C 
ENDROOT
BRANCH   1   2
ATOM      2  N   UNL     1      37.823 -24.134 -15.465  0.00  0.00    +0.384 N 
ATOM      3  H   UNL     1      38.042 -23.445 -14.744  0.00  0.00    -0.089 HD
ATOM      4  H   UNL     1      37.260 -23.694 -16.193  0.00  0.00    -0.089 HD
ATOM      5  H   UNL     1      38.689 -24.487 -15.871  0.00  0.00    -0.089 HD
ENDBRANCH   1   2
BRANCH   1   6
ATOM      6  C   UNL     1      35.819 -24.769 -14.162  0.00  0.00    -0.048 C 
ATOM      7  C   UNL     1      34.873 -24.035 -14.760  0.00  0.00    -0.007 C 
ENDBRANCH   1   6
BRANCH   1   8
ATOM      8  C   UNL     1      38.014 -26.011 -13.908  0.00  0.00    -0.006 C 
BRANCH   8   9
ATOM      9  C   UNL     1      39.402 -25.378 -13.798  0.00  0.00    +0.112 C 
BRANCH   9  12
ATOM     10  O   UNL     1      40.549 -25.859 -15.799  0.00  0.00    -0.246 OA
ATOM     11  O   UNL     1      41.261 -26.854 -13.869  0.00  0.00    -0.246 OA
ATOM     12  C   UNL     1      40.520 -26.100 -14.558  0.00  0.00    +0.365 C 
ENDBRANCH   9  12
ENDBRANCH   8   9
ENDBRANCH   1   8
TORSDOF 5
ENDMDL
MODEL 9
REMARK VINA RESULT:      -4.8      3.149      3.967
REMARK  Name = 25202592
REMARK  5 active torsions:
REMARK  status: ('A' for Active; 'I' for Inactive)
REMARK    1  A    between atoms: C_1  and  N_2
REMARK    2  A    between atoms: C_1  and  C_6
REMARK    3  A    between atoms: C_1  and  C_8
REMARK    4  A    between atoms: C_8  and  C_9
REMARK    5  A    between atoms: C_9  and  C_12
REMARK                            x       y       z     vdW  Elec       q    Type
REMARK                         _______ _______ _______ _____ _____    ______ ____
ROOT
ATOM      1  C   UNL     1      33.645 -21.598 -19.915  0.00  0.00    -0.042 C 
ENDROOT
BRANCH   1   2
ATOM      2  N   UNL     1      32.808 -22.059 -18.761  0.00  0.00    +0.384 N 
ATOM      3  H   UNL     1      33.288 -22.818 -18.276  0.00  0.00    -0.089 HD
ATOM      4  H   UNL     1      31.907 -22.391 -19.105  0.00  0.00    -0.089 HD
ATOM      5  H   UNL     1      32.662 -21.282 -18.116  0.00  0.00    -0.089 HD
ENDBRANCH   1   2
BRANCH   1   6
ATOM      6  C   UNL     1      35.105 -21.595 -19.555  0.00  0.00    -0.048 C 
ATOM      7  C   UNL     1      35.579 -21.982 -18.364  0.00  0.00    -0.007 C 
ENDBRANCH   1   6
BRANCH   1   8
ATOM      8  C   UNL     1      33.129 -20.208 -20.329  0.00  0.00    -0.006 C 
BRANCH   8   9
ATOM      9  C   UNL     1      33.925 -19.559 -21.462  0.00  0.00    +0.112 C 
BRANCH   9  12
ATOM     10  O   UNL     1      35.761 -18.331 -20.642  0.00  0.00    -0.246 OA
ATOM     11  O   UNL     1      33.907 -17.187 -21.334  0.00  0.00    -0.246 OA
ATOM     12  C   UNL     1      34.594 -18.224 -21.119  0.00  0.00    +0.365 C 
ENDBRANCH   9  12
ENDBRANCH   8   9
ENDBRANCH   1   8
TORSDOF 5
ENDMDL
