MODEL 1
REMARK VINA RESULT:      -8.3      0.000      0.000
REMARK  Name = 19392
REMARK  5 active torsions:
REMARK  status: ('A' for Active; 'I' for Inactive)
REMARK    1  A    between atoms: N_2  and  C_15
REMARK    2  A    between atoms: C_15  and  C_16
REMARK    3  A    between atoms: C_16  and  N_17
REMARK    4  A    between atoms: C_16  and  C_21
REMARK    5  A    between atoms: C_21  and  N_22
REMARK                            x       y       z     vdW  Elec       q    Type
REMARK                         _______ _______ _______ _____ _____    ______ ____
ROOT
ATOM      1  S   UNL     1      32.307  -7.418 -20.275  0.00  0.00    -0.084 S 
ATOM      2  N   UNL     1      31.961  -9.225 -22.782  0.00  0.00    -0.288 N 
ATOM      3  C   UNL     1      31.841  -9.880 -21.530  0.00  0.00    +0.058 C 
ATOM      4  C   UNL     1      31.777  -7.835 -22.995  0.00  0.00    +0.058 C 
ATOM      5  C   UNL     1      31.955  -9.164 -20.322  0.00  0.00    +0.043 C 
ATOM      6  C   UNL     1      31.883  -6.917 -21.932  0.00  0.00    +0.043 C 
ATOM      7  C   UNL     1      31.568 -11.262 -21.433  0.00  0.00    +0.015 C 
ATOM      8  C   UNL     1      31.444  -7.311 -24.263  0.00  0.00    +0.015 C 
ATOM      9  C   UNL     1      31.827  -9.818 -19.083  0.00  0.00    +0.008 C 
ATOM     10  C   UNL     1      31.691  -5.540 -22.147  0.00  0.00    +0.008 C 
ATOM     11  C   UNL     1      31.437 -11.905 -20.199  0.00  0.00    +0.001 C 
ATOM     12  C   UNL     1      31.249  -5.943 -24.471  0.00  0.00    +0.001 C 
ATOM     13  C   UNL     1      31.570 -11.183 -19.023  0.00  0.00    +0.001 C 
ATOM     14  C   UNL     1      31.375  -5.056 -23.413  0.00  0.00    +0.001 C 
ENDROOT
BRANCH   2  15
ATOM     15  C   UNL     1      32.229 -10.060 -23.959  0.00  0.00    +0.073 C 
BRANCH  15  16
ATOM     16  C   UNL     1      33.699 -10.503 -24.008  0.00  0.00    -0.059 C 
BRANCH  16  17
ATOM     17  N   UNL     1      34.457  -9.487 -24.748  0.00  0.00    +0.385 N 
ATOM     18  C   UNL     1      35.520 -10.117 -25.527  0.00  0.00    -0.101 C 
ATOM     19  C   UNL     1      35.010  -8.498 -23.827  0.00  0.00    -0.101 C 
ATOM     20  H   UNL     1      33.827  -9.009 -25.393  0.00  0.00    -0.080 HD
ENDBRANCH  16  17
BRANCH  16  21
ATOM     21  C   UNL     1      33.917 -11.858 -24.712  0.00  0.00    -0.097 C 
BRANCH  21  22
ATOM     22  N   UNL     1      33.212 -12.964 -24.071  0.00  0.00    +0.383 N 
ATOM     23  C   UNL     1      34.014 -13.520 -22.980  0.00  0.00    -0.101 C 
ATOM     24  C   UNL     1      32.893 -14.004 -25.049  0.00  0.00    -0.101 C 
ATOM     25  H   UNL     1      32.340 -12.606 -23.682  0.00  0.00    -0.080 HD
ENDBRANCH  21  22
ENDBRANCH  16  21
ENDBRANCH  15  16
ENDBRANCH   2  15
TORSDOF 5
ENDMDL
MODEL 2
REMARK VINA RESULT:      -8.1     14.185     17.006
REMARK  Name = 19392
REMARK  5 active torsions:
REMARK  status: ('A' for Active; 'I' for Inactive)
REMARK    1  A    between atoms: N_2  and  C_15
REMARK    2  A    between atoms: C_15  and  C_16
REMARK    3  A    between atoms: C_16  and  N_17
REMARK    4  A    between atoms: C_16  and  C_21
REMARK    5  A    between atoms: C_21  and  N_22
REMARK                            x       y       z     vdW  Elec       q    Type
REMARK                         _______ _______ _______ _____ _____    ______ ____
ROOT
ATOM      1  S   UNL     1      33.214 -23.411 -17.700  0.00  0.00    -0.084 S 
ATOM      2  N   UNL     1      34.702 -23.060 -14.993  0.00  0.00    -0.288 N 
ATOM      3  C   UNL     1      35.370 -22.546 -16.134  0.00  0.00    +0.058 C 
ATOM      4  C   UNL     1      33.306 -23.292 -14.903  0.00  0.00    +0.058 C 
ATOM      5  C   UNL     1      34.786 -22.624 -17.413  0.00  0.00    +0.043 C 
ATOM      6  C   UNL     1      32.519 -23.443 -16.060  0.00  0.00    +0.043 C 
ATOM      7  C   UNL     1      36.624 -21.904 -16.039  0.00  0.00    +0.015 C 
ATOM      8  C   UNL     1      32.637 -23.345 -13.660  0.00  0.00    +0.015 C 
ATOM      9  C   UNL     1      35.450 -22.105 -18.540  0.00  0.00    +0.008 C 
ATOM     10  C   UNL     1      31.133 -23.664 -15.964  0.00  0.00    +0.008 C 
ATOM     11  C   UNL     1      37.277 -21.386 -17.162  0.00  0.00    +0.001 C 
ATOM     12  C   UNL     1      31.259 -23.560 -13.570  0.00  0.00    +0.001 C 
ATOM     13  C   UNL     1      36.691 -21.490 -18.413  0.00  0.00    +0.001 C 
ATOM     14  C   UNL     1      30.506 -23.723 -14.723  0.00  0.00    +0.001 C 
ENDROOT
BRANCH   2  15
ATOM     15  C   UNL     1      35.509 -23.306 -13.791  0.00  0.00    +0.073 C 
BRANCH  15  16
ATOM     16  C   UNL     1      36.161 -24.696 -13.830  0.00  0.00    -0.059 C 
BRANCH  16  17
ATOM     17  N   UNL     1      35.963 -25.330 -12.520  0.00  0.00    +0.385 N 
ATOM     18  C   UNL     1      35.406 -24.368 -11.573  0.00  0.00    -0.101 C 
ATOM     19  C   UNL     1      37.225 -25.870 -12.024  0.00  0.00    -0.101 C 
ATOM     20  H   UNL     1      35.301 -26.099 -12.624  0.00  0.00    -0.080 HD
ENDBRANCH  16  17
BRANCH  16  21
ATOM     21  C   UNL     1      37.676 -24.664 -14.113  0.00  0.00    -0.097 C 
BRANCH  21  22
ATOM     22  N   UNL     1      38.077 -25.519 -15.226  0.00  0.00    +0.383 N 
ATOM     23  C   UNL     1      37.129 -26.622 -15.393  0.00  0.00    -0.101 C 
ATOM     24  C   UNL     1      39.429 -26.038 -15.016  0.00  0.00    -0.101 C 
ATOM     25  H   UNL     1      38.074 -24.959 -16.078  0.00  0.00    -0.080 HD
ENDBRANCH  21  22
ENDBRANCH  16  21
ENDBRANCH  15  16
ENDBRANCH   2  15
TORSDOF 5
ENDMDL
MODEL 3
REMARK VINA RESULT:      -7.3      2.188      4.909
REMARK  Name = 19392
REMARK  5 active torsions:
REMARK  status: ('A' for Active; 'I' for Inactive)
REMARK    1  A    between atoms: N_2  and  C_15
REMARK    2  A    between atoms: C_15  and  C_16
REMARK    3  A    between atoms: C_16  and  N_17
REMARK    4  A    between atoms: C_16  and  C_21
REMARK    5  A    between atoms: C_21  and  N_22
REMARK                            x       y       z     vdW  Elec       q    Type
REMARK                         _______ _______ _______ _____ _____    ______ ____
ROOT
ATOM      1  S   UNL     1      32.793  -8.303 -22.413  0.00  0.00    -0.084 S 
ATOM      2  N   UNL     1      32.675 -11.362 -22.954  0.00  0.00    -0.288 N 
ATOM      3  C   UNL     1      33.552 -10.624 -23.788  0.00  0.00    +0.058 C 
ATOM      4  C   UNL     1      32.221 -10.945 -21.676  0.00  0.00    +0.058 C 
ATOM      5  C   UNL     1      33.710  -9.233 -23.624  0.00  0.00    +0.043 C 
ATOM      6  C   UNL     1      32.247  -9.587 -21.305  0.00  0.00    +0.043 C 
ATOM      7  C   UNL     1      34.331 -11.244 -24.789  0.00  0.00    +0.015 C 
ATOM      8  C   UNL     1      31.759 -11.865 -20.711  0.00  0.00    +0.015 C 
ATOM      9  C   UNL     1      34.587  -8.507 -24.450  0.00  0.00    +0.008 C 
ATOM     10  C   UNL     1      31.804  -9.179 -20.033  0.00  0.00    +0.008 C 
ATOM     11  C   UNL     1      35.205 -10.517 -25.603  0.00  0.00    +0.001 C 
ATOM     12  C   UNL     1      31.324 -11.457 -19.447  0.00  0.00    +0.001 C 
ATOM     13  C   UNL     1      35.331  -9.147 -25.435  0.00  0.00    +0.001 C 
ATOM     14  C   UNL     1      31.344 -10.113 -19.109  0.00  0.00    +0.001 C 
ENDROOT
BRANCH   2  15
ATOM     15  C   UNL     1      32.260 -12.692 -23.418  0.00  0.00    +0.073 C 
BRANCH  15  16
ATOM     16  C   UNL     1      33.338 -13.747 -23.128  0.00  0.00    -0.059 C 
BRANCH  16  17
ATOM     17  N   UNL     1      33.756 -14.336 -24.407  0.00  0.00    +0.385 N 
ATOM     18  C   UNL     1      32.678 -14.232 -25.387  0.00  0.00    -0.101 C 
ATOM     19  C   UNL     1      34.149 -15.729 -24.219  0.00  0.00    -0.101 C 
ATOM     20  H   UNL     1      34.562 -13.818 -24.760  0.00  0.00    -0.080 HD
ENDBRANCH  16  17
BRANCH  16  21
ATOM     21  C   UNL     1      32.857 -14.894 -22.217  0.00  0.00    -0.097 C 
BRANCH  21  22
ATOM     22  N   UNL     1      33.325 -14.775 -20.840  0.00  0.00    +0.383 N 
ATOM     23  C   UNL     1      34.631 -15.418 -20.684  0.00  0.00    -0.101 C 
ATOM     24  C   UNL     1      32.355 -15.363 -19.915  0.00  0.00    -0.101 C 
ATOM     25  H   UNL     1      33.424 -13.785 -20.619  0.00  0.00    -0.080 HD
ENDBRANCH  21  22
ENDBRANCH  16  21
ENDBRANCH  15  16
ENDBRANCH   2  15
TORSDOF 5
ENDMDL
MODEL 4
REMARK VINA RESULT:      -7.3     14.422     16.999
REMARK  Name = 19392
REMARK  5 active torsions:
REMARK  status: ('A' for Active; 'I' for Inactive)
REMARK    1  A    between atoms: N_2  and  C_15
REMARK    2  A    between atoms: C_15  and  C_16
REMARK    3  A    between atoms: C_16  and  N_17
REMARK    4  A    between atoms: C_16  and  C_21
REMARK    5  A    between atoms: C_21  and  N_22
REMARK                            x       y       z     vdW  Elec       q    Type
REMARK                         _______ _______ _______ _____ _____    ______ ____
ROOT
ATOM      1  S   UNL     1      33.086 -22.961 -17.878  0.00  0.00    -0.084 S 
ATOM      2  N   UNL     1      34.194 -23.522 -15.027  0.00  0.00    -0.288 N 
ATOM      3  C   UNL     1      35.108 -22.933 -15.938  0.00  0.00    +0.058 C 
ATOM      4  C   UNL     1      32.781 -23.463 -15.138  0.00  0.00    +0.058 C 
ATOM      5  C   UNL     1      34.716 -22.610 -17.252  0.00  0.00    +0.043 C 
ATOM      6  C   UNL     1      32.160 -23.191 -16.372  0.00  0.00    +0.043 C 
ATOM      7  C   UNL     1      36.431 -22.611 -15.565  0.00  0.00    +0.015 C 
ATOM      8  C   UNL     1      31.937 -23.634 -14.019  0.00  0.00    +0.015 C 
ATOM      9  C   UNL     1      35.625 -22.019 -18.148  0.00  0.00    +0.008 C 
ATOM     10  C   UNL     1      30.759 -23.125 -16.475  0.00  0.00    +0.008 C 
ATOM     11  C   UNL     1      37.328 -22.018 -16.459  0.00  0.00    +0.001 C 
ATOM     12  C   UNL     1      30.545 -23.561 -14.125  0.00  0.00    +0.001 C 
ATOM     13  C   UNL     1      36.925 -21.725 -17.753  0.00  0.00    +0.001 C 
ATOM     14  C   UNL     1      29.955 -23.310 -15.353  0.00  0.00    +0.001 C 
ENDROOT
BRANCH   2  15
ATOM     15  C   UNL     1      34.753 -24.185 -13.843  0.00  0.00    +0.073 C 
BRANCH  15  16
ATOM     16  C   UNL     1      36.170 -24.712 -14.113  0.00  0.00    -0.059 C 
BRANCH  16  17
ATOM     17  N   UNL     1      36.090 -26.168 -14.289  0.00  0.00    +0.385 N 
ATOM     18  C   UNL     1      37.061 -26.835 -13.425  0.00  0.00    -0.101 C 
ATOM     19  C   UNL     1      36.315 -26.522 -15.687  0.00  0.00    -0.101 C 
ATOM     20  H   UNL     1      35.156 -26.481 -14.023  0.00  0.00    -0.080 HD
ENDBRANCH  16  17
BRANCH  16  21
ATOM     21  C   UNL     1      37.167 -24.430 -12.971  0.00  0.00    -0.097 C 
BRANCH  21  22
ATOM     22  N   UNL     1      36.670 -23.467 -11.993  0.00  0.00    +0.383 N 
ATOM     23  C   UNL     1      37.725 -22.523 -11.621  0.00  0.00    -0.101 C 
ATOM     24  C   UNL     1      36.162 -24.156 -10.806  0.00  0.00    -0.101 C 
ATOM     25  H   UNL     1      35.904 -22.945 -12.417  0.00  0.00    -0.080 HD
ENDBRANCH  21  22
ENDBRANCH  16  21
ENDBRANCH  15  16
ENDBRANCH   2  15
TORSDOF 5
ENDMDL
MODEL 5
REMARK VINA RESULT:      -7.1     13.202     16.485
REMARK  Name = 19392
REMARK  5 active torsions:
REMARK  status: ('A' for Active; 'I' for Inactive)
REMARK    1  A    between atoms: N_2  and  C_15
REMARK    2  A    between atoms: C_15  and  C_16
REMARK    3  A    between atoms: C_16  and  N_17
REMARK    4  A    between atoms: C_16  and  C_21
REMARK    5  A    between atoms: C_21  and  N_22
REMARK                            x       y       z     vdW  Elec       q    Type
REMARK                         _______ _______ _______ _____ _____    ______ ____
ROOT
ATOM      1  S   UNL     1      37.084 -21.959 -16.728  0.00  0.00    -0.084 S 
ATOM      2  N   UNL     1      34.444 -23.544 -16.300  0.00  0.00    -0.288 N 
ATOM      3  C   UNL     1      34.504 -22.756 -17.476  0.00  0.00    +0.058 C 
ATOM      4  C   UNL     1      35.570 -24.016 -15.577  0.00  0.00    +0.058 C 
ATOM      5  C   UNL     1      35.657 -22.010 -17.793  0.00  0.00    +0.043 C 
ATOM      6  C   UNL     1      36.827 -23.396 -15.706  0.00  0.00    +0.043 C 
ATOM      7  C   UNL     1      33.436 -22.707 -18.399  0.00  0.00    +0.015 C 
ATOM      8  C   UNL     1      35.494 -25.143 -14.729  0.00  0.00    +0.015 C 
ATOM      9  C   UNL     1      35.713 -21.236 -18.966  0.00  0.00    +0.008 C 
ATOM     10  C   UNL     1      37.942 -23.874 -14.994  0.00  0.00    +0.008 C 
ATOM     11  C   UNL     1      33.500 -21.940 -19.566  0.00  0.00    +0.001 C 
ATOM     12  C   UNL     1      36.605 -25.617 -14.028  0.00  0.00    +0.001 C 
ATOM     13  C   UNL     1      34.638 -21.201 -19.847  0.00  0.00    +0.001 C 
ATOM     14  C   UNL     1      37.830 -24.980 -14.157  0.00  0.00    +0.001 C 
ENDROOT
BRANCH   2  15
ATOM     15  C   UNL     1      33.116 -23.962 -15.833  0.00  0.00    +0.073 C 
BRANCH  15  16
ATOM     16  C   UNL     1      32.522 -22.942 -14.849  0.00  0.00    -0.059 C 
BRANCH  16  17
ATOM     17  N   UNL     1      32.639 -23.494 -13.494  0.00  0.00    +0.385 N 
ATOM     18  C   UNL     1      32.527 -24.950 -13.530  0.00  0.00    -0.101 C 
ATOM     19  C   UNL     1      31.617 -22.921 -12.624  0.00  0.00    -0.101 C 
ATOM     20  H   UNL     1      33.556 -23.252 -13.117  0.00  0.00    -0.080 HD
ENDBRANCH  16  17
BRANCH  16  21
ATOM     21  C   UNL     1      31.035 -22.628 -15.103  0.00  0.00    -0.097 C 
BRANCH  21  22
ATOM     22  N   UNL     1      30.405 -23.534 -16.058  0.00  0.00    +0.383 N 
ATOM     23  C   UNL     1      29.492 -22.801 -16.937  0.00  0.00    -0.101 C 
ATOM     24  C   UNL     1      29.689 -24.602 -15.359  0.00  0.00    -0.101 C 
ATOM     25  H   UNL     1      31.136 -23.955 -16.630  0.00  0.00    -0.080 HD
ENDBRANCH  21  22
ENDBRANCH  16  21
ENDBRANCH  15  16
ENDBRANCH   2  15
TORSDOF 5
ENDMDL
MODEL 6
REMARK VINA RESULT:      -6.9      1.957      5.209
REMARK  Name = 19392
REMARK  5 active torsions:
REMARK  status: ('A' for Active; 'I' for Inactive)
REMARK    1  A    between atoms: N_2  and  C_15
REMARK    2  A    between atoms: C_15  and  C_16
REMARK    3  A    between atoms: C_16  and  N_17
REMARK    4  A    between atoms: C_16  and  C_21
REMARK    5  A    between atoms: C_21  and  N_22
REMARK                            x       y       z     vdW  Elec       q    Type
REMARK                         _______ _______ _______ _____ _____    ______ ____
ROOT
ATOM      1  S   UNL     1      31.970 -11.658 -22.880  0.00  0.00    -0.084 S 
ATOM      2  N   UNL     1      33.183  -8.796 -22.804  0.00  0.00    -0.288 N 
ATOM      3  C   UNL     1      32.507  -9.209 -21.628  0.00  0.00    +0.058 C 
ATOM      4  C   UNL     1      33.727  -9.670 -23.780  0.00  0.00    +0.058 C 
ATOM      5  C   UNL     1      31.935 -10.493 -21.532  0.00  0.00    +0.043 C 
ATOM      6  C   UNL     1      33.277 -10.999 -23.897  0.00  0.00    +0.043 C 
ATOM      7  C   UNL     1      32.405  -8.376 -20.492  0.00  0.00    +0.015 C 
ATOM      8  C   UNL     1      34.763  -9.265 -24.650  0.00  0.00    +0.015 C 
ATOM      9  C   UNL     1      31.272 -10.900 -20.360  0.00  0.00    +0.008 C 
ATOM     10  C   UNL     1      33.825 -11.864 -24.861  0.00  0.00    +0.008 C 
ATOM     11  C   UNL     1      31.750  -8.788 -19.329  0.00  0.00    +0.001 C 
ATOM     12  C   UNL     1      35.308 -10.129 -25.603  0.00  0.00    +0.001 C 
ATOM     13  C   UNL     1      31.180 -10.050 -19.264  0.00  0.00    +0.001 C 
ATOM     14  C   UNL     1      34.838 -11.428 -25.711  0.00  0.00    +0.001 C 
ENDROOT
BRANCH   2  15
ATOM     15  C   UNL     1      33.397  -7.356 -22.990  0.00  0.00    +0.073 C 
BRANCH  15  16
ATOM     16  C   UNL     1      32.500  -6.797 -24.105  0.00  0.00    -0.059 C 
BRANCH  16  17
ATOM     17  N   UNL     1      33.254  -5.758 -24.819  0.00  0.00    +0.385 N 
ATOM     18  C   UNL     1      32.462  -5.230 -25.927  0.00  0.00    -0.101 C 
ATOM     19  C   UNL     1      34.522  -6.296 -25.303  0.00  0.00    -0.101 C 
ATOM     20  H   UNL     1      33.454  -4.993 -24.174  0.00  0.00    -0.080 HD
ENDBRANCH  16  17
BRANCH  16  21
ATOM     21  C   UNL     1      31.193  -6.160 -23.592  0.00  0.00    -0.097 C 
BRANCH  21  22
ATOM     22  N   UNL     1      31.402  -5.193 -22.519  0.00  0.00    +0.383 N 
ATOM     23  C   UNL     1      30.510  -5.474 -21.394  0.00  0.00    -0.101 C 
ATOM     24  C   UNL     1      31.190  -3.830 -23.008  0.00  0.00    -0.101 C 
ATOM     25  H   UNL     1      32.366  -5.275 -22.196  0.00  0.00    -0.080 HD
ENDBRANCH  21  22
ENDBRANCH  16  21
ENDBRANCH  15  16
ENDBRANCH   2  15
TORSDOF 5
ENDMDL
MODEL 7
REMARK VINA RESULT:      -6.9      1.962      5.163
REMARK  Name = 19392
REMARK  5 active torsions:
REMARK  status: ('A' for Active; 'I' for Inactive)
REMARK    1  A    between atoms: N_2  and  C_15
REMARK    2  A    between atoms: C_15  and  C_16
REMARK    3  A    between atoms: C_16  and  N_17
REMARK    4  A    between atoms: C_16  and  C_21
REMARK    5  A    between atoms: C_21  and  N_22
REMARK                            x       y       z     vdW  Elec       q    Type
REMARK                         _______ _______ _______ _____ _____    ______ ____
ROOT
ATOM      1  S   UNL     1      31.835 -11.447 -23.095  0.00  0.00    -0.084 S 
ATOM      2  N   UNL     1      33.288  -8.761 -22.509  0.00  0.00    -0.288 N 
ATOM      3  C   UNL     1      32.514  -9.287 -21.444  0.00  0.00    +0.058 C 
ATOM      4  C   UNL     1      33.806  -9.518 -23.591  0.00  0.00    +0.058 C 
ATOM      5  C   UNL     1      31.828 -10.509 -21.580  0.00  0.00    +0.043 C 
ATOM      6  C   UNL     1      33.249 -10.763 -23.938  0.00  0.00    +0.043 C 
ATOM      7  C   UNL     1      32.423  -8.636 -20.194  0.00  0.00    +0.015 C 
ATOM      8  C   UNL     1      34.920  -9.082 -24.341  0.00  0.00    +0.015 C 
ATOM      9  C   UNL     1      31.068 -11.031 -20.517  0.00  0.00    +0.008 C 
ATOM     10  C   UNL     1      33.773 -11.514 -25.006  0.00  0.00    +0.008 C 
ATOM     11  C   UNL     1      31.670  -9.161 -19.139  0.00  0.00    +0.001 C 
ATOM     12  C   UNL     1      35.440  -9.834 -25.398  0.00  0.00    +0.001 C 
ATOM     13  C   UNL     1      30.990 -10.358 -19.302  0.00  0.00    +0.001 C 
ATOM     14  C   UNL     1      34.865 -11.049 -25.733  0.00  0.00    +0.001 C 
ENDROOT
BRANCH   2  15
ATOM     15  C   UNL     1      33.637  -7.335 -22.452  0.00  0.00    +0.073 C 
BRANCH  15  16
ATOM     16  C   UNL     1      32.581  -6.472 -23.159  0.00  0.00    -0.059 C 
BRANCH  16  17
ATOM     17  N   UNL     1      31.256  -7.016 -22.836  0.00  0.00    +0.385 N 
ATOM     18  C   UNL     1      30.615  -7.534 -24.041  0.00  0.00    -0.101 C 
ATOM     19  C   UNL     1      30.427  -5.990 -22.211  0.00  0.00    -0.101 C 
ATOM     20  H   UNL     1      31.368  -7.786 -22.175  0.00  0.00    -0.080 HD
ENDBRANCH  16  17
BRANCH  16  21
ATOM     21  C   UNL     1      32.721  -6.454 -24.694  0.00  0.00    -0.097 C 
BRANCH  21  22
ATOM     22  N   UNL     1      32.980  -5.124 -25.237  0.00  0.00    +0.383 N 
ATOM     23  C   UNL     1      31.735  -4.360 -25.340  0.00  0.00    -0.101 C 
ATOM     24  C   UNL     1      33.627  -5.220 -26.546  0.00  0.00    -0.101 C 
ATOM     25  H   UNL     1      33.608  -4.634 -24.600  0.00  0.00    -0.080 HD
ENDBRANCH  21  22
ENDBRANCH  16  21
ENDBRANCH  15  16
ENDBRANCH   2  15
TORSDOF 5
ENDMDL
MODEL 8
REMARK VINA RESULT:      -6.7     13.477     16.032
REMARK  Name = 19392
REMARK  5 active torsions:
REMARK  status: ('A' for Active; 'I' for Inactive)
REMARK    1  A    between atoms: N_2  and  C_15
REMARK    2  A    between atoms: C_15  and  C_16
REMARK    3  A    between atoms: C_16  and  N_17
REMARK    4  A    between atoms: C_16  and  C_21
REMARK    5  A    between atoms: C_21  and  N_22
REMARK                            x       y       z     vdW  Elec       q    Type
REMARK                         _______ _______ _______ _____ _____    ______ ____
ROOT
ATOM      1  S   UNL     1      36.886 -22.773 -16.448  0.00  0.00    -0.084 S 
ATOM      2  N   UNL     1      33.907 -23.490 -15.917  0.00  0.00    -0.288 N 
ATOM      3  C   UNL     1      34.749 -23.473 -14.776  0.00  0.00    +0.058 C 
ATOM      4  C   UNL     1      34.169 -22.807 -17.133  0.00  0.00    +0.058 C 
ATOM      5  C   UNL     1      36.113 -23.140 -14.885  0.00  0.00    +0.043 C 
ATOM      6  C   UNL     1      35.475 -22.408 -17.474  0.00  0.00    +0.043 C 
ATOM      7  C   UNL     1      34.258 -23.750 -13.481  0.00  0.00    +0.015 C 
ATOM      8  C   UNL     1      33.137 -22.465 -18.034  0.00  0.00    +0.015 C 
ATOM      9  C   UNL     1      36.941 -23.116 -13.748  0.00  0.00    +0.008 C 
ATOM     10  C   UNL     1      35.728 -21.723 -18.677  0.00  0.00    +0.008 C 
ATOM     11  C   UNL     1      35.085 -23.721 -12.355  0.00  0.00    +0.001 C 
ATOM     12  C   UNL     1      33.392 -21.781 -19.225  0.00  0.00    +0.001 C 
ATOM     13  C   UNL     1      36.428 -23.407 -12.489  0.00  0.00    +0.001 C 
ATOM     14  C   UNL     1      34.689 -21.412 -19.549  0.00  0.00    +0.001 C 
ENDROOT
BRANCH   2  15
ATOM     15  C   UNL     1      32.634 -24.213 -15.808  0.00  0.00    +0.073 C 
BRANCH  15  16
ATOM     16  C   UNL     1      31.508 -23.292 -15.316  0.00  0.00    -0.059 C 
BRANCH  16  17
ATOM     17  N   UNL     1      30.857 -23.938 -14.169  0.00  0.00    +0.385 N 
ATOM     18  C   UNL     1      31.076 -23.153 -12.957  0.00  0.00    -0.101 C 
ATOM     19  C   UNL     1      31.362 -25.298 -14.001  0.00  0.00    -0.101 C 
ATOM     20  H   UNL     1      29.853 -23.986 -14.344  0.00  0.00    -0.080 HD
ENDBRANCH  16  17
BRANCH  16  21
ATOM     21  C   UNL     1      30.424 -23.015 -16.377  0.00  0.00    -0.097 C 
BRANCH  21  22
ATOM     22  N   UNL     1      29.082 -23.398 -15.949  0.00  0.00    +0.383 N 
ATOM     23  C   UNL     1      28.523 -24.405 -16.851  0.00  0.00    -0.101 C 
ATOM     24  C   UNL     1      28.207 -22.226 -15.891  0.00  0.00    -0.101 C 
ATOM     25  H   UNL     1      29.146 -23.800 -15.014  0.00  0.00    -0.080 HD
ENDBRANCH  21  22
ENDBRANCH  16  21
ENDBRANCH  15  16
ENDBRANCH   2  15
TORSDOF 5
ENDMDL
MODEL 9
REMARK VINA RESULT:      -6.5      3.467      6.472
REMARK  Name = 19392
REMARK  5 active torsions:
REMARK  status: ('A' for Active; 'I' for Inactive)
REMARK    1  A    between atoms: N_2  and  C_15
REMARK    2  A    between atoms: C_15  and  C_16
REMARK    3  A    between atoms: C_16  and  N_17
REMARK    4  A    between atoms: C_16  and  C_21
REMARK    5  A    between atoms: C_21  and  N_22
REMARK                            x       y       z     vdW  Elec       q    Type
REMARK                         _______ _______ _______ _____ _____    ______ ____
ROOT
ATOM      1  S   UNL     1      34.172 -15.499 -20.330  0.00  0.00    -0.084 S 
ATOM      2  N   UNL     1      34.055 -14.670 -23.324  0.00  0.00    -0.288 N 
ATOM      3  C   UNL     1      34.497 -15.993 -23.069  0.00  0.00    +0.058 C 
ATOM      4  C   UNL     1      33.271 -13.888 -22.438  0.00  0.00    +0.058 C 
ATOM      5  C   UNL     1      34.571 -16.492 -21.754  0.00  0.00    +0.043 C 
ATOM      6  C   UNL     1      33.223 -14.180 -21.062  0.00  0.00    +0.043 C 
ATOM      7  C   UNL     1      34.848 -16.878 -24.112  0.00  0.00    +0.015 C 
ATOM      8  C   UNL     1      32.479 -12.811 -22.893  0.00  0.00    +0.015 C 
ATOM      9  C   UNL     1      35.003 -17.808 -21.508  0.00  0.00    +0.008 C 
ATOM     10  C   UNL     1      32.437 -13.406 -20.188  0.00  0.00    +0.008 C 
ATOM     11  C   UNL     1      35.272 -18.186 -23.861  0.00  0.00    +0.001 C 
ATOM     12  C   UNL     1      31.696 -12.049 -22.023  0.00  0.00    +0.001 C 
ATOM     13  C   UNL     1      35.352 -18.651 -22.558  0.00  0.00    +0.001 C 
ATOM     14  C   UNL     1      31.677 -12.344 -20.669  0.00  0.00    +0.001 C 
ENDROOT
BRANCH   2  15
ATOM     15  C   UNL     1      34.374 -14.091 -24.636  0.00  0.00    +0.073 C 
BRANCH  15  16
ATOM     16  C   UNL     1      33.226 -13.213 -25.154  0.00  0.00    -0.059 C 
BRANCH  16  17
ATOM     17  N   UNL     1      32.448 -14.001 -26.118  0.00  0.00    +0.385 N 
ATOM     18  C   UNL     1      33.083 -15.297 -26.340  0.00  0.00    -0.101 C 
ATOM     19  C   UNL     1      32.311 -13.272 -27.375  0.00  0.00    -0.101 C 
ATOM     20  H   UNL     1      31.516 -14.162 -25.735  0.00  0.00    -0.080 HD
ENDBRANCH  16  17
BRANCH  16  21
ATOM     21  C   UNL     1      33.698 -11.930 -25.867  0.00  0.00    -0.097 C 
BRANCH  21  22
ATOM     22  N   UNL     1      34.710 -11.190 -25.119  0.00  0.00    +0.383 N 
ATOM     23  C   UNL     1      34.077 -10.242 -24.200  0.00  0.00    -0.101 C 
ATOM     24  C   UNL     1      35.612 -10.487 -26.032  0.00  0.00    -0.101 C 
ATOM     25  H   UNL     1      35.255 -11.855 -24.573  0.00  0.00    -0.080 HD
ENDBRANCH  21  22
ENDBRANCH  16  21
ENDBRANCH  15  16
ENDBRANCH   2  15
TORSDOF 5
ENDMDL
