MODEL 1
REMARK VINA RESULT:      -9.0      0.000      0.000
REMARK  Name = 121515
REMARK  5 active torsions:
REMARK  status: ('A' for Active; 'I' for Inactive)
REMARK    1  A    between atoms: C_1  and  C_3
REMARK    2  A    between atoms: C_1  and  C_17
REMARK    3  A    between atoms: C_1  and  O_25
REMARK    4  A    between atoms: C_10  and  O_12
REMARK    5  A    between atoms: C_16  and  C_23
REMARK                            x       y       z     vdW  Elec       q    Type
REMARK                         _______ _______ _______ _____ _____    ______ ____
ROOT
ATOM      1  C   UNL     1      34.194 -10.487 -23.743  0.00  0.00    +0.114 C 
ENDROOT
BRANCH   1   3
ATOM      2  N   UNL     1      33.292 -13.789 -26.308  0.00  0.00    -0.244 NA
ATOM      3  C   UNL     1      33.881 -11.675 -24.617  0.00  0.00    +0.005 C 
ATOM      4  C   UNL     1      33.819 -12.971 -24.104  0.00  0.00    +0.019 C 
ATOM      5  C   UNL     1      33.652 -11.428 -25.958  0.00  0.00    +0.019 C 
ATOM      6  C   UNL     1      33.517 -14.017 -25.000  0.00  0.00    +0.081 C 
ATOM      7  C   UNL     1      34.047 -13.245 -22.744  0.00  0.00    +0.038 C 
ATOM      8  C   UNL     1      33.364 -12.515 -26.757  0.00  0.00    +0.099 C 
ATOM      9  C   UNL     1      33.453 -15.313 -24.497  0.00  0.00    +0.022 C 
ATOM     10  C   UNL     1      33.977 -14.550 -22.268  0.00  0.00    +0.139 C 
ATOM     11  C   UNL     1      33.680 -15.586 -23.145  0.00  0.00    +0.038 C 
BRANCH  10  12
ATOM     12  O   UNL     1      34.198 -14.811 -20.952  0.00  0.00    -0.471 OA
ATOM     13  C   UNL     1      34.714 -16.101 -20.622  0.00  0.00    +0.252 C 
ENDBRANCH  10  12
ENDBRANCH   1   3
BRANCH   1  17
ATOM     14  N   UNL     1      31.982  -9.547 -23.037  0.00  0.00    +0.390 N 
ATOM     15  C   UNL     1      32.915  -7.136 -22.778  0.00  0.00    -0.006 C 
ATOM     16  C   UNL     1      31.457  -7.109 -23.295  0.00  0.00    -0.021 C 
ATOM     17  C   UNL     1      33.167  -9.366 -23.916  0.00  0.00    -0.026 C 
ATOM     18  C   UNL     1      33.801  -7.972 -23.718  0.00  0.00    -0.018 C 
ATOM     19  C   UNL     1      30.953  -8.562 -23.454  0.00  0.00    -0.077 C 
ATOM     20  C   UNL     1      32.900  -7.871 -21.425  0.00  0.00    -0.023 C 
ATOM     21  C   UNL     1      32.327  -9.282 -21.622  0.00  0.00    -0.077 C 
ATOM     22  H   UNL     1      31.645 -10.506 -23.119  0.00  0.00    -0.079 HD
BRANCH  16  23
ATOM     23  C   UNL     1      31.304  -6.313 -24.590  0.00  0.00    -0.002 C 
ATOM     24  C   UNL     1      31.392  -4.821 -24.335  0.00  0.00    -0.000 C 
ENDBRANCH  16  23
ENDBRANCH   1  17
BRANCH   1  25
ATOM     25  O   UNL     1      35.491  -9.992 -24.061  0.00  0.00    -0.382 OA
ATOM     26  H   UNL     1      36.034  -9.967 -23.258  0.00  0.00    +0.211 HD
ENDBRANCH   1  25
TORSDOF 5
ENDMDL
MODEL 2
REMARK VINA RESULT:      -8.4     13.048     15.057
REMARK  Name = 121515
REMARK  5 active torsions:
REMARK  status: ('A' for Active; 'I' for Inactive)
REMARK    1  A    between atoms: C_1  and  C_3
REMARK    2  A    between atoms: C_1  and  C_17
REMARK    3  A    between atoms: C_1  and  O_25
REMARK    4  A    between atoms: C_10  and  O_12
REMARK    5  A    between atoms: C_16  and  C_23
REMARK                            x       y       z     vdW  Elec       q    Type
REMARK                         _______ _______ _______ _____ _____    ______ ____
ROOT
ATOM      1  C   UNL     1      32.894 -23.696 -15.616  0.00  0.00    +0.114 C 
ENDROOT
BRANCH   1   3
ATOM      2  N   UNL     1      35.249 -22.053 -18.786  0.00  0.00    -0.244 NA
ATOM      3  C   UNL     1      33.754 -23.116 -16.709  0.00  0.00    +0.005 C 
ATOM      4  C   UNL     1      35.110 -22.848 -16.516  0.00  0.00    +0.019 C 
ATOM      5  C   UNL     1      33.143 -22.860 -17.923  0.00  0.00    +0.019 C 
ATOM      6  C   UNL     1      35.832 -22.306 -17.600  0.00  0.00    +0.081 C 
ATOM      7  C   UNL     1      35.751 -23.101 -15.291  0.00  0.00    +0.038 C 
ATOM      8  C   UNL     1      33.932 -22.330 -18.924  0.00  0.00    +0.099 C 
ATOM      9  C   UNL     1      37.185 -22.036 -17.415  0.00  0.00    +0.022 C 
ATOM     10  C   UNL     1      37.105 -22.820 -15.134  0.00  0.00    +0.139 C 
ATOM     11  C   UNL     1      37.823 -22.287 -16.197  0.00  0.00    +0.038 C 
BRANCH  10  12
ATOM     12  O   UNL     1      37.721 -23.067 -13.948  0.00  0.00    -0.471 OA
ATOM     13  C   UNL     1      36.885 -23.370 -12.830  0.00  0.00    +0.252 C 
ENDBRANCH  10  12
ENDBRANCH   1   3
BRANCH   1  17
ATOM     14  N   UNL     1      30.686 -24.861 -15.830  0.00  0.00    +0.390 N 
ATOM     15  C   UNL     1      29.422 -23.044 -14.471  0.00  0.00    -0.006 C 
ATOM     16  C   UNL     1      28.524 -23.613 -15.595  0.00  0.00    -0.021 C 
ATOM     17  C   UNL     1      31.403 -23.562 -15.931  0.00  0.00    -0.026 C 
ATOM     18  C   UNL     1      30.727 -22.481 -15.060  0.00  0.00    -0.018 C 
ATOM     19  C   UNL     1      29.323 -24.672 -16.389  0.00  0.00    -0.077 C 
ATOM     20  C   UNL     1      29.824 -24.227 -13.571  0.00  0.00    -0.023 C 
ATOM     21  C   UNL     1      30.552 -25.281 -14.417  0.00  0.00    -0.077 C 
ATOM     22  H   UNL     1      31.209 -25.575 -16.338  0.00  0.00    -0.079 HD
BRANCH  16  23
ATOM     23  C   UNL     1      27.962 -22.526 -16.510  0.00  0.00    -0.002 C 
ATOM     24  C   UNL     1      26.590 -22.072 -16.049  0.00  0.00    -0.000 C 
ENDBRANCH  16  23
ENDBRANCH   1  17
BRANCH   1  25
ATOM     25  O   UNL     1      33.177 -23.035 -14.387  0.00  0.00    -0.382 OA
ATOM     26  H   UNL     1      34.110 -22.770 -14.370  0.00  0.00    +0.211 HD
ENDBRANCH   1  25
TORSDOF 5
ENDMDL
MODEL 3
REMARK VINA RESULT:      -8.2     10.141     15.456
REMARK  Name = 121515
REMARK  5 active torsions:
REMARK  status: ('A' for Active; 'I' for Inactive)
REMARK    1  A    between atoms: C_1  and  C_3
REMARK    2  A    between atoms: C_1  and  C_17
REMARK    3  A    between atoms: C_1  and  O_25
REMARK    4  A    between atoms: C_10  and  O_12
REMARK    5  A    between atoms: C_16  and  C_23
REMARK                            x       y       z     vdW  Elec       q    Type
REMARK                         _______ _______ _______ _____ _____    ______ ____
ROOT
ATOM      1  C   UNL     1      36.349 -22.964 -16.271  0.00  0.00    +0.114 C 
ENDROOT
BRANCH   1   3
ATOM      2  N   UNL     1      32.609 -22.532 -18.302  0.00  0.00    -0.244 NA
ATOM      3  C   UNL     1      35.048 -22.789 -17.013  0.00  0.00    +0.005 C 
ATOM      4  C   UNL     1      34.965 -22.038 -18.186  0.00  0.00    +0.019 C 
ATOM      5  C   UNL     1      33.932 -23.409 -16.482  0.00  0.00    +0.019 C 
ATOM      6  C   UNL     1      33.703 -21.933 -18.808  0.00  0.00    +0.081 C 
ATOM      7  C   UNL     1      36.086 -21.399 -18.742  0.00  0.00    +0.038 C 
ATOM      8  C   UNL     1      32.742 -23.249 -17.162  0.00  0.00    +0.099 C 
ATOM      9  C   UNL     1      33.611 -21.185 -19.979  0.00  0.00    +0.022 C 
ATOM     10  C   UNL     1      35.965 -20.658 -19.913  0.00  0.00    +0.139 C 
ATOM     11  C   UNL     1      34.726 -20.551 -20.533  0.00  0.00    +0.038 C 
BRANCH  10  12
ATOM     12  O   UNL     1      37.053 -20.043 -20.449  0.00  0.00    -0.471 OA
ATOM     13  C   UNL     1      36.811 -18.948 -21.334  0.00  0.00    +0.252 C 
ENDBRANCH  10  12
ENDBRANCH   1   3
BRANCH   1  17
ATOM     14  N   UNL     1      36.748 -25.115 -15.050  0.00  0.00    +0.390 N 
ATOM     15  C   UNL     1      37.579 -23.918 -12.899  0.00  0.00    -0.006 C 
ATOM     16  C   UNL     1      36.795 -25.203 -12.545  0.00  0.00    -0.021 C 
ATOM     17  C   UNL     1      36.163 -23.750 -14.972  0.00  0.00    -0.026 C 
ATOM     18  C   UNL     1      36.709 -22.978 -13.751  0.00  0.00    -0.018 C 
ATOM     19  C   UNL     1      36.302 -25.868 -13.851  0.00  0.00    -0.077 C 
ATOM     20  C   UNL     1      38.763 -24.341 -13.788  0.00  0.00    -0.023 C 
ATOM     21  C   UNL     1      38.227 -25.058 -15.036  0.00  0.00    -0.077 C 
ATOM     22  H   UNL     1      36.444 -25.563 -15.914  0.00  0.00    -0.079 HD
BRANCH  16  23
ATOM     23  C   UNL     1      35.644 -24.946 -11.574  0.00  0.00    -0.002 C 
ATOM     24  C   UNL     1      36.059 -24.001 -10.462  0.00  0.00    -0.000 C 
ENDBRANCH  16  23
ENDBRANCH   1  17
BRANCH   1  25
ATOM     25  O   UNL     1      36.903 -21.686 -15.975  0.00  0.00    -0.382 OA
ATOM     26  H   UNL     1      37.813 -21.642 -16.308  0.00  0.00    +0.211 HD
ENDBRANCH   1  25
TORSDOF 5
ENDMDL
MODEL 4
REMARK VINA RESULT:      -8.0      1.175      1.379
REMARK  Name = 121515
REMARK  5 active torsions:
REMARK  status: ('A' for Active; 'I' for Inactive)
REMARK    1  A    between atoms: C_1  and  C_3
REMARK    2  A    between atoms: C_1  and  C_17
REMARK    3  A    between atoms: C_1  and  O_25
REMARK    4  A    between atoms: C_10  and  O_12
REMARK    5  A    between atoms: C_16  and  C_23
REMARK                            x       y       z     vdW  Elec       q    Type
REMARK                         _______ _______ _______ _____ _____    ______ ____
ROOT
ATOM      1  C   UNL     1      34.231  -9.827 -23.657  0.00  0.00    +0.114 C 
ENDROOT
BRANCH   1   3
ATOM      2  N   UNL     1      33.429 -13.397 -25.874  0.00  0.00    -0.244 NA
ATOM      3  C   UNL     1      33.938 -11.103 -24.405  0.00  0.00    +0.005 C 
ATOM      4  C   UNL     1      33.439 -12.236 -23.762  0.00  0.00    +0.019 C 
ATOM      5  C   UNL     1      34.182 -11.105 -25.766  0.00  0.00    +0.019 C 
ATOM      6  C   UNL     1      33.196 -13.382 -24.548  0.00  0.00    +0.081 C 
ATOM      7  C   UNL     1      33.183 -12.256 -22.380  0.00  0.00    +0.038 C 
ATOM      8  C   UNL     1      33.913 -12.273 -26.451  0.00  0.00    +0.099 C 
ATOM      9  C   UNL     1      32.697 -14.517 -23.914  0.00  0.00    +0.022 C 
ATOM     10  C   UNL     1      32.686 -13.404 -21.773  0.00  0.00    +0.139 C 
ATOM     11  C   UNL     1      32.443 -14.537 -22.540  0.00  0.00    +0.038 C 
BRANCH  10  12
ATOM     12  O   UNL     1      32.439 -13.419 -20.436  0.00  0.00    -0.471 OA
ATOM     13  C   UNL     1      31.885 -12.234 -19.863  0.00  0.00    +0.252 C 
ENDBRANCH  10  12
ENDBRANCH   1   3
BRANCH   1  17
ATOM     14  N   UNL     1      31.914  -9.032 -23.130  0.00  0.00    +0.390 N 
ATOM     15  C   UNL     1      32.676  -6.577 -22.755  0.00  0.00    -0.006 C 
ATOM     16  C   UNL     1      31.269  -6.624 -23.396  0.00  0.00    -0.021 C 
ATOM     17  C   UNL     1      33.158  -8.764 -23.900  0.00  0.00    -0.026 C 
ATOM     18  C   UNL     1      33.688  -7.340 -23.627  0.00  0.00    -0.018 C 
ATOM     19  C   UNL     1      30.868  -8.100 -23.620  0.00  0.00    -0.077 C 
ATOM     20  C   UNL     1      32.591  -7.339 -21.420  0.00  0.00    -0.023 C 
ATOM     21  C   UNL     1      32.122  -8.777 -21.687  0.00  0.00    -0.077 C 
ATOM     22  H   UNL     1      31.643 -10.008 -23.256  0.00  0.00    -0.079 HD
BRANCH  16  23
ATOM     23  C   UNL     1      31.179  -5.812 -24.687  0.00  0.00    -0.002 C 
ATOM     24  C   UNL     1      31.347  -4.329 -24.419  0.00  0.00    -0.000 C 
ENDBRANCH  16  23
ENDBRANCH   1  17
BRANCH   1  25
ATOM     25  O   UNL     1      35.498  -9.320 -24.062  0.00  0.00    -0.382 OA
ATOM     26  H   UNL     1      35.979 -10.003 -24.555  0.00  0.00    +0.211 HD
ENDBRANCH   1  25
TORSDOF 5
ENDMDL
MODEL 5
REMARK VINA RESULT:      -7.9     13.134     16.351
REMARK  Name = 121515
REMARK  5 active torsions:
REMARK  status: ('A' for Active; 'I' for Inactive)
REMARK    1  A    between atoms: C_1  and  C_3
REMARK    2  A    between atoms: C_1  and  C_17
REMARK    3  A    between atoms: C_1  and  O_25
REMARK    4  A    between atoms: C_10  and  O_12
REMARK    5  A    between atoms: C_16  and  C_23
REMARK                            x       y       z     vdW  Elec       q    Type
REMARK                         _______ _______ _______ _____ _____    ______ ____
ROOT
ATOM      1  C   UNL     1      33.571 -23.844 -13.694  0.00  0.00    +0.114 C 
ENDROOT
BRANCH   1   3
ATOM      2  N   UNL     1      31.246 -22.956 -17.174  0.00  0.00    -0.244 NA
ATOM      3  C   UNL     1      32.784 -23.521 -14.939  0.00  0.00    +0.005 C 
ATOM      4  C   UNL     1      33.407 -23.114 -16.119  0.00  0.00    +0.019 C 
ATOM      5  C   UNL     1      31.409 -23.649 -14.867  0.00  0.00    +0.019 C 
ATOM      6  C   UNL     1      32.586 -22.835 -17.232  0.00  0.00    +0.081 C 
ATOM      7  C   UNL     1      34.803 -22.978 -16.215  0.00  0.00    +0.038 C 
ATOM      8  C   UNL     1      30.690 -23.355 -16.007  0.00  0.00    +0.099 C 
ATOM      9  C   UNL     1      33.200 -22.428 -18.413  0.00  0.00    +0.022 C 
ATOM     10  C   UNL     1      35.389 -22.568 -17.409  0.00  0.00    +0.139 C 
ATOM     11  C   UNL     1      34.587 -22.293 -18.509  0.00  0.00    +0.038 C 
BRANCH  10  12
ATOM     12  O   UNL     1      36.740 -22.438 -17.498  0.00  0.00    -0.471 OA
ATOM     13  C   UNL     1      37.344 -21.393 -16.735  0.00  0.00    +0.252 C 
ENDBRANCH  10  12
ENDBRANCH   1   3
BRANCH   1  17
ATOM     14  N   UNL     1      35.877 -23.152 -13.004  0.00  0.00    +0.390 N 
ATOM     15  C   UNL     1      36.825 -25.563 -13.195  0.00  0.00    -0.006 C 
ATOM     16  C   UNL     1      37.888 -24.520 -13.613  0.00  0.00    -0.021 C 
ATOM     17  C   UNL     1      35.072 -23.937 -13.976  0.00  0.00    -0.026 C 
ATOM     18  C   UNL     1      35.553 -25.403 -14.045  0.00  0.00    -0.018 C 
ATOM     19  C   UNL     1      37.274 -23.105 -13.505  0.00  0.00    -0.077 C 
ATOM     20  C   UNL     1      36.422 -25.241 -11.744  0.00  0.00    -0.023 C 
ATOM     21  C   UNL     1      35.885 -23.804 -11.675  0.00  0.00    -0.077 C 
ATOM     22  H   UNL     1      35.476 -22.219 -12.910  0.00  0.00    -0.079 HD
BRANCH  16  23
ATOM     23  C   UNL     1      38.459 -24.783 -15.005  0.00  0.00    -0.002 C 
ATOM     24  C   UNL     1      39.897 -25.257 -14.932  0.00  0.00    -0.000 C 
ENDBRANCH  16  23
ENDBRANCH   1  17
BRANCH   1  25
ATOM     25  O   UNL     1      33.115 -25.080 -13.152  0.00  0.00    -0.382 OA
ATOM     26  H   UNL     1      32.260 -24.946 -12.715  0.00  0.00    +0.211 HD
ENDBRANCH   1  25
TORSDOF 5
ENDMDL
MODEL 6
REMARK VINA RESULT:      -7.8      1.821      2.284
REMARK  Name = 121515
REMARK  5 active torsions:
REMARK  status: ('A' for Active; 'I' for Inactive)
REMARK    1  A    between atoms: C_1  and  C_3
REMARK    2  A    between atoms: C_1  and  C_17
REMARK    3  A    between atoms: C_1  and  O_25
REMARK    4  A    between atoms: C_10  and  O_12
REMARK    5  A    between atoms: C_16  and  C_23
REMARK                            x       y       z     vdW  Elec       q    Type
REMARK                         _______ _______ _______ _____ _____    ______ ____
ROOT
ATOM      1  C   UNL     1      34.119  -8.695 -23.264  0.00  0.00    +0.114 C 
ENDROOT
BRANCH   1   3
ATOM      2  N   UNL     1      34.538 -11.985 -25.966  0.00  0.00    -0.244 NA
ATOM      3  C   UNL     1      34.246  -9.877 -24.191  0.00  0.00    +0.005 C 
ATOM      4  C   UNL     1      33.644 -11.103 -23.909  0.00  0.00    +0.019 C 
ATOM      5  C   UNL     1      34.987  -9.695 -25.345  0.00  0.00    +0.019 C 
ATOM      6  C   UNL     1      33.820 -12.149 -24.839  0.00  0.00    +0.081 C 
ATOM      7  C   UNL     1      32.887 -11.310 -22.743  0.00  0.00    +0.038 C 
ATOM      8  C   UNL     1      35.102 -10.777 -26.194  0.00  0.00    +0.099 C 
ATOM      9  C   UNL     1      33.222 -13.377 -24.564  0.00  0.00    +0.022 C 
ATOM     10  C   UNL     1      32.301 -12.547 -22.494  0.00  0.00    +0.139 C 
ATOM     11  C   UNL     1      32.469 -13.582 -23.405  0.00  0.00    +0.038 C 
BRANCH  10  12
ATOM     12  O   UNL     1      31.569 -12.742 -21.364  0.00  0.00    -0.471 OA
ATOM     13  C   UNL     1      31.108 -11.577 -20.679  0.00  0.00    +0.252 C 
ENDBRANCH  10  12
ENDBRANCH   1   3
BRANCH   1  17
ATOM     14  N   UNL     1      31.681  -8.153 -23.073  0.00  0.00    +0.390 N 
ATOM     15  C   UNL     1      32.116  -5.622 -22.682  0.00  0.00    -0.006 C 
ATOM     16  C   UNL     1      30.821  -5.837 -23.501  0.00  0.00    -0.021 C 
ATOM     17  C   UNL     1      32.980  -7.763 -23.681  0.00  0.00    -0.026 C 
ATOM     18  C   UNL     1      33.312  -6.284 -23.387  0.00  0.00    -0.018 C 
ATOM     19  C   UNL     1      30.615  -7.352 -23.727  0.00  0.00    -0.077 C 
ATOM     20  C   UNL     1      31.934  -6.365 -21.345  0.00  0.00    -0.023 C 
ATOM     21  C   UNL     1      31.663  -7.850 -21.625  0.00  0.00    -0.077 C 
ATOM     22  H   UNL     1      31.536  -9.155 -23.202  0.00  0.00    -0.079 HD
BRANCH  16  23
ATOM     23  C   UNL     1      30.819  -5.064 -24.818  0.00  0.00    -0.002 C 
ATOM     24  C   UNL     1      31.171  -3.604 -24.602  0.00  0.00    -0.000 C 
ENDBRANCH  16  23
ENDBRANCH   1  17
BRANCH   1  25
ATOM     25  O   UNL     1      35.343  -7.968 -23.250  0.00  0.00    -0.382 OA
ATOM     26  H   UNL     1      36.010  -8.446 -23.769  0.00  0.00    +0.211 HD
ENDBRANCH   1  25
TORSDOF 5
ENDMDL
MODEL 7
REMARK VINA RESULT:      -7.6      3.034      8.565
REMARK  Name = 121515
REMARK  5 active torsions:
REMARK  status: ('A' for Active; 'I' for Inactive)
REMARK    1  A    between atoms: C_1  and  C_3
REMARK    2  A    between atoms: C_1  and  C_17
REMARK    3  A    between atoms: C_1  and  O_25
REMARK    4  A    between atoms: C_10  and  O_12
REMARK    5  A    between atoms: C_16  and  C_23
REMARK                            x       y       z     vdW  Elec       q    Type
REMARK                         _______ _______ _______ _____ _____    ______ ____
ROOT
ATOM      1  C   UNL     1      34.238 -15.935 -23.080  0.00  0.00    +0.114 C 
ENDROOT
BRANCH   1   3
ATOM      2  N   UNL     1      32.017 -13.020 -20.873  0.00  0.00    -0.244 NA
ATOM      3  C   UNL     1      33.464 -14.881 -22.329  0.00  0.00    +0.005 C 
ATOM      4  C   UNL     1      33.318 -13.584 -22.821  0.00  0.00    +0.019 C 
ATOM      5  C   UNL     1      32.896 -15.254 -21.125  0.00  0.00    +0.019 C 
ATOM      6  C   UNL     1      32.574 -12.669 -22.047  0.00  0.00    +0.081 C 
ATOM      7  C   UNL     1      33.885 -13.183 -24.043  0.00  0.00    +0.038 C 
ATOM      8  C   UNL     1      32.186 -14.290 -20.439  0.00  0.00    +0.099 C 
ATOM      9  C   UNL     1      32.424 -11.372 -22.531  0.00  0.00    +0.022 C 
ATOM     10  C   UNL     1      33.720 -11.880 -24.502  0.00  0.00    +0.139 C 
ATOM     11  C   UNL     1      32.988 -10.973 -23.746  0.00  0.00    +0.038 C 
BRANCH  10  12
ATOM     12  O   UNL     1      34.270 -11.497 -25.685  0.00  0.00    -0.471 OA
ATOM     13  C   UNL     1      35.246 -10.455 -25.641  0.00  0.00    +0.252 C 
ENDBRANCH  10  12
ENDBRANCH   1   3
BRANCH   1  17
ATOM     14  N   UNL     1      34.447 -18.421 -23.307  0.00  0.00    +0.390 N 
ATOM     15  C   UNL     1      35.952 -18.641 -21.200  0.00  0.00    -0.006 C 
ATOM     16  C   UNL     1      35.019 -19.867 -21.340  0.00  0.00    -0.021 C 
ATOM     17  C   UNL     1      34.183 -17.292 -22.375  0.00  0.00    -0.026 C 
ATOM     18  C   UNL     1      35.127 -17.343 -21.154  0.00  0.00    -0.018 C 
ATOM     19  C   UNL     1      34.130 -19.683 -22.592  0.00  0.00    -0.077 C 
ATOM     20  C   UNL     1      36.803 -18.571 -22.482  0.00  0.00    -0.023 C 
ATOM     21  C   UNL     1      35.874 -18.459 -23.699  0.00  0.00    -0.077 C 
ATOM     22  H   UNL     1      33.878 -18.306 -24.146  0.00  0.00    -0.079 HD
BRANCH  16  23
ATOM     23  C   UNL     1      34.184 -20.122 -20.087  0.00  0.00    -0.002 C 
ATOM     24  C   UNL     1      32.701 -20.127 -20.403  0.00  0.00    -0.000 C 
ENDBRANCH  16  23
ENDBRANCH   1  17
BRANCH   1  25
ATOM     25  O   UNL     1      35.595 -15.525 -23.209  0.00  0.00    -0.382 OA
ATOM     26  H   UNL     1      35.631 -14.656 -23.640  0.00  0.00    +0.211 HD
ENDBRANCH   1  25
TORSDOF 5
ENDMDL
MODEL 8
REMARK VINA RESULT:      -7.6     14.284     16.127
REMARK  Name = 121515
REMARK  5 active torsions:
REMARK  status: ('A' for Active; 'I' for Inactive)
REMARK    1  A    between atoms: C_1  and  C_3
REMARK    2  A    between atoms: C_1  and  C_17
REMARK    3  A    between atoms: C_1  and  O_25
REMARK    4  A    between atoms: C_10  and  O_12
REMARK    5  A    between atoms: C_16  and  C_23
REMARK                            x       y       z     vdW  Elec       q    Type
REMARK                         _______ _______ _______ _____ _____    ______ ____
ROOT
ATOM      1  C   UNL     1      32.311 -23.724 -14.332  0.00  0.00    +0.114 C 
ENDROOT
BRANCH   1   3
ATOM      2  N   UNL     1      35.936 -23.177 -16.537  0.00  0.00    -0.244 NA
ATOM      3  C   UNL     1      33.609 -23.544 -15.078  0.00  0.00    +0.005 C 
ATOM      4  C   UNL     1      34.837 -23.886 -14.512  0.00  0.00    +0.019 C 
ATOM      5  C   UNL     1      33.533 -23.025 -16.358  0.00  0.00    +0.019 C 
ATOM      6  C   UNL     1      35.996 -23.681 -15.289  0.00  0.00    +0.081 C 
ATOM      7  C   UNL     1      34.937 -24.415 -13.214  0.00  0.00    +0.038 C 
ATOM      8  C   UNL     1      34.721 -22.862 -17.041  0.00  0.00    +0.099 C 
ATOM      9  C   UNL     1      37.227 -24.020 -14.732  0.00  0.00    +0.022 C 
ATOM     10  C   UNL     1      36.180 -24.744 -12.682  0.00  0.00    +0.139 C 
ATOM     11  C   UNL     1      37.326 -24.546 -13.442  0.00  0.00    +0.038 C 
BRANCH  10  12
ATOM     12  O   UNL     1      36.272 -25.256 -11.425  0.00  0.00    -0.471 OA
ATOM     13  C   UNL     1      35.643 -24.520 -10.375  0.00  0.00    +0.252 C 
ENDBRANCH  10  12
ENDBRANCH   1   3
BRANCH   1  17
ATOM     14  N   UNL     1      30.677 -24.756 -15.927  0.00  0.00    +0.390 N 
ATOM     15  C   UNL     1      28.626 -23.640 -14.789  0.00  0.00    -0.006 C 
ATOM     16  C   UNL     1      28.418 -23.742 -16.318  0.00  0.00    -0.021 C 
ATOM     17  C   UNL     1      31.097 -23.507 -15.238  0.00  0.00    -0.026 C 
ATOM     18  C   UNL     1      29.918 -22.866 -14.475  0.00  0.00    -0.018 C 
ATOM     19  C   UNL     1      29.669 -24.391 -16.954  0.00  0.00    -0.077 C 
ATOM     20  C   UNL     1      28.837 -25.072 -14.264  0.00  0.00    -0.023 C 
ATOM     21  C   UNL     1      30.046 -25.697 -14.974  0.00  0.00    -0.077 C 
ATOM     22  H   UNL     1      31.495 -25.205 -16.340  0.00  0.00    -0.079 HD
BRANCH  16  23
ATOM     23  C   UNL     1      28.090 -22.396 -16.962  0.00  0.00    -0.002 C 
ATOM     24  C   UNL     1      26.697 -21.929 -16.588  0.00  0.00    -0.000 C 
ENDBRANCH  16  23
ENDBRANCH   1  17
BRANCH   1  25
ATOM     25  O   UNL     1      32.257 -22.807 -13.244  0.00  0.00    -0.382 OA
ATOM     26  H   UNL     1      31.466 -22.252 -13.327  0.00  0.00    +0.211 HD
ENDBRANCH   1  25
TORSDOF 5
ENDMDL
MODEL 9
REMARK VINA RESULT:      -7.4      2.329      6.913
REMARK  Name = 121515
REMARK  5 active torsions:
REMARK  status: ('A' for Active; 'I' for Inactive)
REMARK    1  A    between atoms: C_1  and  C_3
REMARK    2  A    between atoms: C_1  and  C_17
REMARK    3  A    between atoms: C_1  and  O_25
REMARK    4  A    between atoms: C_10  and  O_12
REMARK    5  A    between atoms: C_16  and  C_23
REMARK                            x       y       z     vdW  Elec       q    Type
REMARK                         _______ _______ _______ _____ _____    ______ ____
ROOT
ATOM      1  C   UNL     1      32.706 -12.527 -22.879  0.00  0.00    +0.114 C 
ENDROOT
BRANCH   1   3
ATOM      2  N   UNL     1      34.851  -9.647 -25.203  0.00  0.00    -0.244 NA
ATOM      3  C   UNL     1      33.448 -11.484 -23.675  0.00  0.00    +0.005 C 
ATOM      4  C   UNL     1      33.423 -10.134 -23.324  0.00  0.00    +0.019 C 
ATOM      5  C   UNL     1      34.163 -11.921 -24.774  0.00  0.00    +0.019 C 
ATOM      6  C   UNL     1      34.150  -9.233 -24.130  0.00  0.00    +0.081 C 
ATOM      7  C   UNL     1      32.703  -9.668 -22.210  0.00  0.00    +0.038 C 
ATOM      8  C   UNL     1      34.844 -10.966 -25.502  0.00  0.00    +0.099 C 
ATOM      9  C   UNL     1      34.130  -7.884 -23.786  0.00  0.00    +0.022 C 
ATOM     10  C   UNL     1      32.701  -8.314 -21.890  0.00  0.00    +0.139 C 
ATOM     11  C   UNL     1      33.415  -7.421 -22.679  0.00  0.00    +0.038 C 
BRANCH  10  12
ATOM     12  O   UNL     1      32.003  -7.867 -20.812  0.00  0.00    -0.471 OA
ATOM     13  C   UNL     1      31.956  -8.721 -19.668  0.00  0.00    +0.252 C 
ENDBRANCH  10  12
ENDBRANCH   1   3
BRANCH   1  17
ATOM     14  N   UNL     1      33.868 -13.823 -21.076  0.00  0.00    +0.390 N 
ATOM     15  C   UNL     1      33.051 -16.115 -21.984  0.00  0.00    -0.006 C 
ATOM     16  C   UNL     1      34.472 -16.236 -21.387  0.00  0.00    -0.021 C 
ATOM     17  C   UNL     1      33.597 -13.723 -22.535  0.00  0.00    -0.026 C 
ATOM     18  C   UNL     1      33.023 -15.045 -23.089  0.00  0.00    -0.018 C 
ATOM     19  C   UNL     1      34.925 -14.847 -20.881  0.00  0.00    -0.077 C 
ATOM     20  C   UNL     1      32.130 -15.607 -20.860  0.00  0.00    -0.023 C 
ATOM     21  C   UNL     1      32.659 -14.261 -20.344  0.00  0.00    -0.077 C 
ATOM     22  H   UNL     1      34.154 -12.910 -20.723  0.00  0.00    -0.079 HD
BRANCH  16  23
ATOM     23  C   UNL     1      35.478 -16.834 -22.369  0.00  0.00    -0.002 C 
ATOM     24  C   UNL     1      35.266 -18.326 -22.537  0.00  0.00    -0.000 C 
ENDBRANCH  16  23
ENDBRANCH   1  17
BRANCH   1  25
ATOM     25  O   UNL     1      31.578 -12.978 -23.621  0.00  0.00    -0.382 OA
ATOM     26  H   UNL     1      31.639 -13.937 -23.753  0.00  0.00    +0.211 HD
ENDBRANCH   1  25
TORSDOF 5
ENDMDL
