MODEL 1
REMARK VINA RESULT:      -7.9      0.000      0.000
REMARK  Name = 142775
REMARK  13 active torsions:
REMARK  status: ('A' for Active; 'I' for Inactive)
REMARK    1  A    between atoms: C_1  and  O_2
REMARK    2  A    between atoms: C_1  and  C_4
REMARK    3  A    between atoms: C_1  and  C_16
REMARK    4  A    between atoms: C_4  and  O_5
REMARK    5  A    between atoms: C_4  and  C_7
REMARK    6  A    between atoms: C_7  and  O_8
REMARK    7  A    between atoms: C_7  and  C_10
REMARK    8  A    between atoms: C_10  and  O_11
REMARK    9  A    between atoms: O_11  and  S_12
REMARK   10  A    between atoms: C_16  and  O_17
REMARK   11  A    between atoms: C_16  and  C_19
REMARK   12  A    between atoms: C_19  and  O_20
REMARK   13  A    between atoms: O_20  and  S_21
REMARK                            x       y       z     vdW  Elec       q    Type
REMARK                         _______ _______ _______ _____ _____    ______ ____
ROOT
ATOM      1  C   UNL     1      31.930 -23.178 -13.994  0.00  0.00    +0.169 C 
ENDROOT
BRANCH   1   2
ATOM      2  O   UNL     1      32.337 -22.788 -12.682  0.00  0.00    -0.379 OA
ATOM      3  H   UNL     1      31.887 -21.966 -12.435  0.00  0.00    +0.211 HD
ENDBRANCH   1   2
BRANCH   1   4
ATOM      4  C   UNL     1      33.016 -24.087 -14.596  0.00  0.00    +0.169 C 
BRANCH   4   5
ATOM      5  O   UNL     1      33.172 -25.233 -13.761  0.00  0.00    -0.379 OA
ATOM      6  H   UNL     1      33.712 -25.000 -12.989  0.00  0.00    +0.211 HD
ENDBRANCH   4   5
BRANCH   4   7
ATOM      7  C   UNL     1      34.377 -23.387 -14.776  0.00  0.00    +0.172 C 
BRANCH   7   8
ATOM      8  O   UNL     1      34.819 -23.603 -16.123  0.00  0.00    -0.379 OA
ATOM      9  H   UNL     1      34.597 -24.507 -16.395  0.00  0.00    +0.211 HD
ENDBRANCH   7   8
BRANCH   7  10
ATOM     10  C   UNL     1      35.478 -23.914 -13.857  0.00  0.00    +0.204 C 
BRANCH  10  11
ATOM     11  O   UNL     1      35.149 -23.627 -12.499  0.00  0.00    -0.239 OA
BRANCH  11  12
ATOM     12  S   UNL     1      36.128 -24.195 -11.324  0.00  0.00    -0.005 S 
ATOM     13  O   UNL     1      35.344 -24.943 -10.362  0.00  0.00    -0.072 OA
ATOM     14  O   UNL     1      37.051 -23.153 -10.920  0.00  0.00    -0.072 OA
ATOM     15  C   UNL     1      37.011 -25.353 -12.338  0.00  0.00    +0.181 C 
ENDBRANCH  11  12
ENDBRANCH  10  11
ENDBRANCH   7  10
ENDBRANCH   4   7
ENDBRANCH   1   4
BRANCH   1  16
ATOM     16  C   UNL     1      30.537 -23.835 -13.932  0.00  0.00    +0.172 C 
BRANCH  16  17
ATOM     17  O   UNL     1      30.565 -24.848 -12.919  0.00  0.00    -0.379 OA
ATOM     18  H   UNL     1      29.925 -25.543 -13.140  0.00  0.00    +0.211 HD
ENDBRANCH  16  17
BRANCH  16  19
ATOM     19  C   UNL     1      30.105 -24.513 -15.231  0.00  0.00    +0.204 C 
BRANCH  19  20
ATOM     20  O   UNL     1      28.725 -24.233 -15.457  0.00  0.00    -0.239 OA
BRANCH  20  21
ATOM     21  S   UNL     1      28.321 -23.262 -16.703  0.00  0.00    -0.005 S 
ATOM     22  O   UNL     1      27.585 -24.026 -17.691  0.00  0.00    -0.072 OA
ATOM     23  O   UNL     1      29.456 -22.437 -17.061  0.00  0.00    -0.072 OA
ATOM     24  C   UNL     1      27.165 -22.255 -15.809  0.00  0.00    +0.181 C 
ENDBRANCH  20  21
ENDBRANCH  19  20
ENDBRANCH  16  19
ENDBRANCH   1  16
TORSDOF 13
ENDMDL
MODEL 2
REMARK VINA RESULT:      -7.9      0.817      7.461
REMARK  Name = 142775
REMARK  13 active torsions:
REMARK  status: ('A' for Active; 'I' for Inactive)
REMARK    1  A    between atoms: C_1  and  O_2
REMARK    2  A    between atoms: C_1  and  C_4
REMARK    3  A    between atoms: C_1  and  C_16
REMARK    4  A    between atoms: C_4  and  O_5
REMARK    5  A    between atoms: C_4  and  C_7
REMARK    6  A    between atoms: C_7  and  O_8
REMARK    7  A    between atoms: C_7  and  C_10
REMARK    8  A    between atoms: C_10  and  O_11
REMARK    9  A    between atoms: O_11  and  S_12
REMARK   10  A    between atoms: C_16  and  O_17
REMARK   11  A    between atoms: C_16  and  C_19
REMARK   12  A    between atoms: C_19  and  O_20
REMARK   13  A    between atoms: O_20  and  S_21
REMARK                            x       y       z     vdW  Elec       q    Type
REMARK                         _______ _______ _______ _____ _____    ______ ____
ROOT
ATOM      1  C   UNL     1      32.824 -24.212 -14.632  0.00  0.00    +0.169 C 
ENDROOT
BRANCH   1   2
ATOM      2  O   UNL     1      32.797 -25.422 -13.874  0.00  0.00    -0.379 OA
ATOM      3  H   UNL     1      33.551 -25.438 -13.264  0.00  0.00    +0.211 HD
ENDBRANCH   1   2
BRANCH   1   4
ATOM      4  C   UNL     1      31.827 -23.220 -14.012  0.00  0.00    +0.169 C 
BRANCH   4   5
ATOM      5  O   UNL     1      32.303 -22.832 -12.724  0.00  0.00    -0.379 OA
ATOM      6  H   UNL     1      33.123 -23.313 -12.524  0.00  0.00    +0.211 HD
ENDBRANCH   4   5
BRANCH   4   7
ATOM      7  C   UNL     1      30.395 -23.778 -13.888  0.00  0.00    +0.172 C 
BRANCH   7   8
ATOM      8  O   UNL     1      30.366 -24.700 -12.790  0.00  0.00    -0.379 OA
ATOM      9  H   UNL     1      29.784 -24.355 -12.095  0.00  0.00    +0.211 HD
ENDBRANCH   7   8
BRANCH   7  10
ATOM     10  C   UNL     1      29.912 -24.541 -15.122  0.00  0.00    +0.204 C 
BRANCH  10  11
ATOM     11  O   UNL     1      28.557 -24.197 -15.399  0.00  0.00    -0.239 OA
BRANCH  11  12
ATOM     12  S   UNL     1      28.242 -23.249 -16.689  0.00  0.00    -0.005 S 
ATOM     13  O   UNL     1      27.545 -24.021 -17.697  0.00  0.00    -0.072 OA
ATOM     14  O   UNL     1      29.414 -22.456 -17.002  0.00  0.00    -0.072 OA
ATOM     15  C   UNL     1      27.061 -22.197 -15.884  0.00  0.00    +0.181 C 
ENDBRANCH  11  12
ENDBRANCH  10  11
ENDBRANCH   7  10
ENDBRANCH   4   7
ENDBRANCH   1   4
BRANCH   1  16
ATOM     16  C   UNL     1      34.268 -23.677 -14.704  0.00  0.00    +0.172 C 
BRANCH  16  17
ATOM     17  O   UNL     1      34.738 -23.837 -16.048  0.00  0.00    -0.379 OA
ATOM     18  H   UNL     1      35.410 -24.536 -16.074  0.00  0.00    +0.211 HD
ENDBRANCH  16  17
BRANCH  16  19
ATOM     19  C   UNL     1      35.255 -24.410 -13.797  0.00  0.00    +0.204 C 
BRANCH  19  20
ATOM     20  O   UNL     1      34.863 -24.211 -12.440  0.00  0.00    -0.239 OA
BRANCH  20  21
ATOM     21  S   UNL     1      35.926 -24.578 -11.260  0.00  0.00    -0.005 S 
ATOM     22  O   UNL     1      36.688 -25.750 -11.643  0.00  0.00    -0.072 OA
ATOM     23  O   UNL     1      35.272 -24.475  -9.971  0.00  0.00    -0.072 OA
ATOM     24  C   UNL     1      36.962 -23.153 -11.470  0.00  0.00    +0.181 C 
ENDBRANCH  20  21
ENDBRANCH  19  20
ENDBRANCH  16  19
ENDBRANCH   1  16
TORSDOF 13
ENDMDL
MODEL 3
REMARK VINA RESULT:      -7.8      2.541      6.506
REMARK  Name = 142775
REMARK  13 active torsions:
REMARK  status: ('A' for Active; 'I' for Inactive)
REMARK    1  A    between atoms: C_1  and  O_2
REMARK    2  A    between atoms: C_1  and  C_4
REMARK    3  A    between atoms: C_1  and  C_16
REMARK    4  A    between atoms: C_4  and  O_5
REMARK    5  A    between atoms: C_4  and  C_7
REMARK    6  A    between atoms: C_7  and  O_8
REMARK    7  A    between atoms: C_7  and  C_10
REMARK    8  A    between atoms: C_10  and  O_11
REMARK    9  A    between atoms: O_11  and  S_12
REMARK   10  A    between atoms: C_16  and  O_17
REMARK   11  A    between atoms: C_16  and  C_19
REMARK   12  A    between atoms: C_19  and  O_20
REMARK   13  A    between atoms: O_20  and  S_21
REMARK                            x       y       z     vdW  Elec       q    Type
REMARK                         _______ _______ _______ _____ _____    ______ ____
ROOT
ATOM      1  C   UNL     1      32.951 -24.300 -14.282  0.00  0.00    +0.169 C 
ENDROOT
BRANCH   1   2
ATOM      2  O   UNL     1      33.626 -24.735 -13.101  0.00  0.00    -0.379 OA
ATOM      3  H   UNL     1      34.486 -24.291 -13.040  0.00  0.00    +0.211 HD
ENDBRANCH   1   2
BRANCH   1   4
ATOM      4  C   UNL     1      31.854 -23.300 -13.881  0.00  0.00    +0.169 C 
BRANCH   4   5
ATOM      5  O   UNL     1      32.198 -22.718 -12.624  0.00  0.00    -0.379 OA
ATOM      6  H   UNL     1      31.523 -22.067 -12.373  0.00  0.00    +0.211 HD
ENDBRANCH   4   5
BRANCH   4   7
ATOM      7  C   UNL     1      30.448 -23.926 -13.794  0.00  0.00    +0.172 C 
BRANCH   7   8
ATOM      8  O   UNL     1      30.458 -24.910 -12.751  0.00  0.00    -0.379 OA
ATOM      9  H   UNL     1      30.459 -24.467 -11.889  0.00  0.00    +0.211 HD
ENDBRANCH   7   8
BRANCH   7  10
ATOM     10  C   UNL     1      29.999 -24.636 -15.071  0.00  0.00    +0.204 C 
BRANCH  10  11
ATOM     11  O   UNL     1      28.648 -24.287 -15.365  0.00  0.00    -0.239 OA
BRANCH  11  12
ATOM     12  S   UNL     1      28.355 -23.311 -16.639  0.00  0.00    -0.005 S 
ATOM     13  O   UNL     1      27.665 -24.057 -17.671  0.00  0.00    -0.072 OA
ATOM     14  O   UNL     1      29.536 -22.520 -16.922  0.00  0.00    -0.072 OA
ATOM     15  C   UNL     1      27.172 -22.267 -15.826  0.00  0.00    +0.181 C 
ENDBRANCH  11  12
ENDBRANCH  10  11
ENDBRANCH   7  10
ENDBRANCH   4   7
ENDBRANCH   1   4
BRANCH   1  16
ATOM     16  C   UNL     1      33.973 -23.731 -15.286  0.00  0.00    +0.172 C 
BRANCH  16  17
ATOM     17  O   UNL     1      34.563 -22.561 -14.706  0.00  0.00    -0.379 OA
ATOM     18  H   UNL     1      34.568 -22.647 -13.740  0.00  0.00    +0.211 HD
ENDBRANCH  16  17
BRANCH  16  19
ATOM     19  C   UNL     1      33.369 -23.310 -16.624  0.00  0.00    +0.204 C 
BRANCH  19  20
ATOM     20  O   UNL     1      34.416 -22.842 -17.472  0.00  0.00    -0.239 OA
BRANCH  20  21
ATOM     21  S   UNL     1      34.076 -22.539 -19.037  0.00  0.00    -0.005 S 
ATOM     22  O   UNL     1      33.005 -21.566 -19.119  0.00  0.00    -0.072 OA
ATOM     23  O   UNL     1      34.037 -23.786 -19.773  0.00  0.00    -0.072 OA
ATOM     24  C   UNL     1      35.600 -21.716 -19.421  0.00  0.00    +0.181 C 
ENDBRANCH  20  21
ENDBRANCH  19  20
ENDBRANCH  16  19
ENDBRANCH   1  16
TORSDOF 13
ENDMDL
MODEL 4
REMARK VINA RESULT:      -7.7      2.319      4.038
REMARK  Name = 142775
REMARK  13 active torsions:
REMARK  status: ('A' for Active; 'I' for Inactive)
REMARK    1  A    between atoms: C_1  and  O_2
REMARK    2  A    between atoms: C_1  and  C_4
REMARK    3  A    between atoms: C_1  and  C_16
REMARK    4  A    between atoms: C_4  and  O_5
REMARK    5  A    between atoms: C_4  and  C_7
REMARK    6  A    between atoms: C_7  and  O_8
REMARK    7  A    between atoms: C_7  and  C_10
REMARK    8  A    between atoms: C_10  and  O_11
REMARK    9  A    between atoms: O_11  and  S_12
REMARK   10  A    between atoms: C_16  and  O_17
REMARK   11  A    between atoms: C_16  and  C_19
REMARK   12  A    between atoms: C_19  and  O_20
REMARK   13  A    between atoms: O_20  and  S_21
REMARK                            x       y       z     vdW  Elec       q    Type
REMARK                         _______ _______ _______ _____ _____    ______ ____
ROOT
ATOM      1  C   UNL     1      32.025 -23.389 -13.801  0.00  0.00    +0.169 C 
ENDROOT
BRANCH   1   2
ATOM      2  O   UNL     1      32.311 -22.766 -12.548  0.00  0.00    -0.379 OA
ATOM      3  H   UNL     1      31.908 -23.281 -11.832  0.00  0.00    +0.211 HD
ENDBRANCH   1   2
BRANCH   1   4
ATOM      4  C   UNL     1      33.106 -24.445 -14.083  0.00  0.00    +0.169 C 
BRANCH   4   5
ATOM      5  O   UNL     1      33.555 -24.987 -12.841  0.00  0.00    -0.379 OA
ATOM      6  H   UNL     1      33.130 -25.847 -12.691  0.00  0.00    +0.211 HD
ENDBRANCH   4   5
BRANCH   4   7
ATOM      7  C   UNL     1      34.310 -23.900 -14.876  0.00  0.00    +0.172 C 
BRANCH   7   8
ATOM      8  O   UNL     1      35.103 -23.095 -13.993  0.00  0.00    -0.379 OA
ATOM      9  H   UNL     1      34.577 -22.342 -13.682  0.00  0.00    +0.211 HD
ENDBRANCH   7   8
BRANCH   7  10
ATOM     10  C   UNL     1      33.930 -23.016 -16.063  0.00  0.00    +0.204 C 
BRANCH  10  11
ATOM     11  O   UNL     1      34.449 -23.577 -17.267  0.00  0.00    -0.239 OA
BRANCH  11  12
ATOM     12  S   UNL     1      33.868 -23.038 -18.692  0.00  0.00    -0.005 S 
ATOM     13  O   UNL     1      32.637 -22.308 -18.467  0.00  0.00    -0.072 OA
ATOM     14  O   UNL     1      33.967 -24.090 -19.683  0.00  0.00    -0.072 OA
ATOM     15  C   UNL     1      35.159 -21.861 -19.004  0.00  0.00    +0.181 C 
ENDBRANCH  11  12
ENDBRANCH  10  11
ENDBRANCH   7  10
ENDBRANCH   4   7
ENDBRANCH   1   4
BRANCH   1  16
ATOM     16  C   UNL     1      30.592 -23.958 -13.783  0.00  0.00    +0.172 C 
BRANCH  16  17
ATOM     17  O   UNL     1      30.551 -25.034 -12.839  0.00  0.00    -0.379 OA
ATOM     18  H   UNL     1      30.005 -25.754 -13.193  0.00  0.00    +0.211 HD
ENDBRANCH  16  17
BRANCH  16  19
ATOM     19  C   UNL     1      30.125 -24.522 -15.124  0.00  0.00    +0.204 C 
BRANCH  19  20
ATOM     20  O   UNL     1      28.760 -24.161 -15.321  0.00  0.00    -0.239 OA
BRANCH  20  21
ATOM     21  S   UNL     1      28.364 -23.301 -16.649  0.00  0.00    -0.005 S 
ATOM     22  O   UNL     1      27.693 -24.164 -17.601  0.00  0.00    -0.072 OA
ATOM     23  O   UNL     1      29.481 -22.461 -17.030  0.00  0.00    -0.072 OA
ATOM     24  C   UNL     1      27.141 -22.278 -15.872  0.00  0.00    +0.181 C 
ENDBRANCH  20  21
ENDBRANCH  19  20
ENDBRANCH  16  19
ENDBRANCH   1  16
TORSDOF 13
ENDMDL
MODEL 5
REMARK VINA RESULT:      -7.6      3.683      7.259
REMARK  Name = 142775
REMARK  13 active torsions:
REMARK  status: ('A' for Active; 'I' for Inactive)
REMARK    1  A    between atoms: C_1  and  O_2
REMARK    2  A    between atoms: C_1  and  C_4
REMARK    3  A    between atoms: C_1  and  C_16
REMARK    4  A    between atoms: C_4  and  O_5
REMARK    5  A    between atoms: C_4  and  C_7
REMARK    6  A    between atoms: C_7  and  O_8
REMARK    7  A    between atoms: C_7  and  C_10
REMARK    8  A    between atoms: C_10  and  O_11
REMARK    9  A    between atoms: O_11  and  S_12
REMARK   10  A    between atoms: C_16  and  O_17
REMARK   11  A    between atoms: C_16  and  C_19
REMARK   12  A    between atoms: C_19  and  O_20
REMARK   13  A    between atoms: O_20  and  S_21
REMARK                            x       y       z     vdW  Elec       q    Type
REMARK                         _______ _______ _______ _____ _____    ______ ____
ROOT
ATOM      1  C   UNL     1      37.549 -25.587 -14.921  0.00  0.00    +0.169 C 
ENDROOT
BRANCH   1   2
ATOM      2  O   UNL     1      37.181 -26.536 -15.922  0.00  0.00    -0.379 OA
ATOM      3  H   UNL     1      37.259 -27.433 -15.561  0.00  0.00    +0.211 HD
ENDBRANCH   1   2
BRANCH   1   4
ATOM      4  C   UNL     1      36.470 -24.493 -14.861  0.00  0.00    +0.169 C 
BRANCH   4   5
ATOM      5  O   UNL     1      35.188 -25.101 -15.017  0.00  0.00    -0.379 OA
ATOM      6  H   UNL     1      35.086 -25.811 -14.364  0.00  0.00    +0.211 HD
ENDBRANCH   4   5
BRANCH   4   7
ATOM      7  C   UNL     1      36.652 -23.386 -15.919  0.00  0.00    +0.172 C 
BRANCH   7   8
ATOM      8  O   UNL     1      37.493 -22.367 -15.363  0.00  0.00    -0.379 OA
ATOM      9  H   UNL     1      37.846 -21.814 -16.077  0.00  0.00    +0.211 HD
ENDBRANCH   7   8
BRANCH   7  10
ATOM     10  C   UNL     1      35.351 -22.707 -16.344  0.00  0.00    +0.204 C 
BRANCH  10  11
ATOM     11  O   UNL     1      35.320 -22.573 -17.763  0.00  0.00    -0.239 OA
BRANCH  11  12
ATOM     12  S   UNL     1      33.899 -22.787 -18.535  0.00  0.00    -0.005 S 
ATOM     13  O   UNL     1      33.984 -23.955 -19.389  0.00  0.00    -0.072 OA
ATOM     14  O   UNL     1      33.419 -21.511 -19.025  0.00  0.00    -0.072 OA
ATOM     15  C   UNL     1      32.952 -23.220 -17.098  0.00  0.00    +0.181 C 
ENDBRANCH  11  12
ENDBRANCH  10  11
ENDBRANCH   7  10
ENDBRANCH   4   7
ENDBRANCH   1   4
BRANCH   1  16
ATOM     16  C   UNL     1      37.776 -26.309 -13.578  0.00  0.00    +0.172 C 
BRANCH  16  17
ATOM     17  O   UNL     1      36.701 -27.237 -13.383  0.00  0.00    -0.379 OA
ATOM     18  H   UNL     1      37.044 -28.046 -12.972  0.00  0.00    +0.211 HD
ENDBRANCH  16  17
BRANCH  16  19
ATOM     19  C   UNL     1      37.792 -25.383 -12.363  0.00  0.00    +0.204 C 
BRANCH  19  20
ATOM     20  O   UNL     1      36.653 -25.668 -11.555  0.00  0.00    -0.239 OA
BRANCH  20  21
ATOM     21  S   UNL     1      35.663 -24.439 -11.143  0.00  0.00    -0.005 S 
ATOM     22  O   UNL     1      35.414 -24.478  -9.715  0.00  0.00    -0.072 OA
ATOM     23  O   UNL     1      34.586 -24.342 -12.107  0.00  0.00    -0.072 OA
ATOM     24  C   UNL     1      36.817 -23.131 -11.467  0.00  0.00    +0.181 C 
ENDBRANCH  20  21
ENDBRANCH  19  20
ENDBRANCH  16  19
ENDBRANCH   1  16
TORSDOF 13
ENDMDL
MODEL 6
REMARK VINA RESULT:      -7.5      1.619      1.966
REMARK  Name = 142775
REMARK  13 active torsions:
REMARK  status: ('A' for Active; 'I' for Inactive)
REMARK    1  A    between atoms: C_1  and  O_2
REMARK    2  A    between atoms: C_1  and  C_4
REMARK    3  A    between atoms: C_1  and  C_16
REMARK    4  A    between atoms: C_4  and  O_5
REMARK    5  A    between atoms: C_4  and  C_7
REMARK    6  A    between atoms: C_7  and  O_8
REMARK    7  A    between atoms: C_7  and  C_10
REMARK    8  A    between atoms: C_10  and  O_11
REMARK    9  A    between atoms: O_11  and  S_12
REMARK   10  A    between atoms: C_16  and  O_17
REMARK   11  A    between atoms: C_16  and  C_19
REMARK   12  A    between atoms: C_19  and  O_20
REMARK   13  A    between atoms: O_20  and  S_21
REMARK                            x       y       z     vdW  Elec       q    Type
REMARK                         _______ _______ _______ _____ _____    ______ ____
ROOT
ATOM      1  C   UNL     1      31.933 -23.235 -14.037  0.00  0.00    +0.169 C 
ENDROOT
BRANCH   1   2
ATOM      2  O   UNL     1      32.305 -22.765 -12.741  0.00  0.00    -0.379 OA
ATOM      3  H   UNL     1      32.038 -21.838 -12.645  0.00  0.00    +0.211 HD
ENDBRANCH   1   2
BRANCH   1   4
ATOM      4  C   UNL     1      33.065 -24.124 -14.581  0.00  0.00    +0.169 C 
BRANCH   4   5
ATOM      5  O   UNL     1      33.587 -24.910 -13.511  0.00  0.00    -0.379 OA
ATOM      6  H   UNL     1      34.136 -25.625 -13.874  0.00  0.00    +0.211 HD
ENDBRANCH   4   5
BRANCH   4   7
ATOM      7  C   UNL     1      34.206 -23.331 -15.248  0.00  0.00    +0.172 C 
BRANCH   7   8
ATOM      8  O   UNL     1      34.488 -23.933 -16.518  0.00  0.00    -0.379 OA
ATOM      9  H   UNL     1      35.404 -24.253 -16.528  0.00  0.00    +0.211 HD
ENDBRANCH   7   8
BRANCH   7  10
ATOM     10  C   UNL     1      35.513 -23.330 -14.456  0.00  0.00    +0.204 C 
BRANCH  10  11
ATOM     11  O   UNL     1      36.495 -24.099 -15.147  0.00  0.00    -0.239 OA
BRANCH  11  12
ATOM     12  S   UNL     1      36.751 -25.639 -14.676  0.00  0.00    -0.005 S 
ATOM     13  O   UNL     1      36.186 -26.545 -15.655  0.00  0.00    -0.072 OA
ATOM     14  O   UNL     1      36.467 -25.764 -13.260  0.00  0.00    -0.072 OA
ATOM     15  C   UNL     1      38.513 -25.625 -14.888  0.00  0.00    +0.181 C 
ENDBRANCH  11  12
ENDBRANCH  10  11
ENDBRANCH   7  10
ENDBRANCH   4   7
ENDBRANCH   1   4
BRANCH   1  16
ATOM     16  C   UNL     1      30.568 -23.948 -13.959  0.00  0.00    +0.172 C 
BRANCH  16  17
ATOM     17  O   UNL     1      30.660 -24.980 -12.969  0.00  0.00    -0.379 OA
ATOM     18  H   UNL     1      31.593 -25.157 -12.773  0.00  0.00    +0.211 HD
ENDBRANCH  16  17
BRANCH  16  19
ATOM     19  C   UNL     1      30.134 -24.616 -15.262  0.00  0.00    +0.204 C 
BRANCH  19  20
ATOM     20  O   UNL     1      28.758 -24.320 -15.491  0.00  0.00    -0.239 OA
BRANCH  20  21
ATOM     21  S   UNL     1      28.370 -23.302 -16.704  0.00  0.00    -0.005 S 
ATOM     22  O   UNL     1      27.619 -24.019 -17.715  0.00  0.00    -0.072 OA
ATOM     23  O   UNL     1      29.521 -22.487 -17.037  0.00  0.00    -0.072 OA
ATOM     24  C   UNL     1      27.234 -22.303 -15.776  0.00  0.00    +0.181 C 
ENDBRANCH  20  21
ENDBRANCH  19  20
ENDBRANCH  16  19
ENDBRANCH   1  16
TORSDOF 13
ENDMDL
MODEL 7
REMARK VINA RESULT:      -7.4      1.829      7.374
REMARK  Name = 142775
REMARK  13 active torsions:
REMARK  status: ('A' for Active; 'I' for Inactive)
REMARK    1  A    between atoms: C_1  and  O_2
REMARK    2  A    between atoms: C_1  and  C_4
REMARK    3  A    between atoms: C_1  and  C_16
REMARK    4  A    between atoms: C_4  and  O_5
REMARK    5  A    between atoms: C_4  and  C_7
REMARK    6  A    between atoms: C_7  and  O_8
REMARK    7  A    between atoms: C_7  and  C_10
REMARK    8  A    between atoms: C_10  and  O_11
REMARK    9  A    between atoms: O_11  and  S_12
REMARK   10  A    between atoms: C_16  and  O_17
REMARK   11  A    between atoms: C_16  and  C_19
REMARK   12  A    between atoms: C_19  and  O_20
REMARK   13  A    between atoms: O_20  and  S_21
REMARK                            x       y       z     vdW  Elec       q    Type
REMARK                         _______ _______ _______ _____ _____    ______ ____
ROOT
ATOM      1  C   UNL     1      33.359 -24.107 -14.279  0.00  0.00    +0.169 C 
ENDROOT
BRANCH   1   2
ATOM      2  O   UNL     1      33.194 -23.502 -12.996  0.00  0.00    -0.379 OA
ATOM      3  H   UNL     1      32.528 -23.994 -12.491  0.00  0.00    +0.211 HD
ENDBRANCH   1   2
BRANCH   1   4
ATOM      4  C   UNL     1      32.007 -24.080 -15.012  0.00  0.00    +0.169 C 
BRANCH   4   5
ATOM      5  O   UNL     1      31.882 -22.837 -15.702  0.00  0.00    -0.379 OA
ATOM      6  H   UNL     1      32.684 -22.675 -16.225  0.00  0.00    +0.211 HD
ENDBRANCH   4   5
BRANCH   4   7
ATOM      7  C   UNL     1      30.795 -24.281 -14.082  0.00  0.00    +0.172 C 
BRANCH   7   8
ATOM      8  O   UNL     1      31.122 -25.306 -13.133  0.00  0.00    -0.379 OA
ATOM      9  H   UNL     1      31.471 -24.898 -12.325  0.00  0.00    +0.211 HD
ENDBRANCH   7   8
BRANCH   7  10
ATOM     10  C   UNL     1      29.523 -24.730 -14.799  0.00  0.00    +0.204 C 
BRANCH  10  11
ATOM     11  O   UNL     1      28.706 -23.596 -15.083  0.00  0.00    -0.239 OA
BRANCH  11  12
ATOM     12  S   UNL     1      28.384 -23.239 -16.642  0.00  0.00    -0.005 S 
ATOM     13  O   UNL     1      27.899 -24.424 -17.319  0.00  0.00    -0.072 OA
ATOM     14  O   UNL     1      29.458 -22.430 -17.183  0.00  0.00    -0.072 OA
ATOM     15  C   UNL     1      26.998 -22.178 -16.324  0.00  0.00    +0.181 C 
ENDBRANCH  11  12
ENDBRANCH  10  11
ENDBRANCH   7  10
ENDBRANCH   4   7
ENDBRANCH   1   4
BRANCH   1  16
ATOM     16  C   UNL     1      34.494 -23.398 -15.045  0.00  0.00    +0.172 C 
BRANCH  16  17
ATOM     17  O   UNL     1      34.553 -23.949 -16.366  0.00  0.00    -0.379 OA
ATOM     18  H   UNL     1      35.122 -23.394 -16.922  0.00  0.00    +0.211 HD
ENDBRANCH  16  17
BRANCH  16  19
ATOM     19  C   UNL     1      35.877 -23.578 -14.423  0.00  0.00    +0.204 C 
BRANCH  19  20
ATOM     20  O   UNL     1      35.932 -24.855 -13.790  0.00  0.00    -0.239 OA
BRANCH  20  21
ATOM     21  S   UNL     1      36.825 -26.031 -14.482  0.00  0.00    -0.005 S 
ATOM     22  O   UNL     1      36.182 -26.470 -15.705  0.00  0.00    -0.072 OA
ATOM     23  O   UNL     1      37.262 -26.967 -13.466  0.00  0.00    -0.072 OA
ATOM     24  C   UNL     1      38.206 -25.006 -14.921  0.00  0.00    +0.181 C 
ENDBRANCH  20  21
ENDBRANCH  19  20
ENDBRANCH  16  19
ENDBRANCH   1  16
TORSDOF 13
ENDMDL
MODEL 8
REMARK VINA RESULT:      -7.3      1.768      1.995
REMARK  Name = 142775
REMARK  13 active torsions:
REMARK  status: ('A' for Active; 'I' for Inactive)
REMARK    1  A    between atoms: C_1  and  O_2
REMARK    2  A    between atoms: C_1  and  C_4
REMARK    3  A    between atoms: C_1  and  C_16
REMARK    4  A    between atoms: C_4  and  O_5
REMARK    5  A    between atoms: C_4  and  C_7
REMARK    6  A    between atoms: C_7  and  O_8
REMARK    7  A    between atoms: C_7  and  C_10
REMARK    8  A    between atoms: C_10  and  O_11
REMARK    9  A    between atoms: O_11  and  S_12
REMARK   10  A    between atoms: C_16  and  O_17
REMARK   11  A    between atoms: C_16  and  C_19
REMARK   12  A    between atoms: C_19  and  O_20
REMARK   13  A    between atoms: O_20  and  S_21
REMARK                            x       y       z     vdW  Elec       q    Type
REMARK                         _______ _______ _______ _____ _____    ______ ____
ROOT
ATOM      1  C   UNL     1      33.699 -23.892 -13.630  0.00  0.00    +0.169 C 
ENDROOT
BRANCH   1   2
ATOM      2  O   UNL     1      34.175 -24.683 -12.541  0.00  0.00    -0.379 OA
ATOM      3  H   UNL     1      33.454 -24.828 -11.909  0.00  0.00    +0.211 HD
ENDBRANCH   1   2
BRANCH   1   4
ATOM      4  C   UNL     1      34.553 -24.200 -14.872  0.00  0.00    +0.169 C 
BRANCH   4   5
ATOM      5  O   UNL     1      35.230 -25.440 -14.669  0.00  0.00    -0.379 OA
ATOM      6  H   UNL     1      35.090 -25.739 -13.756  0.00  0.00    +0.211 HD
ENDBRANCH   4   5
BRANCH   4   7
ATOM      7  C   UNL     1      35.578 -23.098 -15.206  0.00  0.00    +0.172 C 
BRANCH   7   8
ATOM      8  O   UNL     1      35.804 -23.109 -16.622  0.00  0.00    -0.379 OA
ATOM      9  H   UNL     1      34.953 -23.072 -17.085  0.00  0.00    +0.211 HD
ENDBRANCH   7   8
BRANCH   7  10
ATOM     10  C   UNL     1      36.939 -23.286 -14.537  0.00  0.00    +0.204 C 
BRANCH  10  11
ATOM     11  O   UNL     1      36.792 -23.220 -13.120  0.00  0.00    -0.239 OA
BRANCH  11  12
ATOM     12  S   UNL     1      37.802 -24.100 -12.190  0.00  0.00    -0.005 S 
ATOM     13  O   UNL     1      37.032 -25.019 -11.376  0.00  0.00    -0.072 OA
ATOM     14  O   UNL     1      38.813 -23.232 -11.621  0.00  0.00    -0.072 OA
ATOM     15  C   UNL     1      38.544 -25.021 -13.513  0.00  0.00    +0.181 C 
ENDBRANCH  11  12
ENDBRANCH  10  11
ENDBRANCH   7  10
ENDBRANCH   4   7
ENDBRANCH   1   4
BRANCH   1  16
ATOM     16  C   UNL     1      32.192 -24.144 -13.836  0.00  0.00    +0.172 C 
BRANCH  16  17
ATOM     17  O   UNL     1      31.985 -25.558 -13.934  0.00  0.00    -0.379 OA
ATOM     18  H   UNL     1      32.723 -25.959 -14.420  0.00  0.00    +0.211 HD
ENDBRANCH  16  17
BRANCH  16  19
ATOM     19  C   UNL     1      31.620 -23.520 -15.108  0.00  0.00    +0.204 C 
BRANCH  19  20
ATOM     20  O   UNL     1      30.453 -22.774 -14.767  0.00  0.00    -0.239 OA
BRANCH  20  21
ATOM     21  S   UNL     1      29.233 -22.699 -15.846  0.00  0.00    -0.005 S 
ATOM     22  O   UNL     1      29.773 -22.452 -17.168  0.00  0.00    -0.072 OA
ATOM     23  O   UNL     1      28.152 -21.906 -15.298  0.00  0.00    -0.072 OA
ATOM     24  C   UNL     1      28.770 -24.410 -15.748  0.00  0.00    +0.181 C 
ENDBRANCH  20  21
ENDBRANCH  19  20
ENDBRANCH  16  19
ENDBRANCH   1  16
TORSDOF 13
ENDMDL
MODEL 9
REMARK VINA RESULT:      -7.2      1.646      7.170
REMARK  Name = 142775
REMARK  13 active torsions:
REMARK  status: ('A' for Active; 'I' for Inactive)
REMARK    1  A    between atoms: C_1  and  O_2
REMARK    2  A    between atoms: C_1  and  C_4
REMARK    3  A    between atoms: C_1  and  C_16
REMARK    4  A    between atoms: C_4  and  O_5
REMARK    5  A    between atoms: C_4  and  C_7
REMARK    6  A    between atoms: C_7  and  O_8
REMARK    7  A    between atoms: C_7  and  C_10
REMARK    8  A    between atoms: C_10  and  O_11
REMARK    9  A    between atoms: O_11  and  S_12
REMARK   10  A    between atoms: C_16  and  O_17
REMARK   11  A    between atoms: C_16  and  C_19
REMARK   12  A    between atoms: C_19  and  O_20
REMARK   13  A    between atoms: O_20  and  S_21
REMARK                            x       y       z     vdW  Elec       q    Type
REMARK                         _______ _______ _______ _____ _____    ______ ____
ROOT
ATOM      1  C   UNL     1      33.539 -23.144 -15.141  0.00  0.00    +0.169 C 
ENDROOT
BRANCH   1   2
ATOM      2  O   UNL     1      34.774 -22.474 -14.889  0.00  0.00    -0.379 OA
ATOM      3  H   UNL     1      34.754 -21.594 -15.297  0.00  0.00    +0.211 HD
ENDBRANCH   1   2
BRANCH   1   4
ATOM      4  C   UNL     1      33.515 -23.593 -16.612  0.00  0.00    +0.169 C 
BRANCH   4   5
ATOM      5  O   UNL     1      34.591 -22.960 -17.304  0.00  0.00    -0.379 OA
ATOM      6  H   UNL     1      34.233 -22.394 -18.008  0.00  0.00    +0.211 HD
ENDBRANCH   4   5
BRANCH   4   7
ATOM      7  C   UNL     1      32.185 -23.289 -17.330  0.00  0.00    +0.172 C 
BRANCH   7   8
ATOM      8  O   UNL     1      32.414 -22.228 -18.267  0.00  0.00    -0.379 OA
ATOM      9  H   UNL     1      31.747 -21.536 -18.140  0.00  0.00    +0.211 HD
ENDBRANCH   7   8
BRANCH   7  10
ATOM     10  C   UNL     1      31.064 -22.827 -16.400  0.00  0.00    +0.204 C 
BRANCH  10  11
ATOM     11  O   UNL     1      29.904 -22.512 -17.167  0.00  0.00    -0.239 OA
BRANCH  11  12
ATOM     12  S   UNL     1      28.444 -22.952 -16.588  0.00  0.00    -0.005 S 
ATOM     13  O   UNL     1      27.679 -23.590 -17.640  0.00  0.00    -0.072 OA
ATOM     14  O   UNL     1      27.898 -21.876 -15.786  0.00  0.00    -0.072 OA
ATOM     15  C   UNL     1      29.034 -24.215 -15.490  0.00  0.00    +0.181 C 
ENDBRANCH  11  12
ENDBRANCH  10  11
ENDBRANCH   7  10
ENDBRANCH   4   7
ENDBRANCH   1   4
BRANCH   1  16
ATOM     16  C   UNL     1      33.360 -24.299 -14.136  0.00  0.00    +0.172 C 
BRANCH  16  17
ATOM     17  O   UNL     1      32.452 -23.866 -13.116  0.00  0.00    -0.379 OA
ATOM     18  H   UNL     1      32.527 -22.905 -13.003  0.00  0.00    +0.211 HD
ENDBRANCH  16  17
BRANCH  16  19
ATOM     19  C   UNL     1      34.648 -24.727 -13.436  0.00  0.00    +0.204 C 
BRANCH  19  20
ATOM     20  O   UNL     1      34.724 -24.066 -12.175  0.00  0.00    -0.239 OA
BRANCH  20  21
ATOM     21  S   UNL     1      35.903 -24.503 -11.136  0.00  0.00    -0.005 S 
ATOM     22  O   UNL     1      36.569 -25.690 -11.634  0.00  0.00    -0.072 OA
ATOM     23  O   UNL     1      35.406 -24.414  -9.778  0.00  0.00    -0.072 OA
ATOM     24  C   UNL     1      36.961 -23.109 -11.431  0.00  0.00    +0.181 C 
ENDBRANCH  20  21
ENDBRANCH  19  20
ENDBRANCH  16  19
ENDBRANCH   1  16
TORSDOF 13
ENDMDL
