MODEL 1
REMARK VINA RESULT:     -10.2      0.000      0.000
REMARK  Name = 44129629
REMARK  3 active torsions:
REMARK  status: ('A' for Active; 'I' for Inactive)
REMARK    1  A    between atoms: C_6  and  C_16
REMARK    2  A    between atoms: C_9  and  S_21
REMARK    3  A    between atoms: S_21  and  N_24
REMARK                            x       y       z     vdW  Elec       q    Type
REMARK                         _______ _______ _______ _____ _____    ______ ____
ROOT
ATOM      1  S   UNL     1      33.421 -21.763 -19.457  0.00  0.00    +0.063 S 
ATOM      2  O   UNL     1      32.246 -21.409 -18.686  0.00  0.00    -0.153 OA
ATOM      3  O   UNL     1      33.421 -22.884 -20.375  0.00  0.00    -0.153 OA
ATOM      4  N   UNL     1      33.983 -20.361 -20.257  0.00  0.00    -0.163 NA
ATOM      5  N   UNL     1      36.312 -20.653 -19.625  0.00  0.00    -0.320 N 
ATOM      6  C   UNL     1      35.388 -20.431 -20.721  0.00  0.00    +0.147 C 
ATOM      7  C   UNL     1      36.008 -21.475 -18.549  0.00  0.00    +0.064 C 
ATOM      8  C   UNL     1      34.747 -22.049 -18.326  0.00  0.00    +0.136 C 
ATOM      9  C   UNL     1      35.482 -23.076 -16.275  0.00  0.00    +0.120 C 
ATOM     10  C   UNL     1      34.475 -22.841 -17.207  0.00  0.00    +0.041 C 
ATOM     11  C   UNL     1      36.997 -21.720 -17.583  0.00  0.00    +0.013 C 
ATOM     12  C   UNL     1      36.741 -22.514 -16.461  0.00  0.00    -0.002 C 
ATOM     13  C   UNL     1      37.844 -22.739 -15.478  0.00  0.00    +0.032 C 
ATOM     14  H   UNL     1      33.900 -19.575 -19.615  0.00  0.00    +0.151 HD
ATOM     15  H   UNL     1      37.187 -20.204 -19.644  0.00  0.00    +0.148 HD
ENDROOT
BRANCH   6  16
ATOM     16  C   UNL     1      35.731 -19.128 -21.420  0.00  0.00    +0.035 C 
ATOM     17  C   UNL     1      35.364 -19.125 -22.901  0.00  0.00    +0.003 C 
ATOM     18  C   UNL     1      34.945 -17.934 -20.887  0.00  0.00    +0.003 C 
ATOM     19  C   UNL     1      35.351 -17.646 -23.277  0.00  0.00    +0.000 C 
ATOM     20  C   UNL     1      35.093 -16.879 -21.979  0.00  0.00    +0.000 C 
ENDBRANCH   6  16
BRANCH   9  21
ATOM     21  S   UNL     1      35.127 -24.072 -14.881  0.00  0.00    +0.063 S 
ATOM     22  O   UNL     1      35.663 -25.403 -15.124  0.00  0.00    -0.153 OA
ATOM     23  O   UNL     1      35.513 -23.342 -13.684  0.00  0.00    -0.153 OA
BRANCH  21  24
ATOM     24  N   UNL     1      33.418 -24.140 -14.959  0.00  0.00    -0.160 NA
ATOM     25  N   UNL     1      30.609 -23.869 -14.405  0.00  0.00    +0.387 N 
ATOM     26  C   UNL     1      32.730 -22.827 -15.118  0.00  0.00    +0.073 C 
ATOM     27  C   UNL     1      32.761 -24.975 -13.914  0.00  0.00    +0.073 C 
ATOM     28  C   UNL     1      31.256 -23.059 -15.447  0.00  0.00    -0.058 C 
ATOM     29  C   UNL     1      31.286 -25.166 -14.266  0.00  0.00    -0.058 C 
ATOM     30  C   UNL     1      29.191 -24.058 -14.708  0.00  0.00    -0.101 C 
ATOM     31  H   UNL     1      30.683 -23.370 -13.518  0.00  0.00    -0.080 HD
ENDBRANCH  21  24
ENDBRANCH   9  21
TORSDOF 3
ENDMDL
MODEL 2
REMARK VINA RESULT:      -9.4      2.519      4.176
REMARK  Name = 44129629
REMARK  3 active torsions:
REMARK  status: ('A' for Active; 'I' for Inactive)
REMARK    1  A    between atoms: C_6  and  C_16
REMARK    2  A    between atoms: C_9  and  S_21
REMARK    3  A    between atoms: S_21  and  N_24
REMARK                            x       y       z     vdW  Elec       q    Type
REMARK                         _______ _______ _______ _____ _____    ______ ____
ROOT
ATOM      1  S   UNL     1      33.517 -22.659 -19.071  0.00  0.00    +0.063 S 
ATOM      2  O   UNL     1      32.293 -22.556 -18.302  0.00  0.00    -0.153 OA
ATOM      3  O   UNL     1      33.813 -23.823 -19.881  0.00  0.00    -0.153 OA
ATOM      4  N   UNL     1      33.680 -21.243 -20.014  0.00  0.00    -0.163 NA
ATOM      5  N   UNL     1      36.005 -20.841 -19.427  0.00  0.00    -0.320 N 
ATOM      6  C   UNL     1      35.050 -20.981 -20.511  0.00  0.00    +0.147 C 
ATOM      7  C   UNL     1      35.935 -21.605 -18.271  0.00  0.00    +0.064 C 
ATOM      8  C   UNL     1      34.875 -22.469 -17.959  0.00  0.00    +0.136 C 
ATOM      9  C   UNL     1      35.866 -23.059 -15.843  0.00  0.00    +0.120 C 
ATOM     10  C   UNL     1      34.830 -23.193 -16.764  0.00  0.00    +0.041 C 
ATOM     11  C   UNL     1      36.958 -21.483 -17.317  0.00  0.00    +0.013 C 
ATOM     12  C   UNL     1      36.928 -22.203 -16.119  0.00  0.00    -0.002 C 
ATOM     13  C   UNL     1      38.054 -22.029 -15.152  0.00  0.00    +0.032 C 
ATOM     14  H   UNL     1      33.392 -20.448 -19.446  0.00  0.00    +0.151 HD
ATOM     15  H   UNL     1      36.727 -20.179 -19.514  0.00  0.00    +0.148 HD
ENDROOT
BRANCH   6  16
ATOM     16  C   UNL     1      35.030 -19.708 -21.338  0.00  0.00    +0.035 C 
ATOM     17  C   UNL     1      33.803 -18.839 -21.074  0.00  0.00    +0.003 C 
ATOM     18  C   UNL     1      36.178 -18.758 -21.009  0.00  0.00    +0.003 C 
ATOM     19  C   UNL     1      34.195 -17.468 -21.615  0.00  0.00    +0.000 C 
ATOM     20  C   UNL     1      35.724 -17.420 -21.585  0.00  0.00    +0.000 C 
ENDBRANCH   6  16
BRANCH   9  21
ATOM     21  S   UNL     1      35.796 -23.973 -14.354  0.00  0.00    +0.063 S 
ATOM     22  O   UNL     1      35.669 -23.035 -13.248  0.00  0.00    -0.153 OA
ATOM     23  O   UNL     1      34.821 -25.040 -14.515  0.00  0.00    -0.153 OA
BRANCH  21  24
ATOM     24  N   UNL     1      37.365 -24.659 -14.321  0.00  0.00    -0.160 NA
ATOM     25  N   UNL     1      39.635 -26.354 -13.829  0.00  0.00    +0.387 N 
ATOM     26  C   UNL     1      37.506 -25.969 -15.018  0.00  0.00    +0.073 C 
ATOM     27  C   UNL     1      38.029 -24.677 -12.988  0.00  0.00    +0.073 C 
ATOM     28  C   UNL     1      38.987 -26.321 -15.147  0.00  0.00    -0.058 C 
ATOM     29  C   UNL     1      39.501 -25.053 -13.157  0.00  0.00    -0.058 C 
ATOM     30  C   UNL     1      41.043 -26.724 -13.957  0.00  0.00    -0.101 C 
ATOM     31  H   UNL     1      39.168 -27.060 -13.259  0.00  0.00    -0.080 HD
ENDBRANCH  21  24
ENDBRANCH   9  21
TORSDOF 3
ENDMDL
MODEL 3
REMARK VINA RESULT:      -9.3      6.502     10.300
REMARK  Name = 44129629
REMARK  3 active torsions:
REMARK  status: ('A' for Active; 'I' for Inactive)
REMARK    1  A    between atoms: C_6  and  C_16
REMARK    2  A    between atoms: C_9  and  S_21
REMARK    3  A    between atoms: S_21  and  N_24
REMARK                            x       y       z     vdW  Elec       q    Type
REMARK                         _______ _______ _______ _____ _____    ______ ____
ROOT
ATOM      1  S   UNL     1      32.892 -14.298 -20.558  0.00  0.00    +0.063 S 
ATOM      2  O   UNL     1      34.227 -14.570 -20.062  0.00  0.00    -0.153 OA
ATOM      3  O   UNL     1      31.744 -15.064 -20.118  0.00  0.00    -0.153 OA
ATOM      4  N   UNL     1      32.578 -12.628 -20.369  0.00  0.00    -0.163 NA
ATOM      5  N   UNL     1      31.719 -12.299 -22.619  0.00  0.00    -0.320 N 
ATOM      6  C   UNL     1      31.471 -12.106 -21.203  0.00  0.00    +0.147 C 
ATOM      7  C   UNL     1      32.343 -13.433 -23.117  0.00  0.00    +0.064 C 
ATOM      8  C   UNL     1      32.930 -14.426 -22.319  0.00  0.00    +0.136 C 
ATOM      9  C   UNL     1      33.659 -15.669 -24.249  0.00  0.00    +0.120 C 
ATOM     10  C   UNL     1      33.582 -15.535 -22.866  0.00  0.00    +0.041 C 
ATOM     11  C   UNL     1      32.450 -13.592 -24.509  0.00  0.00    +0.013 C 
ATOM     12  C   UNL     1      33.095 -14.697 -25.070  0.00  0.00    -0.002 C 
ATOM     13  C   UNL     1      33.164 -14.804 -26.559  0.00  0.00    +0.032 C 
ATOM     14  H   UNL     1      33.426 -12.117 -20.611  0.00  0.00    +0.151 HD
ATOM     15  H   UNL     1      31.433 -11.600 -23.250  0.00  0.00    +0.148 HD
ENDROOT
BRANCH   6  16
ATOM     16  C   UNL     1      31.306 -10.624 -20.913  0.00  0.00    +0.035 C 
ATOM     17  C   UNL     1      31.880 -10.208 -19.561  0.00  0.00    +0.003 C 
ATOM     18  C   UNL     1      32.077  -9.732 -21.882  0.00  0.00    +0.003 C 
ATOM     19  C   UNL     1      32.031  -8.694 -19.673  0.00  0.00    +0.000 C 
ATOM     20  C   UNL     1      32.146  -8.387 -21.167  0.00  0.00    +0.000 C 
ENDBRANCH   6  16
BRANCH   9  21
ATOM     21  S   UNL     1      34.476 -17.063 -24.919  0.00  0.00    +0.063 S 
ATOM     22  O   UNL     1      33.513 -17.825 -25.700  0.00  0.00    -0.153 OA
ATOM     23  O   UNL     1      35.717 -16.618 -25.533  0.00  0.00    -0.153 OA
BRANCH  21  24
ATOM     24  N   UNL     1      34.848 -17.936 -23.493  0.00  0.00    -0.160 NA
ATOM     25  N   UNL     1      35.834 -19.875 -21.613  0.00  0.00    +0.387 N 
ATOM     26  C   UNL     1      36.292 -17.981 -23.128  0.00  0.00    +0.073 C 
ATOM     27  C   UNL     1      34.216 -19.280 -23.381  0.00  0.00    +0.073 C 
ATOM     28  C   UNL     1      36.444 -18.543 -21.715  0.00  0.00    -0.058 C 
ATOM     29  C   UNL     1      34.407 -19.817 -21.962  0.00  0.00    -0.058 C 
ATOM     30  C   UNL     1      36.012 -20.421 -20.269  0.00  0.00    -0.101 C 
ATOM     31  H   UNL     1      36.302 -20.495 -22.275  0.00  0.00    -0.080 HD
ENDBRANCH  21  24
ENDBRANCH   9  21
TORSDOF 3
ENDMDL
MODEL 4
REMARK VINA RESULT:      -8.9     10.397     14.665
REMARK  Name = 44129629
REMARK  3 active torsions:
REMARK  status: ('A' for Active; 'I' for Inactive)
REMARK    1  A    between atoms: C_6  and  C_16
REMARK    2  A    between atoms: C_9  and  S_21
REMARK    3  A    between atoms: S_21  and  N_24
REMARK                            x       y       z     vdW  Elec       q    Type
REMARK                         _______ _______ _______ _____ _____    ______ ____
ROOT
ATOM      1  S   UNL     1      33.858 -11.756 -25.171  0.00  0.00    +0.063 S 
ATOM      2  O   UNL     1      35.109 -11.032 -25.274  0.00  0.00    -0.153 OA
ATOM      3  O   UNL     1      32.845 -11.678 -26.204  0.00  0.00    -0.153 OA
ATOM      4  N   UNL     1      34.210 -13.393 -24.830  0.00  0.00    -0.163 NA
ATOM      5  N   UNL     1      32.600 -13.603 -23.020  0.00  0.00    -0.320 N 
ATOM      6  C   UNL     1      33.079 -14.168 -24.267  0.00  0.00    +0.147 C 
ATOM      7  C   UNL     1      32.542 -12.235 -22.796  0.00  0.00    +0.064 C 
ATOM      8  C   UNL     1      33.071 -11.270 -23.666  0.00  0.00    +0.136 C 
ATOM      9  C   UNL     1      32.434  -9.470 -22.196  0.00  0.00    +0.120 C 
ATOM     10  C   UNL     1      33.023  -9.902 -23.381  0.00  0.00    +0.041 C 
ATOM     11  C   UNL     1      31.967 -11.768 -21.603  0.00  0.00    +0.013 C 
ATOM     12  C   UNL     1      31.908 -10.402 -21.307  0.00  0.00    -0.002 C 
ATOM     13  C   UNL     1      31.275  -9.977 -20.022  0.00  0.00    +0.032 C 
ATOM     14  H   UNL     1      34.977 -13.420 -24.159  0.00  0.00    +0.151 HD
ATOM     15  H   UNL     1      32.305 -14.212 -22.306  0.00  0.00    +0.148 HD
ENDROOT
BRANCH   6  16
ATOM     16  C   UNL     1      33.541 -15.596 -24.034  0.00  0.00    +0.035 C 
ATOM     17  C   UNL     1      34.034 -16.283 -25.305  0.00  0.00    +0.003 C 
ATOM     18  C   UNL     1      34.757 -15.693 -23.118  0.00  0.00    +0.003 C 
ATOM     19  C   UNL     1      34.849 -17.467 -24.793  0.00  0.00    +0.000 C 
ATOM     20  C   UNL     1      35.304 -17.093 -23.382  0.00  0.00    +0.000 C 
ENDBRANCH   6  16
BRANCH   9  21
ATOM     21  S   UNL     1      32.380  -7.756 -21.856  0.00  0.00    +0.063 S 
ATOM     22  O   UNL     1      31.003  -7.395 -21.551  0.00  0.00    -0.153 OA
ATOM     23  O   UNL     1      33.438  -7.442 -20.908  0.00  0.00    -0.153 OA
BRANCH  21  24
ATOM     24  N   UNL     1      32.798  -7.108 -23.384  0.00  0.00    -0.160 NA
ATOM     25  N   UNL     1      33.774  -5.433 -25.508  0.00  0.00    +0.387 N 
ATOM     26  C   UNL     1      34.259  -6.985 -23.651  0.00  0.00    +0.073 C 
ATOM     27  C   UNL     1      32.067  -5.872 -23.779  0.00  0.00    +0.073 C 
ATOM     28  C   UNL     1      34.484  -6.662 -25.127  0.00  0.00    -0.058 C 
ATOM     29  C   UNL     1      32.333  -5.570 -25.254  0.00  0.00    -0.058 C 
ATOM     30  C   UNL     1      34.021  -5.111 -26.912  0.00  0.00    -0.101 C 
ATOM     31  H   UNL     1      34.130  -4.666 -24.936  0.00  0.00    -0.080 HD
ENDBRANCH  21  24
ENDBRANCH   9  21
TORSDOF 3
ENDMDL
MODEL 5
REMARK VINA RESULT:      -8.8     10.628     14.400
REMARK  Name = 44129629
REMARK  3 active torsions:
REMARK  status: ('A' for Active; 'I' for Inactive)
REMARK    1  A    between atoms: C_6  and  C_16
REMARK    2  A    between atoms: C_9  and  S_21
REMARK    3  A    between atoms: S_21  and  N_24
REMARK                            x       y       z     vdW  Elec       q    Type
REMARK                         _______ _______ _______ _____ _____    ______ ____
ROOT
ATOM      1  S   UNL     1      33.847 -11.193 -24.392  0.00  0.00    +0.063 S 
ATOM      2  O   UNL     1      35.115 -10.509 -24.234  0.00  0.00    -0.153 OA
ATOM      3  O   UNL     1      32.937 -10.871 -25.472  0.00  0.00    -0.153 OA
ATOM      4  N   UNL     1      34.138 -12.877 -24.365  0.00  0.00    -0.163 NA
ATOM      5  N   UNL     1      32.363 -13.393 -22.786  0.00  0.00    -0.320 N 
ATOM      6  C   UNL     1      32.947 -13.709 -24.076  0.00  0.00    +0.147 C 
ATOM      7  C   UNL     1      32.308 -12.097 -22.292  0.00  0.00    +0.064 C 
ATOM      8  C   UNL     1      32.932 -10.995 -22.895  0.00  0.00    +0.136 C 
ATOM      9  C   UNL     1      32.191  -9.511 -21.148  0.00  0.00    +0.120 C 
ATOM     10  C   UNL     1      32.881  -9.713 -22.340  0.00  0.00    +0.041 C 
ATOM     11  C   UNL     1      31.632 -11.862 -21.084  0.00  0.00    +0.013 C 
ATOM     12  C   UNL     1      31.569 -10.585 -20.519  0.00  0.00    -0.002 C 
ATOM     13  C   UNL     1      30.825 -10.407 -19.235  0.00  0.00    +0.032 C 
ATOM     14  H   UNL     1      34.839 -13.067 -23.650  0.00  0.00    +0.151 HD
ATOM     15  H   UNL     1      31.992 -14.124 -22.242  0.00  0.00    +0.148 HD
ENDROOT
BRANCH   6  16
ATOM     16  C   UNL     1      33.360 -15.170 -24.102  0.00  0.00    +0.035 C 
ATOM     17  C   UNL     1      33.757 -15.658 -25.493  0.00  0.00    +0.003 C 
ATOM     18  C   UNL     1      34.619 -15.454 -23.287  0.00  0.00    +0.003 C 
ATOM     19  C   UNL     1      34.548 -16.935 -25.226  0.00  0.00    +0.000 C 
ATOM     20  C   UNL     1      35.093 -16.809 -23.803  0.00  0.00    +0.000 C 
ENDBRANCH   6  16
BRANCH   9  21
ATOM     21  S   UNL     1      32.134  -7.900 -20.468  0.00  0.00    +0.063 S 
ATOM     22  O   UNL     1      30.977  -7.817 -19.589  0.00  0.00    -0.153 OA
ATOM     23  O   UNL     1      33.456  -7.569 -19.960  0.00  0.00    -0.153 OA
BRANCH  21  24
ATOM     24  N   UNL     1      31.832  -6.967 -21.872  0.00  0.00    -0.160 NA
ATOM     25  N   UNL     1      31.818  -4.900 -23.872  0.00  0.00    +0.387 N 
ATOM     26  C   UNL     1      33.002  -6.766 -22.772  0.00  0.00    +0.073 C 
ATOM     27  C   UNL     1      31.093  -5.693 -21.648  0.00  0.00    +0.073 C 
ATOM     28  C   UNL     1      32.531  -6.165 -24.096  0.00  0.00    -0.058 C 
ATOM     29  C   UNL     1      30.658  -5.112 -22.993  0.00  0.00    -0.058 C 
ATOM     30  C   UNL     1      31.400  -4.313 -25.143  0.00  0.00    -0.101 C 
ATOM     31  H   UNL     1      32.455  -4.249 -23.412  0.00  0.00    -0.080 HD
ENDBRANCH  21  24
ENDBRANCH   9  21
TORSDOF 3
ENDMDL
MODEL 6
REMARK VINA RESULT:      -8.7      6.788     11.811
REMARK  Name = 44129629
REMARK  3 active torsions:
REMARK  status: ('A' for Active; 'I' for Inactive)
REMARK    1  A    between atoms: C_6  and  C_16
REMARK    2  A    between atoms: C_9  and  S_21
REMARK    3  A    between atoms: S_21  and  N_24
REMARK                            x       y       z     vdW  Elec       q    Type
REMARK                         _______ _______ _______ _____ _____    ______ ____
ROOT
ATOM      1  S   UNL     1      33.948 -15.026 -20.884  0.00  0.00    +0.063 S 
ATOM      2  O   UNL     1      32.817 -14.297 -20.346  0.00  0.00    -0.153 OA
ATOM      3  O   UNL     1      35.301 -14.777 -20.430  0.00  0.00    -0.153 OA
ATOM      4  N   UNL     1      33.606 -16.698 -20.789  0.00  0.00    -0.163 NA
ATOM      5  N   UNL     1      34.277 -17.201 -23.071  0.00  0.00    -0.320 N 
ATOM      6  C   UNL     1      34.433 -17.553 -21.672  0.00  0.00    +0.147 C 
ATOM      7  C   UNL     1      34.129 -15.889 -23.496  0.00  0.00    +0.064 C 
ATOM      8  C   UNL     1      33.962 -14.794 -22.634  0.00  0.00    +0.136 C 
ATOM      9  C   UNL     1      33.758 -13.261 -24.482  0.00  0.00    +0.120 C 
ATOM     10  C   UNL     1      33.779 -13.492 -23.110  0.00  0.00    +0.041 C 
ATOM     11  C   UNL     1      34.091 -15.624 -24.875  0.00  0.00    +0.013 C 
ATOM     12  C   UNL     1      33.912 -14.327 -25.364  0.00  0.00    -0.002 C 
ATOM     13  C   UNL     1      33.889 -14.118 -26.844  0.00  0.00    +0.032 C 
ATOM     14  H   UNL     1      32.628 -16.837 -21.039  0.00  0.00    +0.151 HD
ATOM     15  H   UNL     1      34.277 -17.920 -23.743  0.00  0.00    +0.148 HD
ENDROOT
BRANCH   6  16
ATOM     16  C   UNL     1      34.025 -19.000 -21.463  0.00  0.00    +0.035 C 
ATOM     17  C   UNL     1      35.050 -19.806 -20.670  0.00  0.00    +0.003 C 
ATOM     18  C   UNL     1      32.765 -19.154 -20.616  0.00  0.00    +0.003 C 
ATOM     19  C   UNL     1      34.271 -21.027 -20.190  0.00  0.00    +0.000 C 
ATOM     20  C   UNL     1      32.799 -20.611 -20.167  0.00  0.00    +0.000 C 
ENDBRANCH   6  16
BRANCH   9  21
ATOM     21  S   UNL     1      33.531 -11.627 -25.061  0.00  0.00    +0.063 S 
ATOM     22  O   UNL     1      34.807 -11.137 -25.561  0.00  0.00    -0.153 OA
ATOM     23  O   UNL     1      32.358 -11.603 -25.922  0.00  0.00    -0.153 OA
BRANCH  21  24
ATOM     24  N   UNL     1      33.158 -10.815 -23.600  0.00  0.00    -0.160 NA
ATOM     25  N   UNL     1      31.930  -9.186 -21.574  0.00  0.00    +0.387 N 
ATOM     26  C   UNL     1      31.903 -11.251 -22.926  0.00  0.00    +0.073 C 
ATOM     27  C   UNL     1      33.263  -9.330 -23.647  0.00  0.00    +0.073 C 
ATOM     28  C   UNL     1      31.843 -10.652 -21.521  0.00  0.00    -0.058 C 
ATOM     29  C   UNL     1      33.177  -8.767 -22.228  0.00  0.00    -0.058 C 
ATOM     30  C   UNL     1      31.837  -8.617 -20.231  0.00  0.00    -0.101 C 
ATOM     31  H   UNL     1      31.144  -8.837 -22.125  0.00  0.00    -0.080 HD
ENDBRANCH  21  24
ENDBRANCH   9  21
TORSDOF 3
ENDMDL
MODEL 7
REMARK VINA RESULT:      -8.7      5.020      8.566
REMARK  Name = 44129629
REMARK  3 active torsions:
REMARK  status: ('A' for Active; 'I' for Inactive)
REMARK    1  A    between atoms: C_6  and  C_16
REMARK    2  A    between atoms: C_9  and  S_21
REMARK    3  A    between atoms: S_21  and  N_24
REMARK                            x       y       z     vdW  Elec       q    Type
REMARK                         _______ _______ _______ _____ _____    ______ ____
ROOT
ATOM      1  S   UNL     1      33.387 -14.559 -20.478  0.00  0.00    +0.063 S 
ATOM      2  O   UNL     1      34.622 -14.495 -19.722  0.00  0.00    -0.153 OA
ATOM      3  O   UNL     1      32.188 -15.160 -19.931  0.00  0.00    -0.153 OA
ATOM      4  N   UNL     1      33.033 -12.992 -21.061  0.00  0.00    -0.163 NA
ATOM      5  N   UNL     1      32.559 -13.695 -23.340  0.00  0.00    -0.320 N 
ATOM      6  C   UNL     1      32.076 -12.951 -22.192  0.00  0.00    +0.147 C 
ATOM      7  C   UNL     1      33.267 -14.882 -23.213  0.00  0.00    +0.064 C 
ATOM      8  C   UNL     1      33.720 -15.404 -21.992  0.00  0.00    +0.136 C 
ATOM      9  C   UNL     1      34.772 -17.276 -23.085  0.00  0.00    +0.120 C 
ATOM     10  C   UNL     1      34.463 -16.586 -21.916  0.00  0.00    +0.041 C 
ATOM     11  C   UNL     1      33.606 -15.595 -24.374  0.00  0.00    +0.013 C 
ATOM     12  C   UNL     1      34.345 -16.781 -24.313  0.00  0.00    -0.002 C 
ATOM     13  C   UNL     1      34.663 -17.491 -25.589  0.00  0.00    +0.032 C 
ATOM     14  H   UNL     1      33.905 -12.562 -21.368  0.00  0.00    +0.151 HD
ATOM     15  H   UNL     1      32.377 -13.346 -24.242  0.00  0.00    +0.148 HD
ENDROOT
BRANCH   6  16
ATOM     16  C   UNL     1      31.853 -11.501 -22.584  0.00  0.00    +0.035 C 
ATOM     17  C   UNL     1      31.691 -10.571 -21.384  0.00  0.00    +0.003 C 
ATOM     18  C   UNL     1      33.044 -10.885 -23.314  0.00  0.00    +0.003 C 
ATOM     19  C   UNL     1      31.944  -9.180 -21.956  0.00  0.00    +0.000 C 
ATOM     20  C   UNL     1      32.804  -9.382 -23.204  0.00  0.00    +0.000 C 
ENDBRANCH   6  16
BRANCH   9  21
ATOM     21  S   UNL     1      35.700 -18.754 -22.973  0.00  0.00    +0.063 S 
ATOM     22  O   UNL     1      35.433 -19.552 -24.161  0.00  0.00    -0.153 OA
ATOM     23  O   UNL     1      37.070 -18.411 -22.622  0.00  0.00    -0.153 OA
BRANCH  21  24
ATOM     24  N   UNL     1      34.957 -19.502 -21.624  0.00  0.00    -0.160 NA
ATOM     25  N   UNL     1      33.642 -21.357 -19.863  0.00  0.00    +0.387 N 
ATOM     26  C   UNL     1      35.694 -20.661 -21.045  0.00  0.00    +0.073 C 
ATOM     27  C   UNL     1      33.505 -19.801 -21.776  0.00  0.00    +0.073 C 
ATOM     28  C   UNL     1      35.069 -21.046 -19.705  0.00  0.00    -0.058 C 
ATOM     29  C   UNL     1      32.922 -20.203 -20.421  0.00  0.00    -0.058 C 
ATOM     30  C   UNL     1      33.058 -21.758 -18.584  0.00  0.00    -0.101 C 
ATOM     31  H   UNL     1      33.553 -22.138 -20.515  0.00  0.00    -0.080 HD
ENDBRANCH  21  24
ENDBRANCH   9  21
TORSDOF 3
ENDMDL
MODEL 8
REMARK VINA RESULT:      -8.4      3.200      8.383
REMARK  Name = 44129629
REMARK  3 active torsions:
REMARK  status: ('A' for Active; 'I' for Inactive)
REMARK    1  A    between atoms: C_6  and  C_16
REMARK    2  A    between atoms: C_9  and  S_21
REMARK    3  A    between atoms: S_21  and  N_24
REMARK                            x       y       z     vdW  Elec       q    Type
REMARK                         _______ _______ _______ _____ _____    ______ ____
ROOT
ATOM      1  S   UNL     1      36.405 -21.642 -18.267  0.00  0.00    +0.063 S 
ATOM      2  O   UNL     1      37.125 -20.530 -17.678  0.00  0.00    -0.153 OA
ATOM      3  O   UNL     1      37.096 -22.747 -18.900  0.00  0.00    -0.153 OA
ATOM      4  N   UNL     1      35.298 -22.240 -17.111  0.00  0.00    -0.163 NA
ATOM      5  N   UNL     1      33.401 -22.324 -18.629  0.00  0.00    -0.320 N 
ATOM      6  C   UNL     1      34.200 -23.063 -17.669  0.00  0.00    +0.147 C 
ATOM      7  C   UNL     1      33.957 -21.410 -19.513  0.00  0.00    +0.064 C 
ATOM      8  C   UNL     1      35.296 -20.991 -19.477  0.00  0.00    +0.136 C 
ATOM      9  C   UNL     1      34.962 -19.479 -21.322  0.00  0.00    +0.120 C 
ATOM     10  C   UNL     1      35.803 -20.039 -20.365  0.00  0.00    +0.041 C 
ATOM     11  C   UNL     1      33.131 -20.817 -20.481  0.00  0.00    +0.013 C 
ATOM     12  C   UNL     1      33.626 -19.866 -21.379  0.00  0.00    -0.002 C 
ATOM     13  C   UNL     1      32.692 -19.281 -22.388  0.00  0.00    +0.032 C 
ATOM     14  H   UNL     1      34.884 -21.445 -16.627  0.00  0.00    +0.151 HD
ATOM     15  H   UNL     1      32.430 -22.477 -18.655  0.00  0.00    +0.148 HD
ENDROOT
BRANCH   6  16
ATOM     16  C   UNL     1      33.317 -23.529 -16.525  0.00  0.00    +0.035 C 
ATOM     17  C   UNL     1      33.789 -23.035 -15.160  0.00  0.00    +0.003 C 
ATOM     18  C   UNL     1      31.896 -22.976 -16.598  0.00  0.00    +0.003 C 
ATOM     19  C   UNL     1      32.568 -23.205 -14.262  0.00  0.00    +0.000 C 
ATOM     20  C   UNL     1      31.351 -23.179 -15.188  0.00  0.00    +0.000 C 
ENDBRANCH   6  16
BRANCH   9  21
ATOM     21  S   UNL     1      35.612 -18.290 -22.428  0.00  0.00    +0.063 S 
ATOM     22  O   UNL     1      36.962 -17.957 -21.998  0.00  0.00    -0.153 OA
ATOM     23  O   UNL     1      35.378 -18.751 -23.788  0.00  0.00    -0.153 OA
BRANCH  21  24
ATOM     24  N   UNL     1      34.584 -16.958 -22.113  0.00  0.00    -0.160 NA
ATOM     25  N   UNL     1      33.534 -14.323 -21.639  0.00  0.00    +0.387 N 
ATOM     26  C   UNL     1      34.441 -15.980 -23.228  0.00  0.00    +0.073 C 
ATOM     27  C   UNL     1      34.809 -16.269 -20.811  0.00  0.00    +0.073 C 
ATOM     28  C   UNL     1      33.301 -15.012 -22.916  0.00  0.00    -0.058 C 
ATOM     29  C   UNL     1      33.661 -15.295 -20.544  0.00  0.00    -0.058 C 
ATOM     30  C   UNL     1      32.458 -13.374 -21.363  0.00  0.00    -0.101 C 
ATOM     31  H   UNL     1      34.410 -13.803 -21.711  0.00  0.00    -0.080 HD
ENDBRANCH  21  24
ENDBRANCH   9  21
TORSDOF 3
ENDMDL
MODEL 9
REMARK VINA RESULT:      -8.2      7.741     12.638
REMARK  Name = 44129629
REMARK  3 active torsions:
REMARK  status: ('A' for Active; 'I' for Inactive)
REMARK    1  A    between atoms: C_6  and  C_16
REMARK    2  A    between atoms: C_9  and  S_21
REMARK    3  A    between atoms: S_21  and  N_24
REMARK                            x       y       z     vdW  Elec       q    Type
REMARK                         _______ _______ _______ _____ _____    ______ ____
ROOT
ATOM      1  S   UNL     1      33.579 -15.500 -20.789  0.00  0.00    +0.063 S 
ATOM      2  O   UNL     1      32.272 -15.802 -20.242  0.00  0.00    -0.153 OA
ATOM      3  O   UNL     1      34.716 -15.216 -19.936  0.00  0.00    -0.153 OA
ATOM      4  N   UNL     1      33.990 -16.724 -21.908  0.00  0.00    -0.163 NA
ATOM      5  N   UNL     1      34.703 -15.201 -23.665  0.00  0.00    -0.320 N 
ATOM      6  C   UNL     1      35.060 -16.358 -22.865  0.00  0.00    +0.147 C 
ATOM      7  C   UNL     1      33.987 -14.131 -23.146  0.00  0.00    +0.064 C 
ATOM      8  C   UNL     1      33.409 -14.113 -21.868  0.00  0.00    +0.136 C 
ATOM      9  C   UNL     1      32.482 -11.918 -22.225  0.00  0.00    +0.120 C 
ATOM     10  C   UNL     1      32.665 -13.026 -21.402  0.00  0.00    +0.041 C 
ATOM     11  C   UNL     1      33.774 -13.004 -23.957  0.00  0.00    +0.013 C 
ATOM     12  C   UNL     1      33.035 -11.907 -23.502  0.00  0.00    -0.002 C 
ATOM     13  C   UNL     1      32.854 -10.739 -24.416  0.00  0.00    +0.032 C 
ATOM     14  H   UNL     1      33.154 -16.959 -22.442  0.00  0.00    +0.151 HD
ATOM     15  H   UNL     1      34.977 -15.174 -24.609  0.00  0.00    +0.148 HD
ENDROOT
BRANCH   6  16
ATOM     16  C   UNL     1      35.320 -17.544 -23.776  0.00  0.00    +0.035 C 
ATOM     17  C   UNL     1      35.072 -18.889 -23.099  0.00  0.00    +0.003 C 
ATOM     18  C   UNL     1      34.374 -17.604 -24.972  0.00  0.00    +0.003 C 
ATOM     19  C   UNL     1      34.935 -19.870 -24.259  0.00  0.00    +0.000 C 
ATOM     20  C   UNL     1      34.497 -19.041 -25.468  0.00  0.00    +0.000 C 
ENDBRANCH   6  16
BRANCH   9  21
ATOM     21  S   UNL     1      31.550 -10.564 -21.626  0.00  0.00    +0.063 S 
ATOM     22  O   UNL     1      30.144 -10.820 -21.902  0.00  0.00    -0.153 OA
ATOM     23  O   UNL     1      31.981 -10.275 -20.267  0.00  0.00    -0.153 OA
BRANCH  21  24
ATOM     24  N   UNL     1      32.099  -9.312 -22.656  0.00  0.00    -0.160 NA
ATOM     25  N   UNL     1      32.725  -6.756 -23.816  0.00  0.00    +0.387 N 
ATOM     26  C   UNL     1      33.213  -8.481 -22.119  0.00  0.00    +0.073 C 
ATOM     27  C   UNL     1      31.033  -8.467 -23.262  0.00  0.00    +0.073 C 
ATOM     28  C   UNL     1      33.777  -7.600 -23.233  0.00  0.00    -0.058 C 
ATOM     29  C   UNL     1      31.639  -7.586 -24.355  0.00  0.00    -0.058 C 
ATOM     30  C   UNL     1      33.278  -5.892 -24.858  0.00  0.00    -0.101 C 
ATOM     31  H   UNL     1      32.342  -6.164 -23.078  0.00  0.00    -0.080 HD
ENDBRANCH  21  24
ENDBRANCH   9  21
TORSDOF 3
ENDMDL
