MODEL 1
REMARK VINA RESULT:      -8.9      0.000      0.000
REMARK  Name = 150889
REMARK  6 active torsions:
REMARK  status: ('A' for Active; 'I' for Inactive)
REMARK    1  A    between atoms: C_2  and  O_8
REMARK    2  A    between atoms: C_3  and  O_10
REMARK    3  A    between atoms: C_4  and  O_12
REMARK    4  A    between atoms: C_6  and  O_14
REMARK    5  A    between atoms: O_14  and  C_15
REMARK    6  A    between atoms: C_16  and  N_23
REMARK                            x       y       z     vdW  Elec       q    Type
REMARK                         _______ _______ _______ _____ _____    ______ ____
ROOT
ATOM      1  O   UNL     1      36.248 -23.580 -13.801  0.00  0.00    -0.319 OA
ATOM      2  C   UNL     1      37.407 -26.198 -13.947  0.00  0.00    +0.173 C 
ATOM      3  C   UNL     1      37.931 -25.130 -12.985  0.00  0.00    +0.167 C 
ATOM      4  C   UNL     1      36.704 -25.562 -15.145  0.00  0.00    +0.210 C 
ATOM      5  C   UNL     1      36.797 -24.167 -12.615  0.00  0.00    +0.148 C 
ATOM      6  C   UNL     1      35.665 -24.539 -14.682  0.00  0.00    +0.318 C 
ATOM      7  C   UNL     1      37.273 -23.029 -11.720  0.00  0.00    +0.035 C 
ENDROOT
BRANCH   2   8
ATOM      8  O   UNL     1      38.484 -27.009 -14.411  0.00  0.00    -0.379 OA
ATOM      9  H   UNL     1      38.146 -27.883 -14.660  0.00  0.00    +0.211 HD
ENDBRANCH   2   8
BRANCH   3  10
ATOM     10  O   UNL     1      38.980 -24.392 -13.614  0.00  0.00    -0.379 OA
ATOM     11  H   UNL     1      39.115 -23.556 -13.141  0.00  0.00    +0.211 HD
ENDBRANCH   3  10
BRANCH   4  12
ATOM     12  O   UNL     1      36.036 -26.580 -15.892  0.00  0.00    -0.377 OA
ATOM     13  H   UNL     1      35.830 -26.247 -16.779  0.00  0.00    +0.211 HD
ENDBRANCH   4  12
BRANCH   6  14
ATOM     14  O   UNL     1      35.152 -23.881 -15.840  0.00  0.00    -0.449 OA
BRANCH  14  15
ATOM     15  C   UNL     1      33.819 -23.574 -15.830  0.00  0.00    +0.164 C 
ATOM     16  C   UNL     1      33.158 -23.214 -17.001  0.00  0.00    +0.177 C 
ATOM     17  C   UNL     1      33.128 -23.630 -14.621  0.00  0.00    +0.039 C 
ATOM     18  C   UNL     1      31.798 -22.905 -16.965  0.00  0.00    +0.027 C 
ATOM     19  C   UNL     1      31.768 -23.321 -14.585  0.00  0.00    +0.003 C 
ATOM     20  C   UNL     1      31.103 -22.958 -15.757  0.00  0.00    +0.002 C 
BRANCH  16  23
ATOM     21  O   UNL     1      34.511 -22.125 -18.518  0.00  0.00    -0.126 OA
ATOM     22  O   UNL     1      33.781 -24.132 -19.023  0.00  0.00    -0.126 OA
ATOM     23  N   UNL     1      33.851 -23.154 -18.241  0.00  0.00    +0.061 N 
ENDBRANCH  16  23
ENDBRANCH  14  15
ENDBRANCH   6  14
TORSDOF 6
ENDMDL
MODEL 2
REMARK VINA RESULT:      -8.7      2.362      3.499
REMARK  Name = 150889
REMARK  6 active torsions:
REMARK  status: ('A' for Active; 'I' for Inactive)
REMARK    1  A    between atoms: C_2  and  O_8
REMARK    2  A    between atoms: C_3  and  O_10
REMARK    3  A    between atoms: C_4  and  O_12
REMARK    4  A    between atoms: C_6  and  O_14
REMARK    5  A    between atoms: O_14  and  C_15
REMARK    6  A    between atoms: C_16  and  N_23
REMARK                            x       y       z     vdW  Elec       q    Type
REMARK                         _______ _______ _______ _____ _____    ______ ____
ROOT
ATOM      1  O   UNL     1      36.659 -24.915 -14.362  0.00  0.00    -0.319 OA
ATOM      2  C   UNL     1      36.625 -23.763 -11.737  0.00  0.00    +0.173 C 
ATOM      3  C   UNL     1      37.863 -24.462 -12.301  0.00  0.00    +0.167 C 
ATOM      4  C   UNL     1      35.351 -24.275 -12.407  0.00  0.00    +0.210 C 
ATOM      5  C   UNL     1      37.865 -24.353 -13.831  0.00  0.00    +0.148 C 
ATOM      6  C   UNL     1      35.485 -24.230 -13.930  0.00  0.00    +0.318 C 
ATOM      7  C   UNL     1      39.034 -25.101 -14.462  0.00  0.00    +0.035 C 
ENDROOT
BRANCH   2   8
ATOM      8  O   UNL     1      36.537 -23.984 -10.332  0.00  0.00    -0.379 OA
ATOM      9  H   UNL     1      37.310 -24.488 -10.034  0.00  0.00    +0.211 HD
ENDBRANCH   2   8
BRANCH   3  10
ATOM     10  O   UNL     1      37.844 -25.842 -11.933  0.00  0.00    -0.379 OA
ATOM     11  H   UNL     1      38.690 -26.251 -12.172  0.00  0.00    +0.211 HD
ENDBRANCH   3  10
BRANCH   4  12
ATOM     12  O   UNL     1      34.253 -23.447 -12.023  0.00  0.00    -0.377 OA
ATOM     13  H   UNL     1      34.489 -22.945 -11.228  0.00  0.00    +0.211 HD
ENDBRANCH   4  12
BRANCH   6  14
ATOM     14  O   UNL     1      34.329 -24.853 -14.490  0.00  0.00    -0.449 OA
BRANCH  14  15
ATOM     15  C   UNL     1      33.622 -24.121 -15.405  0.00  0.00    +0.164 C 
ATOM     16  C   UNL     1      32.266 -23.862 -15.220  0.00  0.00    +0.177 C 
ATOM     17  C   UNL     1      34.284 -23.635 -16.530  0.00  0.00    +0.039 C 
ATOM     18  C   UNL     1      31.567 -23.113 -16.166  0.00  0.00    +0.027 C 
ATOM     19  C   UNL     1      33.584 -22.885 -17.477  0.00  0.00    +0.003 C 
ATOM     20  C   UNL     1      32.225 -22.625 -17.295  0.00  0.00    +0.002 C 
BRANCH  16  23
ATOM     21  O   UNL     1      31.075 -25.498 -14.115  0.00  0.00    -0.126 OA
ATOM     22  O   UNL     1      31.496 -23.621 -13.059  0.00  0.00    -0.126 OA
ATOM     23  N   UNL     1      31.579 -24.351 -14.075  0.00  0.00    +0.061 N 
ENDBRANCH  16  23
ENDBRANCH  14  15
ENDBRANCH   6  14
TORSDOF 6
ENDMDL
MODEL 3
REMARK VINA RESULT:      -8.5      2.735      6.331
REMARK  Name = 150889
REMARK  6 active torsions:
REMARK  status: ('A' for Active; 'I' for Inactive)
REMARK    1  A    between atoms: C_2  and  O_8
REMARK    2  A    between atoms: C_3  and  O_10
REMARK    3  A    between atoms: C_4  and  O_12
REMARK    4  A    between atoms: C_6  and  O_14
REMARK    5  A    between atoms: O_14  and  C_15
REMARK    6  A    between atoms: C_16  and  N_23
REMARK                            x       y       z     vdW  Elec       q    Type
REMARK                         _______ _______ _______ _____ _____    ______ ____
ROOT
ATOM      1  O   UNL     1      34.111 -23.084 -15.539  0.00  0.00    -0.319 OA
ATOM      2  C   UNL     1      32.251 -24.653 -14.023  0.00  0.00    +0.173 C 
ATOM      3  C   UNL     1      31.815 -23.813 -15.224  0.00  0.00    +0.167 C 
ATOM      4  C   UNL     1      33.531 -24.098 -13.400  0.00  0.00    +0.210 C 
ATOM      5  C   UNL     1      32.985 -23.668 -16.205  0.00  0.00    +0.148 C 
ATOM      6  C   UNL     1      34.606 -23.886 -14.468  0.00  0.00    +0.318 C 
ATOM      7  C   UNL     1      32.640 -22.772 -17.389  0.00  0.00    +0.035 C 
ENDROOT
BRANCH   2   8
ATOM      8  O   UNL     1      31.220 -24.671 -13.039  0.00  0.00    -0.379 OA
ATOM      9  H   UNL     1      31.465 -24.088 -12.303  0.00  0.00    +0.211 HD
ENDBRANCH   2   8
BRANCH   3  10
ATOM     10  O   UNL     1      31.416 -22.515 -14.782  0.00  0.00    -0.379 OA
ATOM     11  H   UNL     1      30.735 -22.603 -14.096  0.00  0.00    +0.211 HD
ENDBRANCH   3  10
BRANCH   4  12
ATOM     12  O   UNL     1      34.027 -25.030 -12.437  0.00  0.00    -0.377 OA
ATOM     13  H   UNL     1      34.161 -25.892 -12.861  0.00  0.00    +0.211 HD
ENDBRANCH   4  12
BRANCH   6  14
ATOM     14  O   UNL     1      35.715 -23.234 -13.850  0.00  0.00    -0.449 OA
BRANCH  14  15
ATOM     15  C   UNL     1      36.883 -23.943 -13.786  0.00  0.00    +0.164 C 
ATOM     16  C   UNL     1      37.504 -24.194 -12.565  0.00  0.00    +0.177 C 
ATOM     17  C   UNL     1      37.446 -24.415 -14.970  0.00  0.00    +0.039 C 
ATOM     18  C   UNL     1      38.694 -24.919 -12.526  0.00  0.00    +0.027 C 
ATOM     19  C   UNL     1      38.637 -25.141 -14.932  0.00  0.00    +0.003 C 
ATOM     20  C   UNL     1      39.261 -25.392 -13.709  0.00  0.00    +0.002 C 
BRANCH  16  23
ATOM     21  O   UNL     1      36.133 -24.450 -10.729  0.00  0.00    -0.126 OA
ATOM     22  O   UNL     1      37.266 -22.581 -10.933  0.00  0.00    -0.126 OA
ATOM     23  N   UNL     1      36.940 -23.719 -11.349  0.00  0.00    +0.061 N 
ENDBRANCH  16  23
ENDBRANCH  14  15
ENDBRANCH   6  14
TORSDOF 6
ENDMDL
MODEL 4
REMARK VINA RESULT:      -8.2      2.454      3.568
REMARK  Name = 150889
REMARK  6 active torsions:
REMARK  status: ('A' for Active; 'I' for Inactive)
REMARK    1  A    between atoms: C_2  and  O_8
REMARK    2  A    between atoms: C_3  and  O_10
REMARK    3  A    between atoms: C_4  and  O_12
REMARK    4  A    between atoms: C_6  and  O_14
REMARK    5  A    between atoms: O_14  and  C_15
REMARK    6  A    between atoms: C_16  and  N_23
REMARK                            x       y       z     vdW  Elec       q    Type
REMARK                         _______ _______ _______ _____ _____    ______ ____
ROOT
ATOM      1  O   UNL     1      36.960 -24.508 -15.368  0.00  0.00    -0.319 OA
ATOM      2  C   UNL     1      35.677 -24.391 -12.807  0.00  0.00    +0.173 C 
ATOM      3  C   UNL     1      36.896 -25.277 -13.065  0.00  0.00    +0.167 C 
ATOM      4  C   UNL     1      34.914 -24.114 -14.102  0.00  0.00    +0.210 C 
ATOM      5  C   UNL     1      37.750 -24.668 -14.184  0.00  0.00    +0.148 C 
ATOM      6  C   UNL     1      35.863 -23.612 -15.192  0.00  0.00    +0.318 C 
ATOM      7  C   UNL     1      38.941 -25.547 -14.546  0.00  0.00    +0.035 C 
ENDROOT
BRANCH   2   8
ATOM      8  O   UNL     1      34.803 -25.021 -11.874  0.00  0.00    -0.379 OA
ATOM      9  H   UNL     1      33.939 -25.171 -12.290  0.00  0.00    +0.211 HD
ENDBRANCH   2   8
BRANCH   3  10
ATOM     10  O   UNL     1      36.467 -26.580 -13.464  0.00  0.00    -0.379 OA
ATOM     11  H   UNL     1      36.665 -26.710 -14.405  0.00  0.00    +0.211 HD
ENDBRANCH   3  10
BRANCH   4  12
ATOM     12  O   UNL     1      33.928 -23.109 -13.861  0.00  0.00    -0.377 OA
ATOM     13  H   UNL     1      33.742 -23.061 -12.910  0.00  0.00    +0.211 HD
ENDBRANCH   4  12
BRANCH   6  14
ATOM     14  O   UNL     1      35.121 -23.514 -16.407  0.00  0.00    -0.449 OA
BRANCH  14  15
ATOM     15  C   UNL     1      35.570 -22.605 -17.326  0.00  0.00    +0.164 C 
ATOM     16  C   UNL     1      34.875 -22.383 -18.512  0.00  0.00    +0.177 C 
ATOM     17  C   UNL     1      36.741 -21.901 -17.055  0.00  0.00    +0.039 C 
ATOM     18  C   UNL     1      35.354 -21.452 -19.434  0.00  0.00    +0.027 C 
ATOM     19  C   UNL     1      37.219 -20.969 -17.977  0.00  0.00    +0.003 C 
ATOM     20  C   UNL     1      36.526 -20.745 -19.167  0.00  0.00    +0.002 C 
BRANCH  16  23
ATOM     21  O   UNL     1      33.751 -24.158 -19.463  0.00  0.00    -0.126 OA
ATOM     22  O   UNL     1      32.587 -22.639 -18.387  0.00  0.00    -0.126 OA
ATOM     23  N   UNL     1      33.679 -23.095 -18.802  0.00  0.00    +0.061 N 
ENDBRANCH  16  23
ENDBRANCH  14  15
ENDBRANCH   6  14
TORSDOF 6
ENDMDL
MODEL 5
REMARK VINA RESULT:      -8.1      3.449      5.059
REMARK  Name = 150889
REMARK  6 active torsions:
REMARK  status: ('A' for Active; 'I' for Inactive)
REMARK    1  A    between atoms: C_2  and  O_8
REMARK    2  A    between atoms: C_3  and  O_10
REMARK    3  A    between atoms: C_4  and  O_12
REMARK    4  A    between atoms: C_6  and  O_14
REMARK    5  A    between atoms: O_14  and  C_15
REMARK    6  A    between atoms: C_16  and  N_23
REMARK                            x       y       z     vdW  Elec       q    Type
REMARK                         _______ _______ _______ _____ _____    ______ ____
ROOT
ATOM      1  O   UNL     1      36.182 -22.849 -17.095  0.00  0.00    -0.319 OA
ATOM      2  C   UNL     1      33.792 -23.339 -15.588  0.00  0.00    +0.173 C 
ATOM      3  C   UNL     1      35.173 -23.751 -15.077  0.00  0.00    +0.167 C 
ATOM      4  C   UNL     1      33.776 -23.243 -17.113  0.00  0.00    +0.210 C 
ATOM      5  C   UNL     1      36.240 -22.820 -15.664  0.00  0.00    +0.148 C 
ATOM      6  C   UNL     1      34.937 -22.382 -17.614  0.00  0.00    +0.318 C 
ATOM      7  C   UNL     1      37.651 -23.227 -15.256  0.00  0.00    +0.035 C 
ENDROOT
BRANCH   2   8
ATOM      8  O   UNL     1      32.812 -24.284 -15.168  0.00  0.00    -0.379 OA
ATOM      9  H   UNL     1      33.253 -25.094 -14.866  0.00  0.00    +0.211 HD
ENDBRANCH   2   8
BRANCH   3  10
ATOM     10  O   UNL     1      35.453 -25.092 -15.482  0.00  0.00    -0.379 OA
ATOM     11  H   UNL     1      34.620 -25.570 -15.614  0.00  0.00    +0.211 HD
ENDBRANCH   3  10
BRANCH   4  12
ATOM     12  O   UNL     1      32.551 -22.640 -17.533  0.00  0.00    -0.377 OA
ATOM     13  H   UNL     1      32.399 -22.837 -18.471  0.00  0.00    +0.211 HD
ENDBRANCH   4  12
BRANCH   6  14
ATOM     14  O   UNL     1      34.953 -22.453 -19.039  0.00  0.00    -0.449 OA
BRANCH  14  15
ATOM     15  C   UNL     1      35.314 -21.313 -19.705  0.00  0.00    +0.164 C 
ATOM     16  C   UNL     1      34.353 -20.483 -20.277  0.00  0.00    +0.177 C 
ATOM     17  C   UNL     1      36.666 -20.993 -19.800  0.00  0.00    +0.039 C 
ATOM     18  C   UNL     1      34.747 -19.327 -20.951  0.00  0.00    +0.027 C 
ATOM     19  C   UNL     1      37.060 -19.836 -20.473  0.00  0.00    +0.003 C 
ATOM     20  C   UNL     1      36.100 -19.004 -21.049  0.00  0.00    +0.002 C 
BRANCH  16  23
ATOM     21  O   UNL     1      32.613 -21.995 -20.285  0.00  0.00    -0.126 OA
ATOM     22  O   UNL     1      32.147 -19.868 -20.013  0.00  0.00    -0.126 OA
ATOM     23  N   UNL     1      32.970 -20.798 -20.187  0.00  0.00    +0.061 N 
ENDBRANCH  16  23
ENDBRANCH  14  15
ENDBRANCH   6  14
TORSDOF 6
ENDMDL
MODEL 6
REMARK VINA RESULT:      -8.1      7.008     10.211
REMARK  Name = 150889
REMARK  6 active torsions:
REMARK  status: ('A' for Active; 'I' for Inactive)
REMARK    1  A    between atoms: C_2  and  O_8
REMARK    2  A    between atoms: C_3  and  O_10
REMARK    3  A    between atoms: C_4  and  O_12
REMARK    4  A    between atoms: C_6  and  O_14
REMARK    5  A    between atoms: O_14  and  C_15
REMARK    6  A    between atoms: C_16  and  N_23
REMARK                            x       y       z     vdW  Elec       q    Type
REMARK                         _______ _______ _______ _____ _____    ______ ____
ROOT
ATOM      1  O   UNL     1      34.268 -16.609 -21.681  0.00  0.00    -0.319 OA
ATOM      2  C   UNL     1      35.075 -16.646 -24.432  0.00  0.00    +0.173 C 
ATOM      3  C   UNL     1      34.512 -15.389 -23.768  0.00  0.00    +0.167 C 
ATOM      4  C   UNL     1      34.594 -17.908 -23.718  0.00  0.00    +0.210 C 
ATOM      5  C   UNL     1      34.813 -15.420 -22.265  0.00  0.00    +0.148 C 
ATOM      6  C   UNL     1      34.839 -17.805 -22.212  0.00  0.00    +0.318 C 
ATOM      7  C   UNL     1      34.207 -14.231 -21.528  0.00  0.00    +0.035 C 
ENDROOT
BRANCH   2   8
ATOM      8  O   UNL     1      34.673 -16.699 -25.799  0.00  0.00    -0.379 OA
ATOM      9  H   UNL     1      35.311 -17.227 -26.303  0.00  0.00    +0.211 HD
ENDBRANCH   2   8
BRANCH   3  10
ATOM     10  O   UNL     1      33.096 -15.340 -23.956  0.00  0.00    -0.379 OA
ATOM     11  H   UNL     1      32.748 -16.243 -24.023  0.00  0.00    +0.211 HD
ENDBRANCH   3  10
BRANCH   4  12
ATOM     12  O   UNL     1      35.315 -19.034 -24.218  0.00  0.00    -0.377 OA
ATOM     13  H   UNL     1      36.207 -19.043 -23.837  0.00  0.00    +0.211 HD
ENDBRANCH   4  12
BRANCH   6  14
ATOM     14  O   UNL     1      34.239 -18.941 -21.591  0.00  0.00    -0.449 OA
BRANCH  14  15
ATOM     15  C   UNL     1      35.052 -19.707 -20.800  0.00  0.00    +0.164 C 
ATOM     16  C   UNL     1      34.529 -20.729 -20.013  0.00  0.00    +0.177 C 
ATOM     17  C   UNL     1      36.421 -19.447 -20.797  0.00  0.00    +0.039 C 
ATOM     18  C   UNL     1      35.378 -21.495 -19.215  0.00  0.00    +0.027 C 
ATOM     19  C   UNL     1      37.270 -20.214 -19.999  0.00  0.00    +0.003 C 
ATOM     20  C   UNL     1      36.749 -21.238 -19.207  0.00  0.00    +0.002 C 
BRANCH  16  23
ATOM     21  O   UNL     1      32.327 -20.053 -20.121  0.00  0.00    -0.126 OA
ATOM     22  O   UNL     1      32.752 -22.194 -19.890  0.00  0.00    -0.126 OA
ATOM     23  N   UNL     1      33.134 -21.005 -20.008  0.00  0.00    +0.061 N 
ENDBRANCH  16  23
ENDBRANCH  14  15
ENDBRANCH   6  14
TORSDOF 6
ENDMDL
MODEL 7
REMARK VINA RESULT:      -8.1      1.799      2.049
REMARK  Name = 150889
REMARK  6 active torsions:
REMARK  status: ('A' for Active; 'I' for Inactive)
REMARK    1  A    between atoms: C_2  and  O_8
REMARK    2  A    between atoms: C_3  and  O_10
REMARK    3  A    between atoms: C_4  and  O_12
REMARK    4  A    between atoms: C_6  and  O_14
REMARK    5  A    between atoms: O_14  and  C_15
REMARK    6  A    between atoms: C_16  and  N_23
REMARK                            x       y       z     vdW  Elec       q    Type
REMARK                         _______ _______ _______ _____ _____    ______ ____
ROOT
ATOM      1  O   UNL     1      35.204 -23.864 -13.411  0.00  0.00    -0.319 OA
ATOM      2  C   UNL     1      37.435 -24.053 -15.202  0.00  0.00    +0.173 C 
ATOM      3  C   UNL     1      37.572 -24.319 -13.702  0.00  0.00    +0.167 C 
ATOM      4  C   UNL     1      36.247 -23.137 -15.491  0.00  0.00    +0.210 C 
ATOM      5  C   UNL     1      36.236 -24.820 -13.142  0.00  0.00    +0.148 C 
ATOM      6  C   UNL     1      34.982 -23.658 -14.806  0.00  0.00    +0.318 C 
ATOM      7  C   UNL     1      36.283 -25.028 -11.632  0.00  0.00    +0.035 C 
ENDROOT
BRANCH   2   8
ATOM      8  O   UNL     1      38.625 -23.449 -15.703  0.00  0.00    -0.379 OA
ATOM      9  H   UNL     1      39.342 -23.566 -15.060  0.00  0.00    +0.211 HD
ENDBRANCH   2   8
BRANCH   3  10
ATOM     10  O   UNL     1      37.933 -23.109 -13.032  0.00  0.00    -0.379 OA
ATOM     11  H   UNL     1      38.379 -22.515 -13.656  0.00  0.00    +0.211 HD
ENDBRANCH   3  10
BRANCH   4  12
ATOM     12  O   UNL     1      36.015 -23.099 -16.900  0.00  0.00    -0.377 OA
ATOM     13  H   UNL     1      35.609 -22.251 -17.138  0.00  0.00    +0.211 HD
ENDBRANCH   4  12
BRANCH   6  14
ATOM     14  O   UNL     1      33.952 -22.688 -14.992  0.00  0.00    -0.449 OA
BRANCH  14  15
ATOM     15  C   UNL     1      32.667 -23.158 -15.017  0.00  0.00    +0.164 C 
ATOM     16  C   UNL     1      32.004 -23.365 -16.224  0.00  0.00    +0.177 C 
ATOM     17  C   UNL     1      32.029 -23.427 -13.808  0.00  0.00    +0.039 C 
ATOM     18  C   UNL     1      30.694 -23.845 -16.223  0.00  0.00    +0.027 C 
ATOM     19  C   UNL     1      30.718 -23.907 -13.808  0.00  0.00    +0.003 C 
ATOM     20  C   UNL     1      30.051 -24.115 -15.016  0.00  0.00    +0.002 C 
BRANCH  16  23
ATOM     21  O   UNL     1      33.524 -23.886 -17.878  0.00  0.00    -0.126 OA
ATOM     22  O   UNL     1      32.311 -22.071 -18.108  0.00  0.00    -0.126 OA
ATOM     23  N   UNL     1      32.644 -23.095 -17.464  0.00  0.00    +0.061 N 
ENDBRANCH  16  23
ENDBRANCH  14  15
ENDBRANCH   6  14
TORSDOF 6
ENDMDL
MODEL 8
REMARK VINA RESULT:      -8.0     12.694     14.966
REMARK  Name = 150889
REMARK  6 active torsions:
REMARK  status: ('A' for Active; 'I' for Inactive)
REMARK    1  A    between atoms: C_2  and  O_8
REMARK    2  A    between atoms: C_3  and  O_10
REMARK    3  A    between atoms: C_4  and  O_12
REMARK    4  A    between atoms: C_6  and  O_14
REMARK    5  A    between atoms: O_14  and  C_15
REMARK    6  A    between atoms: C_16  and  N_23
REMARK                            x       y       z     vdW  Elec       q    Type
REMARK                         _______ _______ _______ _____ _____    ______ ____
ROOT
ATOM      1  O   UNL     1      31.855 -12.250 -22.511  0.00  0.00    -0.319 OA
ATOM      2  C   UNL     1      33.457  -9.967 -23.177  0.00  0.00    +0.173 C 
ATOM      3  C   UNL     1      32.215  -9.857 -22.292  0.00  0.00    +0.167 C 
ATOM      4  C   UNL     1      33.372 -11.186 -24.094  0.00  0.00    +0.210 C 
ATOM      5  C   UNL     1      31.981 -11.185 -21.561  0.00  0.00    +0.148 C 
ATOM      6  C   UNL     1      33.032 -12.444 -23.294  0.00  0.00    +0.318 C 
ATOM      7  C   UNL     1      30.709 -11.168 -20.722  0.00  0.00    +0.035 C 
ENDROOT
BRANCH   2   8
ATOM      8  O   UNL     1      33.598  -8.792 -23.970  0.00  0.00    -0.379 OA
ATOM      9  H   UNL     1      32.729  -8.521 -24.305  0.00  0.00    +0.211 HD
ENDBRANCH   2   8
BRANCH   3  10
ATOM     10  O   UNL     1      31.074  -9.566 -23.102  0.00  0.00    -0.379 OA
ATOM     11  H   UNL     1      30.268  -9.670 -22.572  0.00  0.00    +0.211 HD
ENDBRANCH   3  10
BRANCH   4  12
ATOM     12  O   UNL     1      34.635 -11.382 -24.732  0.00  0.00    -0.377 OA
ATOM     13  H   UNL     1      35.031 -10.521 -24.938  0.00  0.00    +0.211 HD
ENDBRANCH   4  12
BRANCH   6  14
ATOM     14  O   UNL     1      32.824 -13.510 -24.220  0.00  0.00    -0.449 OA
BRANCH  14  15
ATOM     15  C   UNL     1      33.576 -14.638 -24.034  0.00  0.00    +0.164 C 
ATOM     16  C   UNL     1      33.792 -15.534 -25.077  0.00  0.00    +0.177 C 
ATOM     17  C   UNL     1      34.126 -14.876 -22.776  0.00  0.00    +0.039 C 
ATOM     18  C   UNL     1      34.562 -16.677 -24.862  0.00  0.00    +0.027 C 
ATOM     19  C   UNL     1      34.896 -16.019 -22.561  0.00  0.00    +0.003 C 
ATOM     20  C   UNL     1      35.114 -16.920 -23.604  0.00  0.00    +0.002 C 
BRANCH  16  23
ATOM     21  O   UNL     1      32.334 -16.066 -26.783  0.00  0.00    -0.126 OA
ATOM     22  O   UNL     1      33.668 -14.343 -27.048  0.00  0.00    -0.126 OA
ATOM     23  N   UNL     1      33.237 -15.303 -26.366  0.00  0.00    +0.061 N 
ENDBRANCH  16  23
ENDBRANCH  14  15
ENDBRANCH   6  14
TORSDOF 6
ENDMDL
MODEL 9
REMARK VINA RESULT:      -7.9      2.044      2.389
REMARK  Name = 150889
REMARK  6 active torsions:
REMARK  status: ('A' for Active; 'I' for Inactive)
REMARK    1  A    between atoms: C_2  and  O_8
REMARK    2  A    between atoms: C_3  and  O_10
REMARK    3  A    between atoms: C_4  and  O_12
REMARK    4  A    between atoms: C_6  and  O_14
REMARK    5  A    between atoms: O_14  and  C_15
REMARK    6  A    between atoms: C_16  and  N_23
REMARK                            x       y       z     vdW  Elec       q    Type
REMARK                         _______ _______ _______ _____ _____    ______ ____
ROOT
ATOM      1  O   UNL     1      35.722 -23.613 -12.658  0.00  0.00    -0.319 OA
ATOM      2  C   UNL     1      37.442 -25.794 -13.372  0.00  0.00    +0.173 C 
ATOM      3  C   UNL     1      37.160 -25.424 -11.915  0.00  0.00    +0.167 C 
ATOM      4  C   UNL     1      37.246 -24.590 -14.292  0.00  0.00    +0.210 C 
ATOM      5  C   UNL     1      35.781 -24.763 -11.807  0.00  0.00    +0.148 C 
ATOM      6  C   UNL     1      35.888 -23.931 -14.040  0.00  0.00    +0.318 C 
ATOM      7  C   UNL     1      35.473 -24.297 -10.389  0.00  0.00    +0.035 C 
ENDROOT
BRANCH   2   8
ATOM      8  O   UNL     1      38.777 -26.273 -13.506  0.00  0.00    -0.379 OA
ATOM      9  H   UNL     1      38.799 -26.992 -14.158  0.00  0.00    +0.211 HD
ENDBRANCH   2   8
BRANCH   3  10
ATOM     10  O   UNL     1      38.153 -24.507 -11.452  0.00  0.00    -0.379 OA
ATOM     11  H   UNL     1      37.719 -23.727 -11.072  0.00  0.00    +0.211 HD
ENDBRANCH   3  10
BRANCH   4  12
ATOM     12  O   UNL     1      37.293 -25.025 -15.652  0.00  0.00    -0.377 OA
ATOM     13  H   UNL     1      37.942 -24.494 -16.139  0.00  0.00    +0.211 HD
ENDBRANCH   4  12
BRANCH   6  14
ATOM     14  O   UNL     1      35.830 -22.737 -14.819  0.00  0.00    -0.449 OA
BRANCH  14  15
ATOM     15  C   UNL     1      35.056 -22.780 -15.947  0.00  0.00    +0.164 C 
ATOM     16  C   UNL     1      35.542 -22.315 -17.167  0.00  0.00    +0.177 C 
ATOM     17  C   UNL     1      33.768 -23.302 -15.856  0.00  0.00    +0.039 C 
ATOM     18  C   UNL     1      34.734 -22.369 -18.302  0.00  0.00    +0.027 C 
ATOM     19  C   UNL     1      32.960 -23.357 -16.993  0.00  0.00    +0.003 C 
ATOM     20  C   UNL     1      33.443 -22.890 -18.216  0.00  0.00    +0.002 C 
BRANCH  16  23
ATOM     21  O   UNL     1      37.021 -20.696 -17.879  0.00  0.00    -0.126 OA
ATOM     22  O   UNL     1      37.809 -22.410 -16.759  0.00  0.00    -0.126 OA
ATOM     23  N   UNL     1      36.855 -21.780 -17.273  0.00  0.00    +0.061 N 
ENDBRANCH  16  23
ENDBRANCH  14  15
ENDBRANCH   6  14
TORSDOF 6
ENDMDL
