MODEL 1
REMARK VINA RESULT:      -7.3      0.000      0.000
REMARK  Name = 10060509
REMARK  5 active torsions:
REMARK  status: ('A' for Active; 'I' for Inactive)
REMARK    1  A    between atoms: N_1  and  C_2
REMARK    2  A    between atoms: N_1  and  N_11
REMARK    3  A    between atoms: C_2  and  C_5
REMARK    4  A    between atoms: N_11  and  C_14
REMARK    5  A    between atoms: N_12  and  O_18
REMARK                            x       y       z     vdW  Elec       q    Type
REMARK                         _______ _______ _______ _____ _____    ______ ____
ROOT
ATOM      1  N   UNL     1      34.403 -19.148 -20.902  0.00  0.00    -0.092 NA
ENDROOT
BRANCH   1   2
ATOM      2  C   UNL     1      35.239 -18.324 -21.444  0.00  0.00    +0.144 C 
BRANCH   2   5
ATOM      3 CL   UNL     1      35.049 -19.457 -24.262  0.00  0.00    -0.082 Cl
ATOM      4 CL   UNL     1      34.688 -15.469 -20.549  0.00  0.00    -0.082 Cl
ATOM      5  C   UNL     1      34.834 -17.379 -22.499  0.00  0.00    +0.019 C 
ATOM      6  C   UNL     1      34.723 -17.820 -23.812  0.00  0.00    +0.056 C 
ATOM      7  C   UNL     1      34.565 -16.056 -22.170  0.00  0.00    +0.056 C 
ATOM      8  C   UNL     1      34.339 -16.926 -24.811  0.00  0.00    +0.011 C 
ATOM      9  C   UNL     1      34.180 -15.161 -23.168  0.00  0.00    +0.011 C 
ATOM     10  C   UNL     1      34.068 -15.596 -24.489  0.00  0.00    +0.002 C 
ENDBRANCH   2   5
ENDBRANCH   1   2
BRANCH   1  11
ATOM     11  N   UNL     1      35.080 -20.131 -20.185  0.00  0.00    -0.143 NA
BRANCH  11  14
ATOM     12  N   UNL     1      34.766 -22.355 -19.462  0.00  0.00    -0.236 N 
ATOM     13  N   UNL     1      32.919 -21.054 -19.748  0.00  0.00    -0.367 N 
ATOM     14  C   UNL     1      34.294 -21.112 -19.820  0.00  0.00    +0.233 C 
ATOM     15  H   UNL     1      35.730 -22.533 -19.367  0.00  0.00    +0.197 HD
ATOM     16  H   UNL     1      32.447 -20.221 -19.977  0.00  0.00    +0.159 HD
ATOM     17  H   UNL     1      32.407 -21.847 -19.465  0.00  0.00    +0.159 HD
BRANCH  12  18
ATOM     18  O   UNL     1      33.826 -23.337 -19.243  0.00  0.00    -0.287 OA
ATOM     19  H   UNL     1      34.274 -24.179 -19.063  0.00  0.00    +0.244 HD
ENDBRANCH  12  18
ENDBRANCH  11  14
ENDBRANCH   1  11
TORSDOF 5
ENDMDL
MODEL 2
REMARK VINA RESULT:      -7.3      0.030      2.353
REMARK  Name = 10060509
REMARK  5 active torsions:
REMARK  status: ('A' for Active; 'I' for Inactive)
REMARK    1  A    between atoms: N_1  and  C_2
REMARK    2  A    between atoms: N_1  and  N_11
REMARK    3  A    between atoms: C_2  and  C_5
REMARK    4  A    between atoms: N_11  and  C_14
REMARK    5  A    between atoms: N_12  and  O_18
REMARK                            x       y       z     vdW  Elec       q    Type
REMARK                         _______ _______ _______ _____ _____    ______ ____
ROOT
ATOM      1  N   UNL     1      34.397 -19.190 -20.923  0.00  0.00    -0.092 NA
ENDROOT
BRANCH   1   2
ATOM      2  C   UNL     1      35.234 -18.357 -21.451  0.00  0.00    +0.144 C 
BRANCH   2   5
ATOM      3 CL   UNL     1      34.692 -15.506 -20.535  0.00  0.00    -0.082 Cl
ATOM      4 CL   UNL     1      35.047 -19.468 -24.278  0.00  0.00    -0.082 Cl
ATOM      5  C   UNL     1      34.833 -17.403 -22.499  0.00  0.00    +0.019 C 
ATOM      6  C   UNL     1      34.569 -16.082 -22.161  0.00  0.00    +0.056 C 
ATOM      7  C   UNL     1      34.724 -17.834 -23.816  0.00  0.00    +0.056 C 
ATOM      8  C   UNL     1      34.189 -15.178 -23.153  0.00  0.00    +0.011 C 
ATOM      9  C   UNL     1      34.345 -16.931 -24.809  0.00  0.00    +0.011 C 
ATOM     10  C   UNL     1      34.077 -15.602 -24.476  0.00  0.00    +0.002 C 
ENDBRANCH   2   5
ENDBRANCH   1   2
BRANCH   1  11
ATOM     11  N   UNL     1      35.069 -20.148 -20.170  0.00  0.00    -0.143 NA
BRANCH  11  14
ATOM     12  N   UNL     1      34.759 -22.376 -19.458  0.00  0.00    -0.236 N 
ATOM     13  N   UNL     1      32.913 -21.064 -19.695  0.00  0.00    -0.367 N 
ATOM     14  C   UNL     1      34.287 -21.128 -19.797  0.00  0.00    +0.233 C 
ATOM     15  H   UNL     1      35.724 -22.560 -19.385  0.00  0.00    +0.197 HD
ATOM     16  H   UNL     1      32.442 -20.227 -19.908  0.00  0.00    +0.159 HD
ATOM     17  H   UNL     1      32.403 -21.857 -19.408  0.00  0.00    +0.159 HD
BRANCH  12  18
ATOM     18  O   UNL     1      33.819 -23.356 -19.227  0.00  0.00    -0.287 OA
ATOM     19  H   UNL     1      33.125 -23.304 -19.903  0.00  0.00    +0.244 HD
ENDBRANCH  12  18
ENDBRANCH  11  14
ENDBRANCH   1  11
TORSDOF 5
ENDMDL
MODEL 3
REMARK VINA RESULT:      -7.2      5.396      6.809
REMARK  Name = 10060509
REMARK  5 active torsions:
REMARK  status: ('A' for Active; 'I' for Inactive)
REMARK    1  A    between atoms: N_1  and  C_2
REMARK    2  A    between atoms: N_1  and  N_11
REMARK    3  A    between atoms: C_2  and  C_5
REMARK    4  A    between atoms: N_11  and  C_14
REMARK    5  A    between atoms: N_12  and  O_18
REMARK                            x       y       z     vdW  Elec       q    Type
REMARK                         _______ _______ _______ _____ _____    ______ ____
ROOT
ATOM      1  N   UNL     1      33.342 -14.404 -23.519  0.00  0.00    -0.092 NA
ENDROOT
BRANCH   1   2
ATOM      2  C   UNL     1      34.519 -14.891 -23.303  0.00  0.00    +0.144 C 
BRANCH   2   5
ATOM      3 CL   UNL     1      34.786 -16.926 -25.550  0.00  0.00    -0.082 Cl
ATOM      4 CL   UNL     1      34.628 -15.408 -20.306  0.00  0.00    -0.082 Cl
ATOM      5  C   UNL     1      34.724 -16.291 -22.892  0.00  0.00    +0.019 C 
ATOM      6  C   UNL     1      34.856 -17.280 -23.859  0.00  0.00    +0.056 C 
ATOM      7  C   UNL     1      34.783 -16.609 -21.540  0.00  0.00    +0.056 C 
ATOM      8  C   UNL     1      35.049 -18.605 -23.471  0.00  0.00    +0.011 C 
ATOM      9  C   UNL     1      34.978 -17.934 -21.150  0.00  0.00    +0.011 C 
ATOM     10  C   UNL     1      35.110 -18.932 -22.116  0.00  0.00    +0.002 C 
ENDBRANCH   2   5
ENDBRANCH   1   2
BRANCH   1  11
ATOM     11  N   UNL     1      33.380 -13.470 -24.550  0.00  0.00    -0.143 NA
BRANCH  11  14
ATOM     12  N   UNL     1      34.624 -11.466 -24.590  0.00  0.00    -0.236 N 
ATOM     13  N   UNL     1      32.870 -11.606 -23.144  0.00  0.00    -0.367 N 
ATOM     14  C   UNL     1      33.601 -12.256 -24.117  0.00  0.00    +0.233 C 
ATOM     15  H   UNL     1      35.179 -11.745 -25.355  0.00  0.00    +0.197 HD
ATOM     16  H   UNL     1      32.106 -12.056 -22.718  0.00  0.00    +0.159 HD
ATOM     17  H   UNL     1      33.113 -10.689 -22.877  0.00  0.00    +0.159 HD
BRANCH  12  18
ATOM     18  O   UNL     1      34.835 -10.268 -23.944  0.00  0.00    -0.287 OA
ATOM     19  H   UNL     1      35.727 -10.261 -23.561  0.00  0.00    +0.244 HD
ENDBRANCH  12  18
ENDBRANCH  11  14
ENDBRANCH   1  11
TORSDOF 5
ENDMDL
MODEL 4
REMARK VINA RESULT:      -7.2      6.658      8.094
REMARK  Name = 10060509
REMARK  5 active torsions:
REMARK  status: ('A' for Active; 'I' for Inactive)
REMARK    1  A    between atoms: N_1  and  C_2
REMARK    2  A    between atoms: N_1  and  N_11
REMARK    3  A    between atoms: C_2  and  C_5
REMARK    4  A    between atoms: N_11  and  C_14
REMARK    5  A    between atoms: N_12  and  O_18
REMARK                            x       y       z     vdW  Elec       q    Type
REMARK                         _______ _______ _______ _____ _____    ______ ____
ROOT
ATOM      1  N   UNL     1      35.297 -24.659 -15.381  0.00  0.00    -0.092 NA
ENDROOT
BRANCH   1   2
ATOM      2  C   UNL     1      35.162 -23.384 -15.551  0.00  0.00    +0.144 C 
BRANCH   2   5
ATOM      3 CL   UNL     1      37.722 -22.106 -16.589  0.00  0.00    -0.082 Cl
ATOM      4 CL   UNL     1      32.470 -23.558 -16.959  0.00  0.00    -0.082 Cl
ATOM      5  C   UNL     1      35.089 -22.778 -16.892  0.00  0.00    +0.019 C 
ATOM      6  C   UNL     1      36.216 -22.175 -17.436  0.00  0.00    +0.056 C 
ATOM      7  C   UNL     1      33.893 -22.815 -17.599  0.00  0.00    +0.056 C 
ATOM      8  C   UNL     1      36.148 -21.600 -18.705  0.00  0.00    +0.011 C 
ATOM      9  C   UNL     1      33.823 -22.242 -18.868  0.00  0.00    +0.011 C 
ATOM     10  C   UNL     1      34.951 -21.634 -19.421  0.00  0.00    +0.002 C 
ENDBRANCH   2   5
ENDBRANCH   1   2
BRANCH   1  11
ATOM     11  N   UNL     1      36.643 -25.002 -15.297  0.00  0.00    -0.143 NA
BRANCH  11  14
ATOM     12  N   UNL     1      36.335 -25.652 -13.050  0.00  0.00    -0.236 N 
ATOM     13  N   UNL     1      37.725 -26.908 -14.344  0.00  0.00    -0.367 N 
ATOM     14  C   UNL     1      36.891 -25.811 -14.299  0.00  0.00    +0.233 C 
ATOM     15  H   UNL     1      35.642 -24.973 -12.876  0.00  0.00    +0.197 HD
ATOM     16  H   UNL     1      38.190 -27.140 -15.179  0.00  0.00    +0.159 HD
ATOM     17  H   UNL     1      37.856 -27.460 -13.538  0.00  0.00    +0.159 HD
BRANCH  12  18
ATOM     18  O   UNL     1      36.795 -26.484 -12.054  0.00  0.00    -0.287 OA
ATOM     19  H   UNL     1      37.268 -27.233 -12.451  0.00  0.00    +0.244 HD
ENDBRANCH  12  18
ENDBRANCH  11  14
ENDBRANCH   1  11
TORSDOF 5
ENDMDL
MODEL 5
REMARK VINA RESULT:      -7.2      5.914      7.531
REMARK  Name = 10060509
REMARK  5 active torsions:
REMARK  status: ('A' for Active; 'I' for Inactive)
REMARK    1  A    between atoms: N_1  and  C_2
REMARK    2  A    between atoms: N_1  and  N_11
REMARK    3  A    between atoms: C_2  and  C_5
REMARK    4  A    between atoms: N_11  and  C_14
REMARK    5  A    between atoms: N_12  and  O_18
REMARK                            x       y       z     vdW  Elec       q    Type
REMARK                         _______ _______ _______ _____ _____    ______ ____
ROOT
ATOM      1  N   UNL     1      34.074 -13.405 -23.279  0.00  0.00    -0.092 NA
ENDROOT
BRANCH   1   2
ATOM      2  C   UNL     1      33.432 -14.523 -23.184  0.00  0.00    +0.144 C 
BRANCH   2   5
ATOM      3 CL   UNL     1      34.686 -15.832 -20.739  0.00  0.00    -0.082 Cl
ATOM      4 CL   UNL     1      33.373 -15.585 -26.035  0.00  0.00    -0.082 Cl
ATOM      5  C   UNL     1      34.088 -15.823 -23.407  0.00  0.00    +0.019 C 
ATOM      6  C   UNL     1      34.683 -16.485 -22.340  0.00  0.00    +0.056 C 
ATOM      7  C   UNL     1      34.105 -16.375 -24.683  0.00  0.00    +0.056 C 
ATOM      8  C   UNL     1      35.304 -17.715 -22.550  0.00  0.00    +0.011 C 
ATOM      9  C   UNL     1      34.725 -17.606 -24.894  0.00  0.00    +0.011 C 
ATOM     10  C   UNL     1      35.325 -18.276 -23.827  0.00  0.00    +0.002 C 
ENDBRANCH   2   5
ENDBRANCH   1   2
BRANCH   1  11
ATOM     11  N   UNL     1      33.448 -12.557 -24.189  0.00  0.00    -0.143 NA
BRANCH  11  14
ATOM     12  N   UNL     1      34.988 -10.791 -24.469  0.00  0.00    -0.236 N 
ATOM     13  N   UNL     1      33.034 -10.343 -23.389  0.00  0.00    -0.367 N 
ATOM     14  C   UNL     1      33.791 -11.305 -24.023  0.00  0.00    +0.233 C 
ATOM     15  H   UNL     1      35.602 -11.323 -25.027  0.00  0.00    +0.197 HD
ATOM     16  H   UNL     1      32.152 -10.574 -23.019  0.00  0.00    +0.159 HD
ATOM     17  H   UNL     1      33.377  -9.423 -23.306  0.00  0.00    +0.159 HD
BRANCH  12  18
ATOM     18  O   UNL     1      35.287  -9.499 -24.099  0.00  0.00    -0.287 OA
ATOM     19  H   UNL     1      35.009  -9.353 -23.181  0.00  0.00    +0.244 HD
ENDBRANCH  12  18
ENDBRANCH  11  14
ENDBRANCH   1  11
TORSDOF 5
ENDMDL
MODEL 6
REMARK VINA RESULT:      -7.2      5.924      7.305
REMARK  Name = 10060509
REMARK  5 active torsions:
REMARK  status: ('A' for Active; 'I' for Inactive)
REMARK    1  A    between atoms: N_1  and  C_2
REMARK    2  A    between atoms: N_1  and  N_11
REMARK    3  A    between atoms: C_2  and  C_5
REMARK    4  A    between atoms: N_11  and  C_14
REMARK    5  A    between atoms: N_12  and  O_18
REMARK                            x       y       z     vdW  Elec       q    Type
REMARK                         _______ _______ _______ _____ _____    ______ ____
ROOT
ATOM      1  N   UNL     1      34.129 -13.418 -23.385  0.00  0.00    -0.092 NA
ENDROOT
BRANCH   1   2
ATOM      2  C   UNL     1      33.486 -14.525 -23.197  0.00  0.00    +0.144 C 
BRANCH   2   5
ATOM      3 CL   UNL     1      33.360 -15.550 -26.060  0.00  0.00    -0.082 Cl
ATOM      4 CL   UNL     1      34.738 -15.895 -20.786  0.00  0.00    -0.082 Cl
ATOM      5  C   UNL     1      34.103 -15.839 -23.445  0.00  0.00    +0.019 C 
ATOM      6  C   UNL     1      34.087 -16.376 -24.726  0.00  0.00    +0.056 C 
ATOM      7  C   UNL     1      34.695 -16.530 -22.393  0.00  0.00    +0.056 C 
ATOM      8  C   UNL     1      34.671 -17.620 -24.961  0.00  0.00    +0.011 C 
ATOM      9  C   UNL     1      35.279 -17.774 -22.628  0.00  0.00    +0.011 C 
ATOM     10  C   UNL     1      35.267 -18.320 -23.912  0.00  0.00    +0.002 C 
ENDBRANCH   2   5
ENDBRANCH   1   2
BRANCH   1  11
ATOM     11  N   UNL     1      33.373 -12.537 -24.153  0.00  0.00    -0.143 NA
BRANCH  11  14
ATOM     12  N   UNL     1      34.959 -10.815 -24.444  0.00  0.00    -0.236 N 
ATOM     13  N   UNL     1      33.011 -10.305 -23.380  0.00  0.00    -0.367 N 
ATOM     14  C   UNL     1      33.747 -11.293 -23.999  0.00  0.00    +0.233 C 
ATOM     15  H   UNL     1      35.562 -11.368 -24.992  0.00  0.00    +0.197 HD
ATOM     16  H   UNL     1      32.121 -10.510 -23.013  0.00  0.00    +0.159 HD
ATOM     17  H   UNL     1      33.376  -9.393 -23.305  0.00  0.00    +0.159 HD
BRANCH  12  18
ATOM     18  O   UNL     1      35.288  -9.526 -24.086  0.00  0.00    -0.287 OA
ATOM     19  H   UNL     1      35.175  -8.939 -24.851  0.00  0.00    +0.244 HD
ENDBRANCH  12  18
ENDBRANCH  11  14
ENDBRANCH   1  11
TORSDOF 5
ENDMDL
MODEL 7
REMARK VINA RESULT:      -7.2      1.107      1.515
REMARK  Name = 10060509
REMARK  5 active torsions:
REMARK  status: ('A' for Active; 'I' for Inactive)
REMARK    1  A    between atoms: N_1  and  C_2
REMARK    2  A    between atoms: N_1  and  N_11
REMARK    3  A    between atoms: C_2  and  C_5
REMARK    4  A    between atoms: N_11  and  C_14
REMARK    5  A    between atoms: N_12  and  O_18
REMARK                            x       y       z     vdW  Elec       q    Type
REMARK                         _______ _______ _______ _____ _____    ______ ____
ROOT
ATOM      1  N   UNL     1      34.737 -18.043 -20.997  0.00  0.00    -0.092 NA
ENDROOT
BRANCH   1   2
ATOM      2  C   UNL     1      35.363 -17.431 -21.948  0.00  0.00    +0.144 C 
BRANCH   2   5
ATOM      3 CL   UNL     1      34.836 -18.207 -24.842  0.00  0.00    -0.082 Cl
ATOM      4 CL   UNL     1      34.696 -14.796 -20.580  0.00  0.00    -0.082 Cl
ATOM      5  C   UNL     1      34.709 -16.411 -22.785  0.00  0.00    +0.019 C 
ATOM      6  C   UNL     1      34.434 -16.689 -24.119  0.00  0.00    +0.056 C 
ATOM      7  C   UNL     1      34.374 -15.180 -22.234  0.00  0.00    +0.056 C 
ATOM      8  C   UNL     1      33.815 -15.724 -24.912  0.00  0.00    +0.011 C 
ATOM      9  C   UNL     1      33.754 -14.214 -23.026  0.00  0.00    +0.011 C 
ATOM     10  C   UNL     1      33.475 -14.487 -24.366  0.00  0.00    +0.002 C 
ENDBRANCH   2   5
ENDBRANCH   1   2
BRANCH   1  11
ATOM     11  N   UNL     1      34.118 -19.193 -21.479  0.00  0.00    -0.143 NA
BRANCH  11  14
ATOM     12  N   UNL     1      32.751 -20.624 -20.195  0.00  0.00    -0.236 N 
ATOM     13  N   UNL     1      34.997 -20.672 -19.820  0.00  0.00    -0.367 N 
ATOM     14  C   UNL     1      33.975 -20.108 -20.555  0.00  0.00    +0.233 C 
ATOM     15  H   UNL     1      31.930 -20.399 -20.690  0.00  0.00    +0.197 HD
ATOM     16  H   UNL     1      35.927 -20.394 -19.975  0.00  0.00    +0.159 HD
ATOM     17  H   UNL     1      34.794 -21.354 -19.138  0.00  0.00    +0.159 HD
BRANCH  12  18
ATOM     18  O   UNL     1      32.728 -21.471 -19.108  0.00  0.00    -0.287 OA
ATOM     19  H   UNL     1      32.427 -22.350 -19.390  0.00  0.00    +0.244 HD
ENDBRANCH  12  18
ENDBRANCH  11  14
ENDBRANCH   1  11
TORSDOF 5
ENDMDL
MODEL 8
REMARK VINA RESULT:      -7.2      6.724      8.063
REMARK  Name = 10060509
REMARK  5 active torsions:
REMARK  status: ('A' for Active; 'I' for Inactive)
REMARK    1  A    between atoms: N_1  and  C_2
REMARK    2  A    between atoms: N_1  and  N_11
REMARK    3  A    between atoms: C_2  and  C_5
REMARK    4  A    between atoms: N_11  and  C_14
REMARK    5  A    between atoms: N_12  and  O_18
REMARK                            x       y       z     vdW  Elec       q    Type
REMARK                         _______ _______ _______ _____ _____    ______ ____
ROOT
ATOM      1  N   UNL     1      35.172 -24.641 -15.268  0.00  0.00    -0.092 NA
ENDROOT
BRANCH   1   2
ATOM      2  C   UNL     1      35.142 -23.363 -15.460  0.00  0.00    +0.144 C 
BRANCH   2   5
ATOM      3 CL   UNL     1      32.494 -23.521 -16.950  0.00  0.00    -0.082 Cl
ATOM      4 CL   UNL     1      37.750 -22.129 -16.429  0.00  0.00    -0.082 Cl
ATOM      5  C   UNL     1      35.120 -22.774 -16.809  0.00  0.00    +0.019 C 
ATOM      6  C   UNL     1      33.948 -22.805 -17.554  0.00  0.00    +0.056 C 
ATOM      7  C   UNL     1      36.273 -22.192 -17.325  0.00  0.00    +0.056 C 
ATOM      8  C   UNL     1      33.926 -22.248 -18.832  0.00  0.00    +0.011 C 
ATOM      9  C   UNL     1      36.252 -21.633 -18.603  0.00  0.00    +0.011 C 
ATOM     10  C   UNL     1      35.078 -21.662 -19.356  0.00  0.00    +0.002 C 
ENDBRANCH   2   5
ENDBRANCH   1   2
BRANCH   1  11
ATOM     11  N   UNL     1      36.472 -25.124 -15.383  0.00  0.00    -0.143 NA
BRANCH  11  14
ATOM     12  N   UNL     1      36.279 -25.711 -13.106  0.00  0.00    -0.236 N 
ATOM     13  N   UNL     1      37.765 -26.869 -14.385  0.00  0.00    -0.367 N 
ATOM     14  C   UNL     1      36.822 -25.863 -14.362  0.00  0.00    +0.233 C 
ATOM     15  H   UNL     1      35.522 -25.101 -12.942  0.00  0.00    +0.197 HD
ATOM     16  H   UNL     1      38.234 -27.086 -15.223  0.00  0.00    +0.159 HD
ATOM     17  H   UNL     1      37.968 -27.372 -13.563  0.00  0.00    +0.159 HD
BRANCH  12  18
ATOM     18  O   UNL     1      36.842 -26.452 -12.091  0.00  0.00    -0.287 OA
ATOM     19  H   UNL     1      36.149 -26.956 -11.636  0.00  0.00    +0.244 HD
ENDBRANCH  12  18
ENDBRANCH  11  14
ENDBRANCH   1  11
TORSDOF 5
ENDMDL
MODEL 9
REMARK VINA RESULT:      -7.0      8.168      9.605
REMARK  Name = 10060509
REMARK  5 active torsions:
REMARK  status: ('A' for Active; 'I' for Inactive)
REMARK    1  A    between atoms: N_1  and  C_2
REMARK    2  A    between atoms: N_1  and  N_11
REMARK    3  A    between atoms: C_2  and  C_5
REMARK    4  A    between atoms: N_11  and  C_14
REMARK    5  A    between atoms: N_12  and  O_18
REMARK                            x       y       z     vdW  Elec       q    Type
REMARK                         _______ _______ _______ _____ _____    ______ ____
ROOT
ATOM      1  N   UNL     1      35.461 -24.024 -16.154  0.00  0.00    -0.092 NA
ENDROOT
BRANCH   1   2
ATOM      2  C   UNL     1      34.668 -23.151 -15.625  0.00  0.00    +0.144 C 
BRANCH   2   5
ATOM      3 CL   UNL     1      34.125 -24.256 -12.842  0.00  0.00    -0.082 Cl
ATOM      4 CL   UNL     1      32.648 -22.606 -17.835  0.00  0.00    -0.082 Cl
ATOM      5  C   UNL     1      33.262 -23.459 -15.311  0.00  0.00    +0.019 C 
ATOM      6  C   UNL     1      32.932 -23.966 -14.060  0.00  0.00    +0.056 C 
ATOM      7  C   UNL     1      32.280 -23.239 -16.269  0.00  0.00    +0.056 C 
ATOM      8  C   UNL     1      31.602 -24.258 -13.762  0.00  0.00    +0.011 C 
ATOM      9  C   UNL     1      30.948 -23.530 -15.972  0.00  0.00    +0.011 C 
ATOM     10  C   UNL     1      30.610 -24.040 -14.718  0.00  0.00    +0.002 C 
ENDBRANCH   2   5
ENDBRANCH   1   2
BRANCH   1  11
ATOM     11  N   UNL     1      36.608 -24.176 -15.382  0.00  0.00    -0.143 NA
BRANCH  11  14
ATOM     12  N   UNL     1      38.161 -25.899 -14.951  0.00  0.00    -0.236 N 
ATOM     13  N   UNL     1      35.952 -26.445 -15.018  0.00  0.00    -0.367 N 
ATOM     14  C   UNL     1      36.879 -25.431 -15.131  0.00  0.00    +0.233 C 
ATOM     15  H   UNL     1      38.932 -25.287 -14.904  0.00  0.00    +0.197 HD
ATOM     16  H   UNL     1      34.993 -26.250 -15.125  0.00  0.00    +0.159 HD
ATOM     17  H   UNL     1      36.249 -27.365 -14.831  0.00  0.00    +0.159 HD
BRANCH  12  18
ATOM     18  O   UNL     1      38.316 -27.263 -14.841  0.00  0.00    -0.287 OA
ATOM     19  H   UNL     1      39.259 -27.487 -14.893  0.00  0.00    +0.244 HD
ENDBRANCH  12  18
ENDBRANCH  11  14
ENDBRANCH   1  11
TORSDOF 5
ENDMDL
