MODEL 1
REMARK VINA RESULT:      -8.1      0.000      0.000
REMARK  Name = 4469807
REMARK  9 active torsions:
REMARK  status: ('A' for Active; 'I' for Inactive)
REMARK    1  A    between atoms: C_1  and  N_2
REMARK    2  A    between atoms: C_1  and  C_11
REMARK    3  A    between atoms: N_2  and  C_5
REMARK    4  A    between atoms: C_5  and  C_6
REMARK    5  A    between atoms: C_6  and  C_7
REMARK    6  A    between atoms: C_11  and  O_12
REMARK    7  A    between atoms: O_12  and  P_13
REMARK    8  A    between atoms: P_13  and  O_16
REMARK    9  A    between atoms: O_16  and  P_17
REMARK                            x       y       z     vdW  Elec       q    Type
REMARK                         _______ _______ _______ _____ _____    ______ ____
ROOT
ATOM      1  C   UNL     1      35.708 -23.137 -15.601  0.00  0.00    -0.044 C 
ENDROOT
BRANCH   1   2
ATOM      2  N   UNL     1      34.504 -23.948 -15.794  0.00  0.00    +0.387 N 
ATOM      3  C   UNL     1      33.875 -24.238 -14.505  0.00  0.00    -0.101 C 
ATOM      4  H   UNL     1      34.775 -24.830 -16.228  0.00  0.00    -0.080 HD
BRANCH   2   5
ATOM      5  C   UNL     1      33.567 -23.270 -16.682  0.00  0.00    -0.073 C 
BRANCH   5   6
ATOM      6  C   UNL     1      34.213 -23.026 -18.045  0.00  0.00    +0.003 C 
BRANCH   6   7
ATOM      7  C   UNL     1      33.405 -22.055 -18.861  0.00  0.00    -0.037 C 
ATOM      8  C   UNL     1      33.859 -21.134 -19.732  0.00  0.00    -0.048 C 
ATOM      9  C   UNL     1      32.895 -20.265 -20.494  0.00  0.00    +0.026 C 
ATOM     10  C   UNL     1      35.307 -20.866 -20.027  0.00  0.00    +0.026 C 
ENDBRANCH   6   7
ENDBRANCH   5   6
ENDBRANCH   2   5
ENDBRANCH   1   2
BRANCH   1  11
ATOM     11  C   UNL     1      36.595 -23.742 -14.524  0.00  0.00    +0.131 C 
BRANCH  11  12
ATOM     12  O   UNL     1      37.415 -24.741 -15.115  0.00  0.00    -0.274 OA
BRANCH  12  13
ATOM     13  P   UNL     1      37.231 -26.297 -14.651  0.00  0.00    +0.514 P 
ATOM     14  O   UNL     1      36.446 -27.049 -15.704  0.00  0.00    -0.116 OA
ATOM     15  O   UNL     1      36.788 -26.304 -13.204  0.00  0.00    -0.224 OA
BRANCH  13  16
ATOM     16  O   UNL     1      38.794 -26.776 -14.714  0.00  0.00    -0.181 OA
BRANCH  16  17
ATOM     17  P   UNL     1      40.179 -25.902 -14.525  0.00  0.00    +0.540 P 
ATOM     18  O   UNL     1      40.546 -25.471 -15.941  0.00  0.00    -0.114 OA
ATOM     19  O   UNL     1      41.154 -26.896 -13.902  0.00  0.00    -0.114 OA
ATOM     20  O   UNL     1      39.777 -24.757 -13.601  0.00  0.00    -0.222 OA
ENDBRANCH  16  17
ENDBRANCH  13  16
ENDBRANCH  12  13
ENDBRANCH  11  12
ENDBRANCH   1  11
TORSDOF 9
ENDMDL
MODEL 2
REMARK VINA RESULT:      -7.9      1.413      2.038
REMARK  Name = 4469807
REMARK  9 active torsions:
REMARK  status: ('A' for Active; 'I' for Inactive)
REMARK    1  A    between atoms: C_1  and  N_2
REMARK    2  A    between atoms: C_1  and  C_11
REMARK    3  A    between atoms: N_2  and  C_5
REMARK    4  A    between atoms: C_5  and  C_6
REMARK    5  A    between atoms: C_6  and  C_7
REMARK    6  A    between atoms: C_11  and  O_12
REMARK    7  A    between atoms: O_12  and  P_13
REMARK    8  A    between atoms: P_13  and  O_16
REMARK    9  A    between atoms: O_16  and  P_17
REMARK                            x       y       z     vdW  Elec       q    Type
REMARK                         _______ _______ _______ _____ _____    ______ ____
ROOT
ATOM      1  C   UNL     1      35.457 -24.442 -15.423  0.00  0.00    -0.044 C 
ENDROOT
BRANCH   1   2
ATOM      2  N   UNL     1      35.116 -23.090 -15.871  0.00  0.00    +0.387 N 
ATOM      3  C   UNL     1      36.287 -22.441 -16.462  0.00  0.00    -0.101 C 
ATOM      4  H   UNL     1      34.819 -22.546 -15.061  0.00  0.00    -0.080 HD
BRANCH   2   5
ATOM      5  C   UNL     1      34.015 -23.129 -16.825  0.00  0.00    -0.073 C 
BRANCH   5   6
ATOM      6  C   UNL     1      34.520 -22.804 -18.230  0.00  0.00    +0.003 C 
BRANCH   6   7
ATOM      7  C   UNL     1      33.569 -21.890 -18.950  0.00  0.00    -0.037 C 
ATOM      8  C   UNL     1      33.866 -20.943 -19.860  0.00  0.00    -0.048 C 
ATOM      9  C   UNL     1      32.771 -20.140 -20.510  0.00  0.00    +0.026 C 
ATOM     10  C   UNL     1      35.253 -20.580 -20.306  0.00  0.00    +0.026 C 
ENDBRANCH   6   7
ENDBRANCH   5   6
ENDBRANCH   2   5
ENDBRANCH   1   2
BRANCH   1  11
ATOM     11  C   UNL     1      35.634 -24.478 -13.913  0.00  0.00    +0.131 C 
BRANCH  11  12
ATOM     12  O   UNL     1      36.923 -23.969 -13.592  0.00  0.00    -0.274 OA
BRANCH  12  13
ATOM     13  P   UNL     1      37.709 -24.564 -12.289  0.00  0.00    +0.514 P 
ATOM     14  O   UNL     1      37.101 -25.892 -11.895  0.00  0.00    -0.116 OA
ATOM     15  O   UNL     1      37.850 -23.447 -11.277  0.00  0.00    -0.224 OA
BRANCH  13  16
ATOM     16  O   UNL     1      39.173 -24.832 -12.967  0.00  0.00    -0.181 OA
BRANCH  16  17
ATOM     17  P   UNL     1      39.560 -25.423 -14.457  0.00  0.00    +0.540 P 
ATOM     18  O   UNL     1      38.606 -26.597 -14.653  0.00  0.00    -0.114 OA
ATOM     19  O   UNL     1      41.025 -25.824 -14.320  0.00  0.00    -0.114 OA
ATOM     20  O   UNL     1      39.317 -24.250 -15.400  0.00  0.00    -0.222 OA
ENDBRANCH  16  17
ENDBRANCH  13  16
ENDBRANCH  12  13
ENDBRANCH  11  12
ENDBRANCH   1  11
TORSDOF 9
ENDMDL
MODEL 3
REMARK VINA RESULT:      -7.8      6.249      8.019
REMARK  Name = 4469807
REMARK  9 active torsions:
REMARK  status: ('A' for Active; 'I' for Inactive)
REMARK    1  A    between atoms: C_1  and  N_2
REMARK    2  A    between atoms: C_1  and  C_11
REMARK    3  A    between atoms: N_2  and  C_5
REMARK    4  A    between atoms: C_5  and  C_6
REMARK    5  A    between atoms: C_6  and  C_7
REMARK    6  A    between atoms: C_11  and  O_12
REMARK    7  A    between atoms: O_12  and  P_13
REMARK    8  A    between atoms: P_13  and  O_16
REMARK    9  A    between atoms: O_16  and  P_17
REMARK                            x       y       z     vdW  Elec       q    Type
REMARK                         _______ _______ _______ _____ _____    ______ ____
ROOT
ATOM      1  C   UNL     1      33.781 -23.196 -18.416  0.00  0.00    -0.044 C 
ENDROOT
BRANCH   1   2
ATOM      2  N   UNL     1      34.103 -21.828 -18.824  0.00  0.00    +0.387 N 
ATOM      3  C   UNL     1      35.541 -21.695 -19.066  0.00  0.00    -0.101 C 
ATOM      4  H   UNL     1      33.841 -21.195 -18.070  0.00  0.00    -0.080 HD
BRANCH   2   5
ATOM      5  C   UNL     1      33.346 -21.458 -20.015  0.00  0.00    -0.073 C 
BRANCH   5   6
ATOM      6  C   UNL     1      33.450 -19.953 -20.261  0.00  0.00    +0.003 C 
BRANCH   6   7
ATOM      7  C   UNL     1      33.835 -19.663 -21.685  0.00  0.00    -0.037 C 
ATOM      8  C   UNL     1      34.982 -19.120 -22.133  0.00  0.00    -0.048 C 
ATOM      9  C   UNL     1      35.212 -18.934 -23.609  0.00  0.00    +0.026 C 
ATOM     10  C   UNL     1      36.110 -18.644 -21.262  0.00  0.00    +0.026 C 
ENDBRANCH   6   7
ENDBRANCH   5   6
ENDBRANCH   2   5
ENDBRANCH   1   2
BRANCH   1  11
ATOM     11  C   UNL     1      33.041 -23.200 -17.087  0.00  0.00    +0.131 C 
BRANCH  11  12
ATOM     12  O   UNL     1      31.715 -22.733 -17.302  0.00  0.00    -0.274 OA
BRANCH  12  13
ATOM     13  P   UNL     1      30.571 -23.048 -16.178  0.00  0.00    +0.514 P 
ATOM     14  O   UNL     1      30.922 -22.340 -14.888  0.00  0.00    -0.116 OA
ATOM     15  O   UNL     1      30.296 -24.536 -16.194  0.00  0.00    -0.224 OA
BRANCH  13  16
ATOM     16  O   UNL     1      29.304 -22.282 -16.874  0.00  0.00    -0.181 OA
BRANCH  16  17
ATOM     17  P   UNL     1      27.693 -22.630 -16.817  0.00  0.00    +0.540 P 
ATOM     18  O   UNL     1      27.016 -21.346 -17.285  0.00  0.00    -0.114 OA
ATOM     19  O   UNL     1      27.445 -22.970 -15.351  0.00  0.00    -0.114 OA
ATOM     20  O   UNL     1      27.531 -23.810 -17.770  0.00  0.00    -0.222 OA
ENDBRANCH  16  17
ENDBRANCH  13  16
ENDBRANCH  12  13
ENDBRANCH  11  12
ENDBRANCH   1  11
TORSDOF 9
ENDMDL
MODEL 4
REMARK VINA RESULT:      -7.8      1.789      2.926
REMARK  Name = 4469807
REMARK  9 active torsions:
REMARK  status: ('A' for Active; 'I' for Inactive)
REMARK    1  A    between atoms: C_1  and  N_2
REMARK    2  A    between atoms: C_1  and  C_11
REMARK    3  A    between atoms: N_2  and  C_5
REMARK    4  A    between atoms: C_5  and  C_6
REMARK    5  A    between atoms: C_6  and  C_7
REMARK    6  A    between atoms: C_11  and  O_12
REMARK    7  A    between atoms: O_12  and  P_13
REMARK    8  A    between atoms: P_13  and  O_16
REMARK    9  A    between atoms: O_16  and  P_17
REMARK                            x       y       z     vdW  Elec       q    Type
REMARK                         _______ _______ _______ _____ _____    ______ ____
ROOT
ATOM      1  C   UNL     1      34.416 -23.366 -15.988  0.00  0.00    -0.044 C 
ENDROOT
BRANCH   1   2
ATOM      2  N   UNL     1      33.003 -23.583 -16.307  0.00  0.00    +0.387 N 
ATOM      3  C   UNL     1      32.170 -23.299 -15.137  0.00  0.00    -0.101 C 
ATOM      4  H   UNL     1      32.875 -24.560 -16.565  0.00  0.00    -0.080 HD
BRANCH   2   5
ATOM      5  C   UNL     1      32.600 -22.754 -17.437  0.00  0.00    -0.073 C 
BRANCH   5   6
ATOM      6  C   UNL     1      33.702 -22.731 -18.495  0.00  0.00    +0.003 C 
BRANCH   6   7
ATOM      7  C   UNL     1      33.534 -21.562 -19.425  0.00  0.00    -0.037 C 
ATOM      8  C   UNL     1      34.501 -20.842 -20.026  0.00  0.00    -0.048 C 
ATOM      9  C   UNL     1      34.146 -19.719 -20.963  0.00  0.00    +0.026 C 
ATOM     10  C   UNL     1      35.976 -21.050 -19.835  0.00  0.00    +0.026 C 
ENDBRANCH   6   7
ENDBRANCH   5   6
ENDBRANCH   2   5
ENDBRANCH   1   2
BRANCH   1  11
ATOM     11  C   UNL     1      34.974 -24.541 -15.200  0.00  0.00    +0.131 C 
BRANCH  11  12
ATOM     12  O   UNL     1      36.296 -24.807 -15.651  0.00  0.00    -0.274 OA
BRANCH  12  13
ATOM     13  P   UNL     1      37.428 -25.268 -14.566  0.00  0.00    +0.514 P 
ATOM     14  O   UNL     1      38.420 -24.144 -14.364  0.00  0.00    -0.116 OA
ATOM     15  O   UNL     1      37.897 -26.657 -14.941  0.00  0.00    -0.224 OA
BRANCH  13  16
ATOM     16  O   UNL     1      36.483 -25.385 -13.236  0.00  0.00    -0.181 OA
BRANCH  16  17
ATOM     17  P   UNL     1      36.512 -24.517 -11.834  0.00  0.00    +0.540 P 
ATOM     18  O   UNL     1      37.915 -24.742 -11.283  0.00  0.00    -0.114 OA
ATOM     19  O   UNL     1      35.402 -25.143 -10.996  0.00  0.00    -0.114 OA
ATOM     20  O   UNL     1      36.230 -23.084 -12.275  0.00  0.00    -0.222 OA
ENDBRANCH  16  17
ENDBRANCH  13  16
ENDBRANCH  12  13
ENDBRANCH  11  12
ENDBRANCH   1  11
TORSDOF 9
ENDMDL
MODEL 5
REMARK VINA RESULT:      -7.8      1.953      3.205
REMARK  Name = 4469807
REMARK  9 active torsions:
REMARK  status: ('A' for Active; 'I' for Inactive)
REMARK    1  A    between atoms: C_1  and  N_2
REMARK    2  A    between atoms: C_1  and  C_11
REMARK    3  A    between atoms: N_2  and  C_5
REMARK    4  A    between atoms: C_5  and  C_6
REMARK    5  A    between atoms: C_6  and  C_7
REMARK    6  A    between atoms: C_11  and  O_12
REMARK    7  A    between atoms: O_12  and  P_13
REMARK    8  A    between atoms: P_13  and  O_16
REMARK    9  A    between atoms: O_16  and  P_17
REMARK                            x       y       z     vdW  Elec       q    Type
REMARK                         _______ _______ _______ _____ _____    ______ ____
ROOT
ATOM      1  C   UNL     1      37.244 -22.439 -15.660  0.00  0.00    -0.044 C 
ENDROOT
BRANCH   1   2
ATOM      2  N   UNL     1      36.319 -22.713 -16.762  0.00  0.00    +0.387 N 
ATOM      3  C   UNL     1      34.945 -22.790 -16.264  0.00  0.00    -0.101 C 
ATOM      4  H   UNL     1      36.565 -23.612 -17.175  0.00  0.00    -0.080 HD
BRANCH   2   5
ATOM      5  C   UNL     1      36.435 -21.688 -17.793  0.00  0.00    -0.073 C 
BRANCH   5   6
ATOM      6  C   UNL     1      35.464 -21.978 -18.937  0.00  0.00    +0.003 C 
BRANCH   6   7
ATOM      7  C   UNL     1      35.505 -20.888 -19.971  0.00  0.00    -0.037 C 
ATOM      8  C   UNL     1      34.466 -20.209 -20.494  0.00  0.00    -0.048 C 
ATOM      9  C   UNL     1      34.699 -19.115 -21.501  0.00  0.00    +0.026 C 
ATOM     10  C   UNL     1      33.021 -20.456 -20.165  0.00  0.00    +0.026 C 
ENDBRANCH   6   7
ENDBRANCH   5   6
ENDBRANCH   2   5
ENDBRANCH   1   2
BRANCH   1  11
ATOM     11  C   UNL     1      38.291 -23.537 -15.553  0.00  0.00    +0.131 C 
BRANCH  11  12
ATOM     12  O   UNL     1      38.088 -24.245 -14.336  0.00  0.00    -0.274 OA
BRANCH  12  13
ATOM     13  P   UNL     1      37.431 -25.740 -14.387  0.00  0.00    +0.514 P 
ATOM     14  O   UNL     1      38.532 -26.772 -14.498  0.00  0.00    -0.116 OA
ATOM     15  O   UNL     1      36.290 -25.717 -15.381  0.00  0.00    -0.224 OA
BRANCH  13  16
ATOM     16  O   UNL     1      36.800 -25.800 -12.879  0.00  0.00    -0.181 OA
BRANCH  16  17
ATOM     17  P   UNL     1      36.339 -24.578 -11.873  0.00  0.00    +0.540 P 
ATOM     18  O   UNL     1      37.644 -24.093 -11.252  0.00  0.00    -0.114 OA
ATOM     19  O   UNL     1      35.391 -25.255 -10.888  0.00  0.00    -0.114 OA
ATOM     20  O   UNL     1      35.666 -23.567 -12.795  0.00  0.00    -0.222 OA
ENDBRANCH  16  17
ENDBRANCH  13  16
ENDBRANCH  12  13
ENDBRANCH  11  12
ENDBRANCH   1  11
TORSDOF 9
ENDMDL
MODEL 6
REMARK VINA RESULT:      -7.7      2.619      3.832
REMARK  Name = 4469807
REMARK  9 active torsions:
REMARK  status: ('A' for Active; 'I' for Inactive)
REMARK    1  A    between atoms: C_1  and  N_2
REMARK    2  A    between atoms: C_1  and  C_11
REMARK    3  A    between atoms: N_2  and  C_5
REMARK    4  A    between atoms: C_5  and  C_6
REMARK    5  A    between atoms: C_6  and  C_7
REMARK    6  A    between atoms: C_11  and  O_12
REMARK    7  A    between atoms: O_12  and  P_13
REMARK    8  A    between atoms: P_13  and  O_16
REMARK    9  A    between atoms: O_16  and  P_17
REMARK                            x       y       z     vdW  Elec       q    Type
REMARK                         _______ _______ _______ _____ _____    ______ ____
ROOT
ATOM      1  C   UNL     1      34.497 -24.062 -13.465  0.00  0.00    -0.044 C 
ENDROOT
BRANCH   1   2
ATOM      2  N   UNL     1      33.864 -23.184 -14.451  0.00  0.00    +0.387 N 
ATOM      3  C   UNL     1      34.350 -23.497 -15.796  0.00  0.00    -0.101 C 
ATOM      4  H   UNL     1      34.112 -22.220 -14.233  0.00  0.00    -0.080 HD
BRANCH   2   5
ATOM      5  C   UNL     1      32.412 -23.308 -14.389  0.00  0.00    -0.073 C 
BRANCH   5   6
ATOM      6  C   UNL     1      31.842 -23.560 -15.784  0.00  0.00    +0.003 C 
BRANCH   6   7
ATOM      7  C   UNL     1      30.498 -22.909 -15.946  0.00  0.00    -0.037 C 
ATOM      8  C   UNL     1      29.294 -23.412 -15.614  0.00  0.00    -0.048 C 
ATOM      9  C   UNL     1      28.045 -22.596 -15.815  0.00  0.00    +0.026 C 
ATOM     10  C   UNL     1      29.058 -24.781 -15.044  0.00  0.00    +0.026 C 
ENDBRANCH   6   7
ENDBRANCH   5   6
ENDBRANCH   2   5
ENDBRANCH   1   2
BRANCH   1  11
ATOM     11  C   UNL     1      35.694 -24.776 -14.073  0.00  0.00    +0.131 C 
BRANCH  11  12
ATOM     12  O   UNL     1      36.884 -24.152 -13.609  0.00  0.00    -0.274 OA
BRANCH  12  13
ATOM     13  P   UNL     1      37.678 -24.802 -12.338  0.00  0.00    +0.514 P 
ATOM     14  O   UNL     1      37.152 -26.195 -12.073  0.00  0.00    -0.116 OA
ATOM     15  O   UNL     1      37.721 -23.768 -11.234  0.00  0.00    -0.224 OA
BRANCH  13  16
ATOM     16  O   UNL     1      39.172 -24.917 -12.994  0.00  0.00    -0.181 OA
BRANCH  16  17
ATOM     17  P   UNL     1      39.642 -25.483 -14.469  0.00  0.00    +0.540 P 
ATOM     18  O   UNL     1      39.437 -24.299 -15.407  0.00  0.00    -0.114 OA
ATOM     19  O   UNL     1      38.700 -26.655 -14.726  0.00  0.00    -0.114 OA
ATOM     20  O   UNL     1      41.100 -25.884 -14.270  0.00  0.00    -0.222 OA
ENDBRANCH  16  17
ENDBRANCH  13  16
ENDBRANCH  12  13
ENDBRANCH  11  12
ENDBRANCH   1  11
TORSDOF 9
ENDMDL
MODEL 7
REMARK VINA RESULT:      -7.6      2.459      3.549
REMARK  Name = 4469807
REMARK  9 active torsions:
REMARK  status: ('A' for Active; 'I' for Inactive)
REMARK    1  A    between atoms: C_1  and  N_2
REMARK    2  A    between atoms: C_1  and  C_11
REMARK    3  A    between atoms: N_2  and  C_5
REMARK    4  A    between atoms: C_5  and  C_6
REMARK    5  A    between atoms: C_6  and  C_7
REMARK    6  A    between atoms: C_11  and  O_12
REMARK    7  A    between atoms: O_12  and  P_13
REMARK    8  A    between atoms: P_13  and  O_16
REMARK    9  A    between atoms: O_16  and  P_17
REMARK                            x       y       z     vdW  Elec       q    Type
REMARK                         _______ _______ _______ _____ _____    ______ ____
ROOT
ATOM      1  C   UNL     1      36.752 -21.648 -18.187  0.00  0.00    -0.044 C 
ENDROOT
BRANCH   1   2
ATOM      2  N   UNL     1      35.912 -21.748 -19.382  0.00  0.00    +0.387 N 
ATOM      3  C   UNL     1      34.510 -21.936 -19.004  0.00  0.00    -0.101 C 
ATOM      4  H   UNL     1      36.213 -22.558 -19.923  0.00  0.00    -0.080 HD
BRANCH   2   5
ATOM      5  C   UNL     1      36.064 -20.561 -20.215  0.00  0.00    -0.073 C 
BRANCH   5   6
ATOM      6  C   UNL     1      34.696 -20.065 -20.683  0.00  0.00    +0.003 C 
BRANCH   6   7
ATOM      7  C   UNL     1      34.751 -19.587 -22.107  0.00  0.00    -0.037 C 
ATOM      8  C   UNL     1      34.929 -18.326 -22.546  0.00  0.00    -0.048 C 
ATOM      9  C   UNL     1      34.995 -18.035 -24.021  0.00  0.00    +0.026 C 
ATOM     10  C   UNL     1      35.063 -17.117 -21.666  0.00  0.00    +0.026 C 
ENDBRANCH   6   7
ENDBRANCH   5   6
ENDBRANCH   2   5
ENDBRANCH   1   2
BRANCH   1  11
ATOM     11  C   UNL     1      36.108 -22.376 -17.017  0.00  0.00    +0.131 C 
BRANCH  11  12
ATOM     12  O   UNL     1      37.056 -22.472 -15.961  0.00  0.00    -0.274 OA
BRANCH  12  13
ATOM     13  P   UNL     1      36.964 -23.730 -14.923  0.00  0.00    +0.514 P 
ATOM     14  O   UNL     1      36.181 -24.856 -15.563  0.00  0.00    -0.116 OA
ATOM     15  O   UNL     1      36.571 -23.189 -13.565  0.00  0.00    -0.224 OA
BRANCH  13  16
ATOM     16  O   UNL     1      38.545 -24.146 -14.874  0.00  0.00    -0.181 OA
BRANCH  16  17
ATOM     17  P   UNL     1      39.289 -25.401 -14.107  0.00  0.00    +0.540 P 
ATOM     18  O   UNL     1      38.672 -25.406 -12.713  0.00  0.00    -0.114 OA
ATOM     19  O   UNL     1      40.766 -25.022 -14.137  0.00  0.00    -0.114 OA
ATOM     20  O   UNL     1      38.938 -26.619 -14.956  0.00  0.00    -0.222 OA
ENDBRANCH  16  17
ENDBRANCH  13  16
ENDBRANCH  12  13
ENDBRANCH  11  12
ENDBRANCH   1  11
TORSDOF 9
ENDMDL
MODEL 8
REMARK VINA RESULT:      -7.5      2.387      3.685
REMARK  Name = 4469807
REMARK  9 active torsions:
REMARK  status: ('A' for Active; 'I' for Inactive)
REMARK    1  A    between atoms: C_1  and  N_2
REMARK    2  A    between atoms: C_1  and  C_11
REMARK    3  A    between atoms: N_2  and  C_5
REMARK    4  A    between atoms: C_5  and  C_6
REMARK    5  A    between atoms: C_6  and  C_7
REMARK    6  A    between atoms: C_11  and  O_12
REMARK    7  A    between atoms: O_12  and  P_13
REMARK    8  A    between atoms: P_13  and  O_16
REMARK    9  A    between atoms: O_16  and  P_17
REMARK                            x       y       z     vdW  Elec       q    Type
REMARK                         _______ _______ _______ _____ _____    ______ ____
ROOT
ATOM      1  C   UNL     1      36.767 -21.538 -17.980  0.00  0.00    -0.044 C 
ENDROOT
BRANCH   1   2
ATOM      2  N   UNL     1      36.046 -21.778 -19.231  0.00  0.00    +0.387 N 
ATOM      3  C   UNL     1      34.652 -22.129 -18.954  0.00  0.00    -0.101 C 
ATOM      4  H   UNL     1      36.487 -22.560 -19.714  0.00  0.00    -0.080 HD
BRANCH   2   5
ATOM      5  C   UNL     1      36.117 -20.606 -20.096  0.00  0.00    -0.073 C 
BRANCH   5   6
ATOM      6  C   UNL     1      34.716 -20.196 -20.547  0.00  0.00    +0.003 C 
BRANCH   6   7
ATOM      7  C   UNL     1      34.754 -19.532 -21.896  0.00  0.00    -0.037 C 
ATOM      8  C   UNL     1      34.896 -18.220 -22.164  0.00  0.00    -0.048 C 
ATOM      9  C   UNL     1      34.950 -17.735 -23.588  0.00  0.00    +0.026 C 
ATOM     10  C   UNL     1      34.999 -17.135 -21.131  0.00  0.00    +0.026 C 
ENDBRANCH   6   7
ENDBRANCH   5   6
ENDBRANCH   2   5
ENDBRANCH   1   2
BRANCH   1  11
ATOM     11  C   UNL     1      36.153 -22.341 -16.844  0.00  0.00    +0.131 C 
BRANCH  11  12
ATOM     12  O   UNL     1      37.108 -22.455 -15.797  0.00  0.00    -0.274 OA
BRANCH  12  13
ATOM     13  P   UNL     1      36.839 -23.523 -14.589  0.00  0.00    +0.514 P 
ATOM     14  O   UNL     1      35.362 -23.845 -14.520  0.00  0.00    -0.116 OA
ATOM     15  O   UNL     1      37.583 -23.040 -13.363  0.00  0.00    -0.224 OA
BRANCH  13  16
ATOM     16  O   UNL     1      37.635 -24.815 -15.200  0.00  0.00    -0.181 OA
BRANCH  16  17
ATOM     17  P   UNL     1      37.598 -26.398 -14.740  0.00  0.00    +0.540 P 
ATOM     18  O   UNL     1      39.058 -26.835 -14.787  0.00  0.00    -0.114 OA
ATOM     19  O   UNL     1      36.713 -27.061 -15.790  0.00  0.00    -0.114 OA
ATOM     20  O   UNL     1      36.994 -26.367 -13.340  0.00  0.00    -0.222 OA
ENDBRANCH  16  17
ENDBRANCH  13  16
ENDBRANCH  12  13
ENDBRANCH  11  12
ENDBRANCH   1  11
TORSDOF 9
ENDMDL
MODEL 9
REMARK VINA RESULT:      -7.5      2.644      4.008
REMARK  Name = 4469807
REMARK  9 active torsions:
REMARK  status: ('A' for Active; 'I' for Inactive)
REMARK    1  A    between atoms: C_1  and  N_2
REMARK    2  A    between atoms: C_1  and  C_11
REMARK    3  A    between atoms: N_2  and  C_5
REMARK    4  A    between atoms: C_5  and  C_6
REMARK    5  A    between atoms: C_6  and  C_7
REMARK    6  A    between atoms: C_11  and  O_12
REMARK    7  A    between atoms: O_12  and  P_13
REMARK    8  A    between atoms: P_13  and  O_16
REMARK    9  A    between atoms: O_16  and  P_17
REMARK                            x       y       z     vdW  Elec       q    Type
REMARK                         _______ _______ _______ _____ _____    ______ ____
ROOT
ATOM      1  C   UNL     1      35.923 -22.021 -17.784  0.00  0.00    -0.044 C 
ENDROOT
BRANCH   1   2
ATOM      2  N   UNL     1      35.307 -22.058 -19.112  0.00  0.00    +0.387 N 
ATOM      3  C   UNL     1      33.849 -22.112 -18.995  0.00  0.00    -0.101 C 
ATOM      4  H   UNL     1      35.625 -22.898 -19.593  0.00  0.00    -0.080 HD
BRANCH   2   5
ATOM      5  C   UNL     1      35.716 -20.899 -19.897  0.00  0.00    -0.073 C 
BRANCH   5   6
ATOM      6  C   UNL     1      34.500 -20.257 -20.564  0.00  0.00    +0.003 C 
BRANCH   6   7
ATOM      7  C   UNL     1      34.817 -18.869 -21.046  0.00  0.00    -0.037 C 
ATOM      8  C   UNL     1      34.943 -18.448 -22.319  0.00  0.00    -0.048 C 
ATOM      9  C   UNL     1      35.229 -17.001 -22.619  0.00  0.00    +0.026 C 
ATOM     10  C   UNL     1      34.834 -19.326 -23.533  0.00  0.00    +0.026 C 
ENDBRANCH   6   7
ENDBRANCH   5   6
ENDBRANCH   2   5
ENDBRANCH   1   2
BRANCH   1  11
ATOM     11  C   UNL     1      35.070 -22.777 -16.776  0.00  0.00    +0.131 C 
BRANCH  11  12
ATOM     12  O   UNL     1      35.640 -22.617 -15.484  0.00  0.00    -0.274 OA
BRANCH  12  13
ATOM     13  P   UNL     1      36.787 -23.668 -14.986  0.00  0.00    +0.514 P 
ATOM     14  O   UNL     1      38.156 -23.126 -15.337  0.00  0.00    -0.116 OA
ATOM     15  O   UNL     1      36.370 -25.056 -15.421  0.00  0.00    -0.224 OA
BRANCH  13  16
ATOM     16  O   UNL     1      36.569 -23.548 -13.369  0.00  0.00    -0.181 OA
BRANCH  16  17
ATOM     17  P   UNL     1      37.629 -23.807 -12.133  0.00  0.00    +0.540 P 
ATOM     18  O   UNL     1      36.745 -24.233 -10.966  0.00  0.00    -0.114 OA
ATOM     19  O   UNL     1      38.305 -22.453 -11.944  0.00  0.00    -0.114 OA
ATOM     20  O   UNL     1      38.553 -24.901 -12.656  0.00  0.00    -0.222 OA
ENDBRANCH  16  17
ENDBRANCH  13  16
ENDBRANCH  12  13
ENDBRANCH  11  12
ENDBRANCH   1  11
TORSDOF 9
ENDMDL
