MODEL 1
REMARK VINA RESULT:      -7.1      0.000      0.000
REMARK  Name = 6989
REMARK  2 active torsions:
REMARK  status: ('A' for Active; 'I' for Inactive)
REMARK    1  A    between atoms: C_1  and  C_8
REMARK    2  A    between atoms: C_2  and  O_11
REMARK                            x       y       z     vdW  Elec       q    Type
REMARK                         _______ _______ _______ _____ _____    ______ ____
ROOT
ATOM      1  C   UNL     1      34.856 -19.457 -21.056  0.00  0.00    +0.011 C 
ATOM      2  C   UNL     1      35.776 -20.228 -20.346  0.00  0.00    +0.129 C 
ATOM      3  C   UNL     1      33.490 -19.718 -20.937  0.00  0.00    -0.002 C 
ATOM      4  C   UNL     1      33.967 -21.521 -19.401  0.00  0.00    -0.019 C 
ATOM      5  C   UNL     1      35.333 -21.260 -19.519  0.00  0.00    +0.032 C 
ATOM      6  C   UNL     1      33.046 -20.749 -20.110  0.00  0.00    -0.004 C 
ATOM      7  C   UNL     1      33.492 -22.623 -18.516  0.00  0.00    +0.031 C 
ENDROOT
BRANCH   1   8
ATOM      8  C   UNL     1      35.313 -18.350 -21.945  0.00  0.00    +0.025 C 
ATOM      9  C   UNL     1      34.895 -16.964 -21.420  0.00  0.00    +0.005 C 
ATOM     10  C   UNL     1      34.831 -18.525 -23.397  0.00  0.00    +0.005 C 
ENDBRANCH   1   8
BRANCH   2  11
ATOM     11  O   UNL     1      37.113 -19.987 -20.450  0.00  0.00    -0.506 OA
ATOM     12  H   UNL     1      37.726 -20.682 -20.312  0.00  0.00    +0.292 HD
ENDBRANCH   2  11
TORSDOF 2
ENDMDL
MODEL 2
REMARK VINA RESULT:      -7.0      1.598      4.699
REMARK  Name = 6989
REMARK  2 active torsions:
REMARK  status: ('A' for Active; 'I' for Inactive)
REMARK    1  A    between atoms: C_1  and  C_8
REMARK    2  A    between atoms: C_2  and  O_11
REMARK                            x       y       z     vdW  Elec       q    Type
REMARK                         _______ _______ _______ _____ _____    ______ ____
ROOT
ATOM      1  C   UNL     1      34.808 -18.907 -21.729  0.00  0.00    +0.011 C 
ATOM      2  C   UNL     1      35.038 -17.533 -21.663  0.00  0.00    +0.129 C 
ATOM      3  C   UNL     1      34.595 -19.519 -22.965  0.00  0.00    -0.002 C 
ATOM      4  C   UNL     1      34.842 -17.384 -24.067  0.00  0.00    -0.019 C 
ATOM      5  C   UNL     1      35.055 -16.770 -22.832  0.00  0.00    +0.032 C 
ATOM      6  C   UNL     1      34.612 -18.758 -24.133  0.00  0.00    -0.004 C 
ATOM      7  C   UNL     1      34.861 -16.570 -25.316  0.00  0.00    +0.031 C 
ENDROOT
BRANCH   1   8
ATOM      8  C   UNL     1      34.786 -19.737 -20.489  0.00  0.00    +0.025 C 
ATOM      9  C   UNL     1      35.942 -20.753 -20.442  0.00  0.00    +0.005 C 
ATOM     10  C   UNL     1      33.443 -20.464 -20.293  0.00  0.00    +0.005 C 
ENDBRANCH   1   8
BRANCH   2  11
ATOM     11  O   UNL     1      35.247 -16.918 -20.465  0.00  0.00    -0.506 OA
ATOM     12  H   UNL     1      36.041 -17.074 -19.992  0.00  0.00    +0.292 HD
ENDBRANCH   2  11
TORSDOF 2
ENDMDL
MODEL 3
REMARK VINA RESULT:      -6.7      1.673      2.447
REMARK  Name = 6989
REMARK  2 active torsions:
REMARK  status: ('A' for Active; 'I' for Inactive)
REMARK    1  A    between atoms: C_1  and  C_8
REMARK    2  A    between atoms: C_2  and  O_11
REMARK                            x       y       z     vdW  Elec       q    Type
REMARK                         _______ _______ _______ _____ _____    ______ ____
ROOT
ATOM      1  C   UNL     1      34.536 -19.815 -20.994  0.00  0.00    +0.011 C 
ATOM      2  C   UNL     1      33.360 -20.375 -20.495  0.00  0.00    +0.129 C 
ATOM      3  C   UNL     1      35.772 -20.231 -20.496  0.00  0.00    -0.002 C 
ATOM      4  C   UNL     1      34.655 -21.766 -19.002  0.00  0.00    -0.019 C 
ATOM      5  C   UNL     1      33.419 -21.351 -19.499  0.00  0.00    +0.032 C 
ATOM      6  C   UNL     1      35.831 -21.206 -19.501  0.00  0.00    -0.004 C 
ATOM      7  C   UNL     1      34.718 -22.808 -17.937  0.00  0.00    +0.031 C 
ENDROOT
BRANCH   1   8
ATOM      8  C   UNL     1      34.492 -18.771 -22.059  0.00  0.00    +0.025 C 
ATOM      9  C   UNL     1      34.955 -19.307 -23.426  0.00  0.00    +0.005 C 
ATOM     10  C   UNL     1      35.305 -17.518 -21.687  0.00  0.00    +0.005 C 
ENDBRANCH   1   8
BRANCH   2  11
ATOM     11  O   UNL     1      32.145 -19.981 -20.970  0.00  0.00    -0.506 OA
ATOM     12  H   UNL     1      31.468 -19.732 -20.372  0.00  0.00    +0.292 HD
ENDBRANCH   2  11
TORSDOF 2
ENDMDL
MODEL 4
REMARK VINA RESULT:      -6.5      1.969      5.043
REMARK  Name = 6989
REMARK  2 active torsions:
REMARK  status: ('A' for Active; 'I' for Inactive)
REMARK    1  A    between atoms: C_1  and  C_8
REMARK    2  A    between atoms: C_2  and  O_11
REMARK                            x       y       z     vdW  Elec       q    Type
REMARK                         _______ _______ _______ _____ _____    ______ ____
ROOT
ATOM      1  C   UNL     1      35.006 -18.182 -21.900  0.00  0.00    +0.011 C 
ATOM      2  C   UNL     1      34.875 -17.944 -23.268  0.00  0.00    +0.129 C 
ATOM      3  C   UNL     1      34.888 -17.126 -20.994  0.00  0.00    -0.002 C 
ATOM      4  C   UNL     1      34.508 -15.597 -22.826  0.00  0.00    -0.019 C 
ATOM      5  C   UNL     1      34.626 -16.652 -23.732  0.00  0.00    +0.032 C 
ATOM      6  C   UNL     1      34.639 -15.835 -21.458  0.00  0.00    -0.004 C 
ATOM      7  C   UNL     1      34.242 -14.216 -23.321  0.00  0.00    +0.031 C 
ENDROOT
BRANCH   1   8
ATOM      8  C   UNL     1      35.273 -19.557 -21.387  0.00  0.00    +0.025 C 
ATOM      9  C   UNL     1      34.095 -20.118 -20.568  0.00  0.00    +0.005 C 
ATOM     10  C   UNL     1      36.568 -19.635 -20.558  0.00  0.00    +0.005 C 
ENDBRANCH   1   8
BRANCH   2  11
ATOM     11  O   UNL     1      34.988 -18.963 -24.166  0.00  0.00    -0.506 OA
ATOM     12  H   UNL     1      34.767 -19.837 -23.912  0.00  0.00    +0.292 HD
ENDBRANCH   2  11
TORSDOF 2
ENDMDL
MODEL 5
REMARK VINA RESULT:      -6.4      3.163      5.376
REMARK  Name = 6989
REMARK  2 active torsions:
REMARK  status: ('A' for Active; 'I' for Inactive)
REMARK    1  A    between atoms: C_1  and  C_8
REMARK    2  A    between atoms: C_2  and  O_11
REMARK                            x       y       z     vdW  Elec       q    Type
REMARK                         _______ _______ _______ _____ _____    ______ ____
ROOT
ATOM      1  C   UNL     1      34.762 -16.985 -22.197  0.00  0.00    +0.011 C 
ATOM      2  C   UNL     1      34.853 -15.916 -23.088  0.00  0.00    +0.129 C 
ATOM      3  C   UNL     1      33.895 -16.910 -21.105  0.00  0.00    -0.002 C 
ATOM      4  C   UNL     1      33.213 -14.699 -21.798  0.00  0.00    -0.019 C 
ATOM      5  C   UNL     1      34.079 -14.773 -22.889  0.00  0.00    +0.032 C 
ATOM      6  C   UNL     1      33.122 -15.767 -20.906  0.00  0.00    -0.004 C 
ATOM      7  C   UNL     1      32.385 -13.476 -21.585  0.00  0.00    +0.031 C 
ENDROOT
BRANCH   1   8
ATOM      8  C   UNL     1      35.582 -18.216 -22.394  0.00  0.00    +0.025 C 
ATOM      9  C   UNL     1      34.840 -19.292 -23.208  0.00  0.00    +0.005 C 
ATOM     10  C   UNL     1      36.074 -18.814 -21.064  0.00  0.00    +0.005 C 
ENDBRANCH   1   8
BRANCH   2  11
ATOM     11  O   UNL     1      35.694 -15.973 -24.159  0.00  0.00    -0.506 OA
ATOM     12  H   UNL     1      36.530 -16.387 -24.076  0.00  0.00    +0.292 HD
ENDBRANCH   2  11
TORSDOF 2
ENDMDL
MODEL 6
REMARK VINA RESULT:      -6.4      2.606      5.589
REMARK  Name = 6989
REMARK  2 active torsions:
REMARK  status: ('A' for Active; 'I' for Inactive)
REMARK    1  A    between atoms: C_1  and  C_8
REMARK    2  A    between atoms: C_2  and  O_11
REMARK                            x       y       z     vdW  Elec       q    Type
REMARK                         _______ _______ _______ _____ _____    ______ ____
ROOT
ATOM      1  C   UNL     1      34.818 -17.020 -21.898  0.00  0.00    +0.011 C 
ATOM      2  C   UNL     1      34.700 -15.834 -21.174  0.00  0.00    +0.129 C 
ATOM      3  C   UNL     1      34.630 -17.013 -23.281  0.00  0.00    -0.002 C 
ATOM      4  C   UNL     1      34.206 -14.636 -23.213  0.00  0.00    -0.019 C 
ATOM      5  C   UNL     1      34.394 -14.642 -21.830  0.00  0.00    +0.032 C 
ATOM      6  C   UNL     1      34.324 -15.822 -23.937  0.00  0.00    -0.004 C 
ATOM      7  C   UNL     1      33.879 -13.362 -23.916  0.00  0.00    +0.031 C 
ENDROOT
BRANCH   1   8
ATOM      8  C   UNL     1      35.144 -18.304 -21.212  0.00  0.00    +0.025 C 
ATOM      9  C   UNL     1      36.585 -18.771 -21.493  0.00  0.00    +0.005 C 
ATOM     10  C   UNL     1      34.153 -19.427 -21.564  0.00  0.00    +0.005 C 
ENDBRANCH   1   8
BRANCH   2  11
ATOM     11  O   UNL     1      34.880 -15.822 -19.823  0.00  0.00    -0.506 OA
ATOM     12  H   UNL     1      35.422 -15.167 -19.429  0.00  0.00    +0.292 HD
ENDBRANCH   2  11
TORSDOF 2
ENDMDL
MODEL 7
REMARK VINA RESULT:      -6.4     10.753     12.260
REMARK  Name = 6989
REMARK  2 active torsions:
REMARK  status: ('A' for Active; 'I' for Inactive)
REMARK    1  A    between atoms: C_1  and  C_8
REMARK    2  A    between atoms: C_2  and  O_11
REMARK                            x       y       z     vdW  Elec       q    Type
REMARK                         _______ _______ _______ _____ _____    ______ ____
ROOT
ATOM      1  C   UNL     1      32.898  -8.126 -22.491  0.00  0.00    +0.011 C 
ATOM      2  C   UNL     1      32.536  -9.401 -22.925  0.00  0.00    +0.129 C 
ATOM      3  C   UNL     1      34.071  -7.536 -22.963  0.00  0.00    -0.002 C 
ATOM      4  C   UNL     1      34.518  -9.495 -24.304  0.00  0.00    -0.019 C 
ATOM      5  C   UNL     1      33.345 -10.086 -23.832  0.00  0.00    +0.032 C 
ATOM      6  C   UNL     1      34.880  -8.220 -23.869  0.00  0.00    -0.004 C 
ATOM      7  C   UNL     1      35.383 -10.227 -25.274  0.00  0.00    +0.031 C 
ENDROOT
BRANCH   1   8
ATOM      8  C   UNL     1      32.045  -7.379 -21.521  0.00  0.00    +0.025 C 
ATOM      9  C   UNL     1      31.855  -5.904 -21.920  0.00  0.00    +0.005 C 
ATOM     10  C   UNL     1      32.578  -7.466 -20.080  0.00  0.00    +0.005 C 
ENDBRANCH   1   8
BRANCH   2  11
ATOM     11  O   UNL     1      31.394  -9.992 -22.474  0.00  0.00    -0.506 OA
ATOM     12  H   UNL     1      30.952 -10.623 -23.007  0.00  0.00    +0.292 HD
ENDBRANCH   2  11
TORSDOF 2
ENDMDL
MODEL 8
REMARK VINA RESULT:      -6.3      9.674     11.927
REMARK  Name = 6989
REMARK  2 active torsions:
REMARK  status: ('A' for Active; 'I' for Inactive)
REMARK    1  A    between atoms: C_1  and  C_8
REMARK    2  A    between atoms: C_2  and  O_11
REMARK                            x       y       z     vdW  Elec       q    Type
REMARK                         _______ _______ _______ _____ _____    ______ ____
ROOT
ATOM      1  C   UNL     1      32.287  -7.867 -21.642  0.00  0.00    +0.011 C 
ATOM      2  C   UNL     1      32.530  -8.089 -20.287  0.00  0.00    +0.129 C 
ATOM      3  C   UNL     1      31.774  -8.894 -22.436  0.00  0.00    -0.002 C 
ATOM      4  C   UNL     1      31.749 -10.363 -20.518  0.00  0.00    -0.019 C 
ATOM      5  C   UNL     1      32.262  -9.336 -19.724  0.00  0.00    +0.032 C 
ATOM      6  C   UNL     1      31.505 -10.141 -21.873  0.00  0.00    -0.004 C 
ATOM      7  C   UNL     1      31.461 -11.697 -19.917  0.00  0.00    +0.031 C 
ENDROOT
BRANCH   1   8
ATOM      8  C   UNL     1      32.568  -6.538 -22.261  0.00  0.00    +0.025 C 
ATOM      9  C   UNL     1      31.358  -5.589 -22.190  0.00  0.00    +0.005 C 
ATOM     10  C   UNL     1      33.053  -6.659 -23.717  0.00  0.00    +0.005 C 
ENDBRANCH   1   8
BRANCH   2  11
ATOM     11  O   UNL     1      33.031  -7.097 -19.498  0.00  0.00    -0.506 OA
ATOM     12  H   UNL     1      33.004  -6.207 -19.791  0.00  0.00    +0.292 HD
ENDBRANCH   2  11
TORSDOF 2
ENDMDL
MODEL 9
REMARK VINA RESULT:      -6.2      4.574      6.244
REMARK  Name = 6989
REMARK  2 active torsions:
REMARK  status: ('A' for Active; 'I' for Inactive)
REMARK    1  A    between atoms: C_1  and  C_8
REMARK    2  A    between atoms: C_2  and  O_11
REMARK                            x       y       z     vdW  Elec       q    Type
REMARK                         _______ _______ _______ _____ _____    ______ ____
ROOT
ATOM      1  C   UNL     1      33.636 -14.977 -24.101  0.00  0.00    +0.011 C 
ATOM      2  C   UNL     1      33.830 -15.795 -25.214  0.00  0.00    +0.129 C 
ATOM      3  C   UNL     1      34.074 -15.396 -22.843  0.00  0.00    -0.002 C 
ATOM      4  C   UNL     1      34.898 -17.449 -23.813  0.00  0.00    -0.019 C 
ATOM      5  C   UNL     1      34.461 -17.031 -25.071  0.00  0.00    +0.032 C 
ATOM      6  C   UNL     1      34.704 -16.631 -22.700  0.00  0.00    -0.004 C 
ATOM      7  C   UNL     1      35.573 -18.770 -23.660  0.00  0.00    +0.031 C 
ENDROOT
BRANCH   1   8
ATOM      8  C   UNL     1      32.963 -13.652 -24.235  0.00  0.00    +0.025 C 
ATOM      9  C   UNL     1      33.930 -12.546 -24.695  0.00  0.00    +0.005 C 
ATOM     10  C   UNL     1      32.252 -13.220 -22.940  0.00  0.00    +0.005 C 
ENDBRANCH   1   8
BRANCH   2  11
ATOM     11  O   UNL     1      33.409 -15.402 -26.449  0.00  0.00    -0.506 OA
ATOM     12  H   UNL     1      33.035 -16.028 -27.037  0.00  0.00    +0.292 HD
ENDBRANCH   2  11
TORSDOF 2
ENDMDL
