MODEL 1
REMARK VINA RESULT:      -8.5      0.000      0.000
REMARK  Name = 5253
REMARK  7 active torsions:
REMARK  status: ('A' for Active; 'I' for Inactive)
REMARK    1  A    between atoms: C_1  and  C_13
REMARK    2  A    between atoms: C_4  and  N_7
REMARK    3  A    between atoms: N_7  and  S_9
REMARK    4  A    between atoms: C_13  and  O_14
REMARK    5  A    between atoms: C_13  and  C_16
REMARK    6  A    between atoms: C_16  and  N_17
REMARK    7  A    between atoms: N_17  and  C_20
REMARK                            x       y       z     vdW  Elec       q    Type
REMARK                         _______ _______ _______ _____ _____    ______ ____
ROOT
ATOM      1  C   UNL     1      34.966 -18.869 -21.222  0.00  0.00    +0.002 C 
ATOM      2  C   UNL     1      33.587 -18.790 -21.155  0.00  0.00    -0.001 C 
ATOM      3  C   UNL     1      35.660 -19.922 -20.653  0.00  0.00    -0.001 C 
ATOM      4  C   UNL     1      33.561 -20.866 -19.918  0.00  0.00    +0.064 C 
ATOM      5  C   UNL     1      32.878 -19.796 -20.498  0.00  0.00    +0.016 C 
ATOM      6  C   UNL     1      34.952 -20.929 -19.996  0.00  0.00    +0.016 C 
ENDROOT
BRANCH   4   7
ATOM      7  N   UNL     1      32.836 -21.895 -19.246  0.00  0.00    -0.219 N 
ATOM      8  H   UNL     1      31.854 -21.938 -19.297  0.00  0.00    +0.173 HD
BRANCH   7   9
ATOM      9  S   UNL     1      33.727 -23.060 -18.342  0.00  0.00    +0.056 S 
ATOM     10  O   UNL     1      33.746 -24.303 -19.090  0.00  0.00    -0.154 OA
ATOM     11  O   UNL     1      34.957 -22.489 -17.831  0.00  0.00    -0.154 OA
ATOM     12  C   UNL     1      32.624 -23.303 -16.968  0.00  0.00    +0.200 C 
ENDBRANCH   7   9
ENDBRANCH   4   7
BRANCH   1  13
ATOM     13  C   UNL     1      35.735 -17.777 -21.935  0.00  0.00    +0.112 C 
BRANCH  13  14
ATOM     14  O   UNL     1      36.774 -18.389 -22.697  0.00  0.00    -0.382 OA
ATOM     15  H   UNL     1      37.606 -17.911 -22.552  0.00  0.00    +0.211 HD
ENDBRANCH  13  14
BRANCH  13  16
ATOM     16  C   UNL     1      34.820 -16.950 -22.848  0.00  0.00    -0.047 C 
BRANCH  16  17
ATOM     17  N   UNL     1      35.535 -16.516 -24.037  0.00  0.00    +0.387 N 
ATOM     18  H   UNL     1      36.441 -16.982 -24.073  0.00  0.00    -0.084 HD
ATOM     19  H   UNL     1      35.658 -15.504 -23.994  0.00  0.00    -0.084 HD
BRANCH  17  20
ATOM     20  C   UNL     1      34.778 -16.845 -25.245  0.00  0.00    -0.062 C 
ATOM     21  C   UNL     1      33.660 -15.830 -25.461  0.00  0.00    -0.023 C 
ATOM     22  C   UNL     1      34.219 -18.259 -25.123  0.00  0.00    -0.023 C 
ENDBRANCH  17  20
ENDBRANCH  16  17
ENDBRANCH  13  16
ENDBRANCH   1  13
TORSDOF 7
ENDMDL
MODEL 2
REMARK VINA RESULT:      -8.4      2.660      7.452
REMARK  Name = 5253
REMARK  7 active torsions:
REMARK  status: ('A' for Active; 'I' for Inactive)
REMARK    1  A    between atoms: C_1  and  C_13
REMARK    2  A    between atoms: C_4  and  N_7
REMARK    3  A    between atoms: N_7  and  S_9
REMARK    4  A    between atoms: C_13  and  O_14
REMARK    5  A    between atoms: C_13  and  C_16
REMARK    6  A    between atoms: C_16  and  N_17
REMARK    7  A    between atoms: N_17  and  C_20
REMARK                            x       y       z     vdW  Elec       q    Type
REMARK                         _______ _______ _______ _____ _____    ______ ____
ROOT
ATOM      1  C   UNL     1      34.140 -21.567 -19.378  0.00  0.00    +0.002 C 
ATOM      2  C   UNL     1      32.968 -20.934 -19.750  0.00  0.00    -0.001 C 
ATOM      3  C   UNL     1      35.372 -21.147 -19.848  0.00  0.00    -0.001 C 
ATOM      4  C   UNL     1      34.261 -19.407 -21.104  0.00  0.00    +0.064 C 
ATOM      5  C   UNL     1      33.028 -19.846 -20.621  0.00  0.00    +0.016 C 
ATOM      6  C   UNL     1      35.433 -20.058 -20.719  0.00  0.00    +0.016 C 
ENDROOT
BRANCH   4   7
ATOM      7  N   UNL     1      34.323 -18.293 -21.995  0.00  0.00    -0.219 N 
ATOM      8  H   UNL     1      34.389 -18.426 -22.968  0.00  0.00    +0.173 HD
BRANCH   7   9
ATOM      9  S   UNL     1      34.279 -16.709 -21.319  0.00  0.00    +0.056 S 
ATOM     10  O   UNL     1      32.895 -16.358 -21.063  0.00  0.00    -0.154 OA
ATOM     11  O   UNL     1      35.281 -16.560 -20.282  0.00  0.00    -0.154 OA
ATOM     12  C   UNL     1      34.801 -15.753 -22.725  0.00  0.00    +0.200 C 
ENDBRANCH   7   9
ENDBRANCH   4   7
BRANCH   1  13
ATOM     13  C   UNL     1      34.074 -22.749 -18.434  0.00  0.00    +0.112 C 
BRANCH  13  14
ATOM     14  O   UNL     1      35.200 -22.685 -17.561  0.00  0.00    -0.382 OA
ATOM     15  H   UNL     1      35.441 -23.581 -17.278  0.00  0.00    +0.211 HD
ENDBRANCH  13  14
BRANCH  13  16
ATOM     16  C   UNL     1      32.771 -22.749 -17.625  0.00  0.00    -0.047 C 
BRANCH  16  17
ATOM     17  N   UNL     1      32.958 -23.416 -16.346  0.00  0.00    +0.387 N 
ATOM     18  H   UNL     1      33.614 -22.877 -15.780  0.00  0.00    -0.084 HD
ATOM     19  H   UNL     1      33.322 -24.353 -16.515  0.00  0.00    -0.084 HD
BRANCH  17  20
ATOM     20  C   UNL     1      31.687 -23.528 -15.630  0.00  0.00    -0.062 C 
ATOM     21  C   UNL     1      30.555 -22.943 -16.469  0.00  0.00    -0.023 C 
ATOM     22  C   UNL     1      31.797 -22.819 -14.285  0.00  0.00    -0.023 C 
ENDBRANCH  17  20
ENDBRANCH  16  17
ENDBRANCH  13  16
ENDBRANCH   1  13
TORSDOF 7
ENDMDL
MODEL 3
REMARK VINA RESULT:      -8.3      1.572      2.438
REMARK  Name = 5253
REMARK  7 active torsions:
REMARK  status: ('A' for Active; 'I' for Inactive)
REMARK    1  A    between atoms: C_1  and  C_13
REMARK    2  A    between atoms: C_4  and  N_7
REMARK    3  A    between atoms: N_7  and  S_9
REMARK    4  A    between atoms: C_13  and  O_14
REMARK    5  A    between atoms: C_13  and  C_16
REMARK    6  A    between atoms: C_16  and  N_17
REMARK    7  A    between atoms: N_17  and  C_20
REMARK                            x       y       z     vdW  Elec       q    Type
REMARK                         _______ _______ _______ _____ _____    ______ ____
ROOT
ATOM      1  C   UNL     1      34.928 -19.028 -21.331  0.00  0.00    +0.002 C 
ATOM      2  C   UNL     1      35.619 -20.046 -20.699  0.00  0.00    -0.001 C 
ATOM      3  C   UNL     1      33.551 -18.926 -21.247  0.00  0.00    -0.001 C 
ATOM      4  C   UNL     1      33.521 -20.906 -19.863  0.00  0.00    +0.064 C 
ATOM      5  C   UNL     1      34.911 -20.993 -19.959  0.00  0.00    +0.016 C 
ATOM      6  C   UNL     1      32.842 -19.873 -20.508  0.00  0.00    +0.016 C 
ENDROOT
BRANCH   4   7
ATOM      7  N   UNL     1      32.797 -21.875 -19.106  0.00  0.00    -0.219 N 
ATOM      8  H   UNL     1      31.813 -21.866 -19.082  0.00  0.00    +0.173 HD
BRANCH   7   9
ATOM      9  S   UNL     1      33.693 -23.061 -18.234  0.00  0.00    +0.056 S 
ATOM     10  O   UNL     1      33.730 -24.278 -19.023  0.00  0.00    -0.154 OA
ATOM     11  O   UNL     1      34.913 -22.495 -17.695  0.00  0.00    -0.154 OA
ATOM     12  C   UNL     1      32.581 -23.360 -16.878  0.00  0.00    +0.200 C 
ENDBRANCH   7   9
ENDBRANCH   4   7
BRANCH   1  13
ATOM     13  C   UNL     1      35.698 -18.001 -22.135  0.00  0.00    +0.112 C 
BRANCH  13  14
ATOM     14  O   UNL     1      35.927 -18.536 -23.437  0.00  0.00    -0.382 OA
ATOM     15  H   UNL     1      35.636 -19.462 -23.462  0.00  0.00    +0.211 HD
ENDBRANCH  13  14
BRANCH  13  16
ATOM     16  C   UNL     1      34.933 -16.675 -22.230  0.00  0.00    -0.047 C 
BRANCH  16  17
ATOM     17  N   UNL     1      34.929 -15.988 -20.949  0.00  0.00    +0.387 N 
ATOM     18  H   UNL     1      35.889 -15.771 -20.681  0.00  0.00    -0.084 HD
ATOM     19  H   UNL     1      34.495 -16.594 -20.253  0.00  0.00    -0.084 HD
BRANCH  17  20
ATOM     20  C   UNL     1      34.162 -14.745 -21.031  0.00  0.00    -0.062 C 
ATOM     21  C   UNL     1      32.723 -14.980 -20.581  0.00  0.00    -0.023 C 
ATOM     22  C   UNL     1      34.210 -14.212 -22.459  0.00  0.00    -0.023 C 
ENDBRANCH  17  20
ENDBRANCH  16  17
ENDBRANCH  13  16
ENDBRANCH   1  13
TORSDOF 7
ENDMDL
MODEL 4
REMARK VINA RESULT:      -8.3      3.137      7.293
REMARK  Name = 5253
REMARK  7 active torsions:
REMARK  status: ('A' for Active; 'I' for Inactive)
REMARK    1  A    between atoms: C_1  and  C_13
REMARK    2  A    between atoms: C_4  and  N_7
REMARK    3  A    between atoms: N_7  and  S_9
REMARK    4  A    between atoms: C_13  and  O_14
REMARK    5  A    between atoms: C_13  and  C_16
REMARK    6  A    between atoms: C_16  and  N_17
REMARK    7  A    between atoms: N_17  and  C_20
REMARK                            x       y       z     vdW  Elec       q    Type
REMARK                         _______ _______ _______ _____ _____    ______ ____
ROOT
ATOM      1  C   UNL     1      34.191 -21.194 -19.642  0.00  0.00    +0.002 C 
ATOM      2  C   UNL     1      33.014 -20.559 -19.996  0.00  0.00    -0.001 C 
ATOM      3  C   UNL     1      35.417 -20.770 -20.125  0.00  0.00    -0.001 C 
ATOM      4  C   UNL     1      34.291 -19.022 -21.355  0.00  0.00    +0.064 C 
ATOM      5  C   UNL     1      33.064 -19.464 -20.859  0.00  0.00    +0.016 C 
ATOM      6  C   UNL     1      35.467 -19.676 -20.989  0.00  0.00    +0.016 C 
ENDROOT
BRANCH   4   7
ATOM      7  N   UNL     1      34.341 -17.902 -22.239  0.00  0.00    -0.219 N 
ATOM      8  H   UNL     1      34.240 -18.020 -23.211  0.00  0.00    +0.173 HD
BRANCH   7   9
ATOM      9  S   UNL     1      34.585 -16.339 -21.557  0.00  0.00    +0.056 S 
ATOM     10  O   UNL     1      35.232 -16.498 -20.267  0.00  0.00    -0.154 OA
ATOM     11  O   UNL     1      35.122 -15.421 -22.542  0.00  0.00    -0.154 OA
ATOM     12  C   UNL     1      32.900 -15.871 -21.234  0.00  0.00    +0.200 C 
ENDBRANCH   7   9
ENDBRANCH   4   7
BRANCH   1  13
ATOM     13  C   UNL     1      34.137 -22.383 -18.706  0.00  0.00    +0.112 C 
BRANCH  13  14
ATOM     14  O   UNL     1      34.035 -23.566 -19.495  0.00  0.00    -0.382 OA
ATOM     15  H   UNL     1      34.898 -23.764 -19.894  0.00  0.00    +0.211 HD
ENDBRANCH  13  14
BRANCH  13  16
ATOM     16  C   UNL     1      35.377 -22.447 -17.807  0.00  0.00    -0.047 C 
BRANCH  16  17
ATOM     17  N   UNL     1      35.021 -22.882 -16.465  0.00  0.00    +0.387 N 
ATOM     18  H   UNL     1      34.703 -23.850 -16.501  0.00  0.00    -0.084 HD
ATOM     19  H   UNL     1      34.280 -22.278 -16.111  0.00  0.00    -0.084 HD
BRANCH  17  20
ATOM     20  C   UNL     1      36.172 -22.787 -15.568  0.00  0.00    -0.062 C 
ATOM     21  C   UNL     1      37.307 -22.022 -16.243  0.00  0.00    -0.023 C 
ATOM     22  C   UNL     1      36.618 -24.189 -15.166  0.00  0.00    -0.023 C 
ENDBRANCH  17  20
ENDBRANCH  16  17
ENDBRANCH  13  16
ENDBRANCH   1  13
TORSDOF 7
ENDMDL
MODEL 5
REMARK VINA RESULT:      -8.2      7.666      9.535
REMARK  Name = 5253
REMARK  7 active torsions:
REMARK  status: ('A' for Active; 'I' for Inactive)
REMARK    1  A    between atoms: C_1  and  C_13
REMARK    2  A    between atoms: C_4  and  N_7
REMARK    3  A    between atoms: N_7  and  S_9
REMARK    4  A    between atoms: C_13  and  O_14
REMARK    5  A    between atoms: C_13  and  C_16
REMARK    6  A    between atoms: C_16  and  N_17
REMARK    7  A    between atoms: N_17  and  C_20
REMARK                            x       y       z     vdW  Elec       q    Type
REMARK                         _______ _______ _______ _____ _____    ______ ____
ROOT
ATOM      1  C   UNL     1      33.110 -23.529 -14.690  0.00  0.00    +0.002 C 
ATOM      2  C   UNL     1      33.168 -23.522 -16.072  0.00  0.00    -0.001 C 
ATOM      3  C   UNL     1      31.958 -23.173 -14.012  0.00  0.00    -0.001 C 
ATOM      4  C   UNL     1      30.867 -22.787 -16.133  0.00  0.00    +0.064 C 
ATOM      5  C   UNL     1      32.038 -23.149 -16.800  0.00  0.00    +0.016 C 
ATOM      6  C   UNL     1      30.827 -22.799 -14.739  0.00  0.00    +0.016 C 
ENDROOT
BRANCH   4   7
ATOM      7  N   UNL     1      29.711 -22.405 -16.878  0.00  0.00    -0.219 N 
ATOM      8  H   UNL     1      29.723 -21.610 -17.458  0.00  0.00    +0.173 HD
BRANCH   7   9
ATOM      9  S   UNL     1      28.293 -23.373 -16.732  0.00  0.00    +0.056 S 
ATOM     10  O   UNL     1      27.639 -23.424 -18.026  0.00  0.00    -0.154 OA
ATOM     11  O   UNL     1      28.571 -24.591 -15.998  0.00  0.00    -0.154 OA
ATOM     12  C   UNL     1      27.301 -22.323 -15.694  0.00  0.00    +0.200 C 
ENDBRANCH   7   9
ENDBRANCH   4   7
BRANCH   1  13
ATOM     13  C   UNL     1      34.337 -23.934 -13.901  0.00  0.00    +0.112 C 
BRANCH  13  14
ATOM     14  O   UNL     1      33.909 -24.690 -12.770  0.00  0.00    -0.382 OA
ATOM     15  H   UNL     1      34.484 -25.464 -12.662  0.00  0.00    +0.211 HD
ENDBRANCH  13  14
BRANCH  13  16
ATOM     16  C   UNL     1      35.308 -24.757 -14.756  0.00  0.00    -0.047 C 
BRANCH  16  17
ATOM     17  N   UNL     1      36.206 -25.533 -13.915  0.00  0.00    +0.387 N 
ATOM     18  H   UNL     1      36.451 -26.398 -14.397  0.00  0.00    -0.084 HD
ATOM     19  H   UNL     1      35.734 -25.739 -13.035  0.00  0.00    -0.084 HD
BRANCH  17  20
ATOM     20  C   UNL     1      37.426 -24.781 -13.628  0.00  0.00    -0.062 C 
ATOM     21  C   UNL     1      37.968 -24.146 -14.905  0.00  0.00    -0.023 C 
ATOM     22  C   UNL     1      38.458 -25.709 -12.997  0.00  0.00    -0.023 C 
ENDBRANCH  17  20
ENDBRANCH  16  17
ENDBRANCH  13  16
ENDBRANCH   1  13
TORSDOF 7
ENDMDL
MODEL 6
REMARK VINA RESULT:      -8.1      2.986      7.237
REMARK  Name = 5253
REMARK  7 active torsions:
REMARK  status: ('A' for Active; 'I' for Inactive)
REMARK    1  A    between atoms: C_1  and  C_13
REMARK    2  A    between atoms: C_4  and  N_7
REMARK    3  A    between atoms: N_7  and  S_9
REMARK    4  A    between atoms: C_13  and  O_14
REMARK    5  A    between atoms: C_13  and  C_16
REMARK    6  A    between atoms: C_16  and  N_17
REMARK    7  A    between atoms: N_17  and  C_20
REMARK                            x       y       z     vdW  Elec       q    Type
REMARK                         _______ _______ _______ _____ _____    ______ ____
ROOT
ATOM      1  C   UNL     1      35.250 -20.660 -20.140  0.00  0.00    +0.002 C 
ATOM      2  C   UNL     1      36.312 -19.867 -20.537  0.00  0.00    -0.001 C 
ATOM      3  C   UNL     1      33.940 -20.301 -20.401  0.00  0.00    -0.001 C 
ATOM      4  C   UNL     1      34.740 -18.299 -21.490  0.00  0.00    +0.064 C 
ATOM      5  C   UNL     1      36.056 -18.677 -21.218  0.00  0.00    +0.016 C 
ATOM      6  C   UNL     1      33.682 -19.111 -21.081  0.00  0.00    +0.016 C 
ENDROOT
BRANCH   4   7
ATOM      7  N   UNL     1      34.478 -17.080 -22.186  0.00  0.00    -0.219 N 
ATOM      8  H   UNL     1      34.557 -17.030 -23.166  0.00  0.00    +0.173 HD
BRANCH   7   9
ATOM      9  S   UNL     1      34.021 -15.699 -21.263  0.00  0.00    +0.056 S 
ATOM     10  O   UNL     1      32.583 -15.734 -21.069  0.00  0.00    -0.154 OA
ATOM     11  O   UNL     1      34.912 -15.511 -20.136  0.00  0.00    -0.154 OA
ATOM     12  C   UNL     1      34.350 -14.409 -22.443  0.00  0.00    +0.200 C 
ENDBRANCH   7   9
ENDBRANCH   4   7
BRANCH   1  13
ATOM     13  C   UNL     1      35.529 -21.952 -19.401  0.00  0.00    +0.112 C 
BRANCH  13  14
ATOM     14  O   UNL     1      36.604 -21.721 -18.492  0.00  0.00    -0.382 OA
ATOM     15  H   UNL     1      37.324 -22.345 -18.676  0.00  0.00    +0.211 HD
ENDBRANCH  13  14
BRANCH  13  16
ATOM     16  C   UNL     1      34.289 -22.446 -18.645  0.00  0.00    -0.047 C 
BRANCH  16  17
ATOM     17  N   UNL     1      34.604 -22.705 -17.249  0.00  0.00    +0.387 N 
ATOM     18  H   UNL     1      34.734 -21.817 -16.765  0.00  0.00    -0.084 HD
ATOM     19  H   UNL     1      35.458 -23.262 -17.204  0.00  0.00    -0.084 HD
BRANCH  17  20
ATOM     20  C   UNL     1      33.524 -23.451 -16.605  0.00  0.00    -0.062 C 
ATOM     21  C   UNL     1      32.169 -22.937 -17.084  0.00  0.00    -0.023 C 
ATOM     22  C   UNL     1      33.654 -23.325 -15.091  0.00  0.00    -0.023 C 
ENDBRANCH  17  20
ENDBRANCH  16  17
ENDBRANCH  13  16
ENDBRANCH   1  13
TORSDOF 7
ENDMDL
MODEL 7
REMARK VINA RESULT:      -8.1      2.379      7.588
REMARK  Name = 5253
REMARK  7 active torsions:
REMARK  status: ('A' for Active; 'I' for Inactive)
REMARK    1  A    between atoms: C_1  and  C_13
REMARK    2  A    between atoms: C_4  and  N_7
REMARK    3  A    between atoms: N_7  and  S_9
REMARK    4  A    between atoms: C_13  and  O_14
REMARK    5  A    between atoms: C_13  and  C_16
REMARK    6  A    between atoms: C_16  and  N_17
REMARK    7  A    between atoms: N_17  and  C_20
REMARK                            x       y       z     vdW  Elec       q    Type
REMARK                         _______ _______ _______ _____ _____    ______ ____
ROOT
ATOM      1  C   UNL     1      34.020 -21.649 -19.304  0.00  0.00    +0.002 C 
ATOM      2  C   UNL     1      35.262 -21.205 -19.723  0.00  0.00    -0.001 C 
ATOM      3  C   UNL     1      32.854 -21.018 -19.700  0.00  0.00    -0.001 C 
ATOM      4  C   UNL     1      34.174 -19.448 -20.976  0.00  0.00    +0.064 C 
ATOM      5  C   UNL     1      35.340 -20.096 -20.566  0.00  0.00    +0.016 C 
ATOM      6  C   UNL     1      32.931 -19.909 -20.542  0.00  0.00    +0.016 C 
ENDROOT
BRANCH   4   7
ATOM      7  N   UNL     1      34.255 -18.313 -21.838  0.00  0.00    -0.219 N 
ATOM      8  H   UNL     1      33.742 -17.495 -21.647  0.00  0.00    +0.173 HD
BRANCH   7   9
ATOM      9  S   UNL     1      35.273 -18.416 -23.224  0.00  0.00    +0.056 S 
ATOM     10  O   UNL     1      36.645 -18.211 -22.800  0.00  0.00    -0.154 OA
ATOM     11  O   UNL     1      34.917 -19.557 -24.045  0.00  0.00    -0.154 OA
ATOM     12  C   UNL     1      34.776 -16.944 -24.090  0.00  0.00    +0.200 C 
ENDBRANCH   7   9
ENDBRANCH   4   7
BRANCH   1  13
ATOM     13  C   UNL     1      33.936 -22.851 -18.388  0.00  0.00    +0.112 C 
BRANCH  13  14
ATOM     14  O   UNL     1      35.075 -22.837 -17.529  0.00  0.00    -0.382 OA
ATOM     15  H   UNL     1      35.873 -23.026 -18.046  0.00  0.00    +0.211 HD
ENDBRANCH  13  14
BRANCH  13  16
ATOM     16  C   UNL     1      32.644 -22.839 -17.562  0.00  0.00    -0.047 C 
BRANCH  16  17
ATOM     17  N   UNL     1      32.874 -23.392 -16.236  0.00  0.00    +0.387 N 
ATOM     18  H   UNL     1      33.466 -22.753 -15.705  0.00  0.00    -0.084 HD
ATOM     19  H   UNL     1      33.329 -24.299 -16.334  0.00  0.00    -0.084 HD
BRANCH  17  20
ATOM     20  C   UNL     1      31.609 -23.575 -15.526  0.00  0.00    -0.062 C 
ATOM     21  C   UNL     1      30.460 -22.973 -16.329  0.00  0.00    -0.023 C 
ATOM     22  C   UNL     1      31.706 -22.939 -14.144  0.00  0.00    -0.023 C 
ENDBRANCH  17  20
ENDBRANCH  16  17
ENDBRANCH  13  16
ENDBRANCH   1  13
TORSDOF 7
ENDMDL
MODEL 8
REMARK VINA RESULT:      -8.0      3.530      5.100
REMARK  Name = 5253
REMARK  7 active torsions:
REMARK  status: ('A' for Active; 'I' for Inactive)
REMARK    1  A    between atoms: C_1  and  C_13
REMARK    2  A    between atoms: C_4  and  N_7
REMARK    3  A    between atoms: N_7  and  S_9
REMARK    4  A    between atoms: C_13  and  O_14
REMARK    5  A    between atoms: C_13  and  C_16
REMARK    6  A    between atoms: C_16  and  N_17
REMARK    7  A    between atoms: N_17  and  C_20
REMARK                            x       y       z     vdW  Elec       q    Type
REMARK                         _______ _______ _______ _____ _____    ______ ____
ROOT
ATOM      1  C   UNL     1      34.587 -22.286 -18.190  0.00  0.00    +0.002 C 
ATOM      2  C   UNL     1      33.825 -23.020 -17.299  0.00  0.00    -0.001 C 
ATOM      3  C   UNL     1      35.900 -21.947 -17.912  0.00  0.00    -0.001 C 
ATOM      4  C   UNL     1      35.715 -23.097 -15.796  0.00  0.00    +0.064 C 
ATOM      5  C   UNL     1      34.392 -23.429 -16.092  0.00  0.00    +0.016 C 
ATOM      6  C   UNL     1      36.468 -22.356 -16.705  0.00  0.00    +0.016 C 
ENDROOT
BRANCH   4   7
ATOM      7  N   UNL     1      36.296 -23.516 -14.560  0.00  0.00    -0.219 N 
ATOM      8  H   UNL     1      36.074 -23.060 -13.717  0.00  0.00    +0.173 HD
BRANCH   7   9
ATOM      9  S   UNL     1      37.396 -24.842 -14.588  0.00  0.00    +0.056 S 
ATOM     10  O   UNL     1      36.869 -25.856 -15.482  0.00  0.00    -0.154 OA
ATOM     11  O   UNL     1      38.763 -24.378 -14.724  0.00  0.00    -0.154 OA
ATOM     12  C   UNL     1      37.189 -25.457 -12.932  0.00  0.00    +0.200 C 
ENDBRANCH   7   9
ENDBRANCH   4   7
BRANCH   1  13
ATOM     13  C   UNL     1      33.971 -21.841 -19.499  0.00  0.00    +0.112 C 
BRANCH  13  14
ATOM     14  O   UNL     1      32.673 -21.316 -19.223  0.00  0.00    -0.382 OA
ATOM     15  H   UNL     1      31.999 -21.934 -19.547  0.00  0.00    +0.211 HD
ENDBRANCH  13  14
BRANCH  13  16
ATOM     16  C   UNL     1      34.836 -20.785 -20.197  0.00  0.00    -0.047 C 
BRANCH  16  17
ATOM     17  N   UNL     1      34.005 -19.807 -20.881  0.00  0.00    +0.387 N 
ATOM     18  H   UNL     1      33.447 -19.301 -20.192  0.00  0.00    -0.084 HD
ATOM     19  H   UNL     1      33.398 -20.295 -21.539  0.00  0.00    -0.084 HD
BRANCH  17  20
ATOM     20  C   UNL     1      34.830 -18.854 -21.622  0.00  0.00    -0.062 C 
ATOM     21  C   UNL     1      34.807 -19.182 -23.113  0.00  0.00    -0.023 C 
ATOM     22  C   UNL     1      36.254 -18.884 -21.077  0.00  0.00    -0.023 C 
ENDBRANCH  17  20
ENDBRANCH  16  17
ENDBRANCH  13  16
ENDBRANCH   1  13
TORSDOF 7
ENDMDL
MODEL 9
REMARK VINA RESULT:      -7.9      4.336      5.786
REMARK  Name = 5253
REMARK  7 active torsions:
REMARK  status: ('A' for Active; 'I' for Inactive)
REMARK    1  A    between atoms: C_1  and  C_13
REMARK    2  A    between atoms: C_4  and  N_7
REMARK    3  A    between atoms: N_7  and  S_9
REMARK    4  A    between atoms: C_13  and  O_14
REMARK    5  A    between atoms: C_13  and  C_16
REMARK    6  A    between atoms: C_16  and  N_17
REMARK    7  A    between atoms: N_17  and  C_20
REMARK                            x       y       z     vdW  Elec       q    Type
REMARK                         _______ _______ _______ _____ _____    ______ ____
ROOT
ATOM      1  C   UNL     1      33.321 -14.300 -22.719  0.00  0.00    +0.002 C 
ATOM      2  C   UNL     1      32.757 -14.786 -21.553  0.00  0.00    -0.001 C 
ATOM      3  C   UNL     1      34.423 -14.904 -23.298  0.00  0.00    -0.001 C 
ATOM      4  C   UNL     1      34.423 -16.536 -21.517  0.00  0.00    +0.064 C 
ATOM      5  C   UNL     1      33.311 -15.913 -20.947  0.00  0.00    +0.016 C 
ATOM      6  C   UNL     1      34.979 -16.031 -22.692  0.00  0.00    +0.016 C 
ENDROOT
BRANCH   4   7
ATOM      7  N   UNL     1      34.991 -17.689 -20.896  0.00  0.00    -0.219 N 
ATOM      8  H   UNL     1      35.694 -17.601 -20.213  0.00  0.00    +0.173 HD
BRANCH   7   9
ATOM      9  S   UNL     1      34.411 -19.239 -21.376  0.00  0.00    +0.056 S 
ATOM     10  O   UNL     1      33.111 -19.451 -20.766  0.00  0.00    -0.154 OA
ATOM     11  O   UNL     1      34.600 -19.446 -22.798  0.00  0.00    -0.154 OA
ATOM     12  C   UNL     1      35.561 -20.286 -20.512  0.00  0.00    +0.200 C 
ENDBRANCH   7   9
ENDBRANCH   4   7
BRANCH   1  13
ATOM     13  C   UNL     1      32.719 -13.076 -23.376  0.00  0.00    +0.112 C 
BRANCH  13  14
ATOM     14  O   UNL     1      32.196 -12.233 -22.351  0.00  0.00    -0.382 OA
ATOM     15  H   UNL     1      32.581 -11.346 -22.434  0.00  0.00    +0.211 HD
ENDBRANCH  13  14
BRANCH  13  16
ATOM     16  C   UNL     1      33.758 -12.318 -24.211  0.00  0.00    -0.047 C 
BRANCH  16  17
ATOM     17  N   UNL     1      33.515 -10.885 -24.161  0.00  0.00    +0.387 N 
ATOM     18  H   UNL     1      33.062 -10.652 -23.277  0.00  0.00    -0.084 HD
ATOM     19  H   UNL     1      32.916 -10.627 -24.945  0.00  0.00    -0.084 HD
BRANCH  17  20
ATOM     20  C   UNL     1      34.771 -10.143 -24.267  0.00  0.00    -0.062 C 
ATOM     21  C   UNL     1      34.537  -8.664 -23.973  0.00  0.00    -0.023 C 
ATOM     22  C   UNL     1      35.360 -10.339 -25.660  0.00  0.00    -0.023 C 
ENDBRANCH  17  20
ENDBRANCH  16  17
ENDBRANCH  13  16
ENDBRANCH   1  13
TORSDOF 7
ENDMDL
