MODEL 1
REMARK VINA RESULT:     -11.5      0.000      0.000
REMARK  Name = 447219
REMARK  7 active torsions:
REMARK  status: ('A' for Active; 'I' for Inactive)
REMARK    1  A    between atoms: N_2  and  C_11
REMARK    2  A    between atoms: N_3  and  C_24
REMARK    3  A    between atoms: C_11  and  C_14
REMARK    4  A    between atoms: N_13  and  C_16
REMARK    5  A    between atoms: C_16  and  C_19
REMARK    6  A    between atoms: C_24  and  C_27
REMARK    7  A    between atoms: C_27  and  C_29
REMARK                            x       y       z     vdW  Elec       q    Type
REMARK                         _______ _______ _______ _____ _____    ______ ____
ROOT
ATOM      1  O   UNL     1      34.944 -14.349 -21.880  0.00  0.00    -0.267 OA
ATOM      2  N   UNL     1      34.007 -14.250 -24.026  0.00  0.00    -0.246 N 
ATOM      3  N   UNL     1      35.369 -17.007 -21.978  0.00  0.00    -0.310 N 
ATOM      4  N   UNL     1      34.448 -17.020 -24.134  0.00  0.00    -0.224 NA
ATOM      5  C   UNL     1      33.656 -14.987 -25.148  0.00  0.00    +0.052 C 
ATOM      6  C   UNL     1      34.797 -16.378 -23.057  0.00  0.00    +0.183 C 
ATOM      7  C   UNL     1      34.589 -14.879 -22.925  0.00  0.00    +0.284 C 
ATOM      8  C   UNL     1      33.886 -16.308 -25.154  0.00  0.00    +0.111 C 
ATOM      9  C   UNL     1      33.030 -14.302 -26.328  0.00  0.00    +0.049 C 
ATOM     10  H   UNL     1      35.612 -16.470 -21.190  0.00  0.00    +0.149 HD
ENDROOT
BRANCH   2  11
ATOM     11  C   UNL     1      33.766 -12.812 -23.996  0.00  0.00    +0.183 C 
BRANCH  11  14
ATOM     12  O   UNL     1      31.900 -13.369 -22.567  0.00  0.00    -0.273 OA
ATOM     13  N   UNL     1      32.528 -11.144 -22.796  0.00  0.00    -0.298 N 
ATOM     14  C   UNL     1      32.640 -12.506 -23.033  0.00  0.00    +0.243 C 
ATOM     15  H   UNL     1      33.178 -10.540 -23.223  0.00  0.00    +0.150 HD
BRANCH  13  16
ATOM     16  C   UNL     1      31.505 -10.566 -21.954  0.00  0.00    +0.138 C 
BRANCH  16  19
ATOM     17  F   UNL     1      32.517  -9.583 -19.507  0.00  0.00    -0.203 F 
ATOM     18  N   UNL     1      31.448  -8.271 -22.721  0.00  0.00    -0.244 NA
ATOM     19  C   UNL     1      31.744  -9.104 -21.704  0.00  0.00    +0.106 C 
ATOM     20  C   UNL     1      32.242  -8.705 -20.478  0.00  0.00    +0.155 C 
ATOM     21  C   UNL     1      32.452  -7.344 -20.283  0.00  0.00    +0.033 C 
ATOM     22  C   UNL     1      31.665  -6.956 -22.494  0.00  0.00    +0.099 C 
ATOM     23  C   UNL     1      32.161  -6.447 -21.305  0.00  0.00    +0.023 C 
ENDBRANCH  16  19
ENDBRANCH  13  16
ENDBRANCH  11  14
ENDBRANCH   2  11
BRANCH   3  24
ATOM     24  C   UNL     1      35.622 -18.413 -21.962  0.00  0.00    +0.162 C 
BRANCH  24  27
ATOM     25  F   UNL     1      33.757 -19.713 -22.545  0.00  0.00    -0.196 F 
ATOM     26  F   UNL     1      33.505 -18.252 -20.960  0.00  0.00    -0.196 F 
ATOM     27  C   UNL     1      34.388 -19.164 -21.465  0.00  0.00    +0.316 C 
BRANCH  27  29
ATOM     28  N   UNL     1      36.069 -20.254 -20.106  0.00  0.00    -0.243 NA
ATOM     29  C   UNL     1      34.769 -20.209 -20.443  0.00  0.00    +0.121 C 
ATOM     30  C   UNL     1      33.784 -21.027 -19.936  0.00  0.00    +0.020 C 
ATOM     31  C   UNL     1      34.168 -21.979 -18.998  0.00  0.00    +0.003 C 
ATOM     32  C   UNL     1      36.404 -21.192 -19.191  0.00  0.00    +0.099 C 
ATOM     33  C   UNL     1      35.501 -22.070 -18.612  0.00  0.00    +0.021 C 
ENDBRANCH  27  29
ENDBRANCH  24  27
ENDBRANCH   3  24
TORSDOF 7
ENDMDL
MODEL 2
REMARK VINA RESULT:     -11.5      2.002      2.833
REMARK  Name = 447219
REMARK  7 active torsions:
REMARK  status: ('A' for Active; 'I' for Inactive)
REMARK    1  A    between atoms: N_2  and  C_11
REMARK    2  A    between atoms: N_3  and  C_24
REMARK    3  A    between atoms: C_11  and  C_14
REMARK    4  A    between atoms: N_13  and  C_16
REMARK    5  A    between atoms: C_16  and  C_19
REMARK    6  A    between atoms: C_24  and  C_27
REMARK    7  A    between atoms: C_27  and  C_29
REMARK                            x       y       z     vdW  Elec       q    Type
REMARK                         _______ _______ _______ _____ _____    ______ ____
ROOT
ATOM      1  O   UNL     1      35.054 -16.465 -20.406  0.00  0.00    -0.267 OA
ATOM      2  N   UNL     1      34.639 -16.239 -22.701  0.00  0.00    -0.246 N 
ATOM      3  N   UNL     1      35.207 -19.152 -20.503  0.00  0.00    -0.310 N 
ATOM      4  N   UNL     1      34.799 -19.039 -22.808  0.00  0.00    -0.224 NA
ATOM      5  C   UNL     1      34.474 -16.920 -23.899  0.00  0.00    +0.052 C 
ATOM      6  C   UNL     1      34.962 -18.452 -21.658  0.00  0.00    +0.183 C 
ATOM      7  C   UNL     1      34.889 -16.940 -21.523  0.00  0.00    +0.284 C 
ATOM      8  C   UNL     1      34.558 -18.258 -23.902  0.00  0.00    +0.111 C 
ATOM      9  C   UNL     1      34.205 -16.156 -25.164  0.00  0.00    +0.049 C 
ATOM     10  H   UNL     1      35.322 -18.655 -19.662  0.00  0.00    +0.149 HD
ENDROOT
BRANCH   2  11
ATOM     11  C   UNL     1      34.550 -14.783 -22.675  0.00  0.00    +0.183 C 
BRANCH  11  14
ATOM     12  O   UNL     1      32.311 -15.154 -21.848  0.00  0.00    -0.273 OA
ATOM     13  N   UNL     1      32.934 -13.017 -22.514  0.00  0.00    -0.298 N 
ATOM     14  C   UNL     1      33.150 -14.367 -22.280  0.00  0.00    +0.243 C 
ATOM     15  H   UNL     1      33.681 -12.478 -22.862  0.00  0.00    +0.150 HD
BRANCH  13  16
ATOM     16  C   UNL     1      31.668 -12.362 -22.274  0.00  0.00    +0.138 C 
BRANCH  16  19
ATOM     17  F   UNL     1      31.606 -12.200 -19.455  0.00  0.00    -0.203 F 
ATOM     18  N   UNL     1      32.025  -9.969 -22.291  0.00  0.00    -0.244 NA
ATOM     19  C   UNL     1      31.838 -11.067 -21.533  0.00  0.00    +0.106 C 
ATOM     20  C   UNL     1      31.795 -11.072 -20.152  0.00  0.00    +0.155 C 
ATOM     21  C   UNL     1      31.958  -9.855 -19.499  0.00  0.00    +0.033 C 
ATOM     22  C   UNL     1      32.178  -8.804 -21.622  0.00  0.00    +0.099 C 
ATOM     23  C   UNL     1      32.154  -8.695 -20.241  0.00  0.00    +0.023 C 
ENDBRANCH  16  19
ENDBRANCH  13  16
ENDBRANCH  11  14
ENDBRANCH   2  11
BRANCH   3  24
ATOM     24  C   UNL     1      35.301 -20.578 -20.481  0.00  0.00    +0.162 C 
BRANCH  24  27
ATOM     25  F   UNL     1      37.248 -19.903 -19.357  0.00  0.00    -0.196 F 
ATOM     26  F   UNL     1      37.313 -21.786 -20.432  0.00  0.00    -0.196 F 
ATOM     27  C   UNL     1      36.506 -21.012 -19.648  0.00  0.00    +0.316 C 
BRANCH  27  29
ATOM     28  N   UNL     1      34.857 -22.326 -18.458  0.00  0.00    -0.243 NA
ATOM     29  C   UNL     1      36.064 -21.738 -18.400  0.00  0.00    +0.121 C 
ATOM     30  C   UNL     1      36.905 -21.751 -17.310  0.00  0.00    +0.020 C 
ATOM     31  C   UNL     1      36.469 -22.428 -16.177  0.00  0.00    +0.003 C 
ATOM     32  C   UNL     1      34.467 -22.975 -17.338  0.00  0.00    +0.099 C 
ATOM     33  C   UNL     1      35.227 -23.054 -16.182  0.00  0.00    +0.021 C 
ENDBRANCH  27  29
ENDBRANCH  24  27
ENDBRANCH   3  24
TORSDOF 7
ENDMDL
MODEL 3
REMARK VINA RESULT:     -11.1      1.725      9.720
REMARK  Name = 447219
REMARK  7 active torsions:
REMARK  status: ('A' for Active; 'I' for Inactive)
REMARK    1  A    between atoms: N_2  and  C_11
REMARK    2  A    between atoms: N_3  and  C_24
REMARK    3  A    between atoms: C_11  and  C_14
REMARK    4  A    between atoms: N_13  and  C_16
REMARK    5  A    between atoms: C_16  and  C_19
REMARK    6  A    between atoms: C_24  and  C_27
REMARK    7  A    between atoms: C_27  and  C_29
REMARK                            x       y       z     vdW  Elec       q    Type
REMARK                         _______ _______ _______ _____ _____    ______ ____
ROOT
ATOM      1  O   UNL     1      34.159 -14.794 -20.834  0.00  0.00    -0.267 OA
ATOM      2  N   UNL     1      34.251 -15.400 -23.096  0.00  0.00    -0.246 N 
ATOM      3  N   UNL     1      32.241 -12.942 -21.208  0.00  0.00    -0.310 N 
ATOM      4  N   UNL     1      32.251 -13.471 -23.492  0.00  0.00    -0.224 NA
ATOM      5  C   UNL     1      33.729 -15.159 -24.359  0.00  0.00    +0.052 C 
ATOM      6  C   UNL     1      32.704 -13.655 -22.286  0.00  0.00    +0.183 C 
ATOM      7  C   UNL     1      33.787 -14.681 -21.995  0.00  0.00    +0.284 C 
ATOM      8  C   UNL     1      32.774 -14.228 -24.500  0.00  0.00    +0.111 C 
ATOM      9  C   UNL     1      34.235 -15.938 -25.539  0.00  0.00    +0.049 C 
ATOM     10  H   UNL     1      32.621 -13.124 -20.319  0.00  0.00    +0.149 HD
ENDROOT
BRANCH   2  11
ATOM     11  C   UNL     1      35.290 -16.408 -22.919  0.00  0.00    +0.183 C 
BRANCH  11  14
ATOM     12  O   UNL     1      34.487 -18.539 -23.725  0.00  0.00    -0.273 OA
ATOM     13  N   UNL     1      34.247 -18.015 -21.474  0.00  0.00    -0.298 N 
ATOM     14  C   UNL     1      34.653 -17.774 -22.778  0.00  0.00    +0.243 C 
ATOM     15  H   UNL     1      34.433 -17.329 -20.793  0.00  0.00    +0.150 HD
BRANCH  13  16
ATOM     16  C   UNL     1      33.565 -19.222 -21.066  0.00  0.00    +0.138 C 
BRANCH  16  19
ATOM     17  F   UNL     1      32.602 -21.399 -19.546  0.00  0.00    -0.203 F 
ATOM     18  N   UNL     1      35.795 -19.902 -20.418  0.00  0.00    -0.244 NA
ATOM     19  C   UNL     1      34.475 -20.157 -20.322  0.00  0.00    +0.106 C 
ATOM     20  C   UNL     1      33.924 -21.199 -19.601  0.00  0.00    +0.155 C 
ATOM     21  C   UNL     1      34.797 -22.045 -18.926  0.00  0.00    +0.033 C 
ATOM     22  C   UNL     1      36.612 -20.745 -19.748  0.00  0.00    +0.099 C 
ATOM     23  C   UNL     1      36.168 -21.821 -18.996  0.00  0.00    +0.023 C 
ENDBRANCH  16  19
ENDBRANCH  13  16
ENDBRANCH  11  14
ENDBRANCH   2  11
BRANCH   3  24
ATOM     24  C   UNL     1      31.225 -11.945 -21.335  0.00  0.00    +0.162 C 
BRANCH  24  27
ATOM     25  F   UNL     1      32.151 -11.455 -19.234  0.00  0.00    -0.196 F 
ATOM     26  F   UNL     1      30.119 -10.794 -19.613  0.00  0.00    -0.196 F 
ATOM     27  C   UNL     1      31.345 -10.926 -20.202  0.00  0.00    +0.316 C 
BRANCH  27  29
ATOM     28  N   UNL     1      32.214  -8.706 -19.780  0.00  0.00    -0.243 NA
ATOM     29  C   UNL     1      31.871  -9.608 -20.716  0.00  0.00    +0.121 C 
ATOM     30  C   UNL     1      31.965  -9.419 -22.077  0.00  0.00    +0.020 C 
ATOM     31  C   UNL     1      32.453  -8.194 -22.518  0.00  0.00    +0.003 C 
ATOM     32  C   UNL     1      32.684  -7.528 -20.247  0.00  0.00    +0.099 C 
ATOM     33  C   UNL     1      32.822  -7.225 -21.592  0.00  0.00    +0.021 C 
ENDBRANCH  27  29
ENDBRANCH  24  27
ENDBRANCH   3  24
TORSDOF 7
ENDMDL
MODEL 4
REMARK VINA RESULT:     -11.0      3.683     11.503
REMARK  Name = 447219
REMARK  7 active torsions:
REMARK  status: ('A' for Active; 'I' for Inactive)
REMARK    1  A    between atoms: N_2  and  C_11
REMARK    2  A    between atoms: N_3  and  C_24
REMARK    3  A    between atoms: C_11  and  C_14
REMARK    4  A    between atoms: N_13  and  C_16
REMARK    5  A    between atoms: C_16  and  C_19
REMARK    6  A    between atoms: C_24  and  C_27
REMARK    7  A    between atoms: C_27  and  C_29
REMARK                            x       y       z     vdW  Elec       q    Type
REMARK                         _______ _______ _______ _____ _____    ______ ____
ROOT
ATOM      1  O   UNL     1      37.010 -19.227 -20.860  0.00  0.00    -0.267 OA
ATOM      2  N   UNL     1      35.485 -20.804 -20.036  0.00  0.00    -0.246 N 
ATOM      3  N   UNL     1      35.096 -17.581 -21.798  0.00  0.00    -0.310 N 
ATOM      4  N   UNL     1      33.486 -19.092 -21.011  0.00  0.00    -0.224 NA
ATOM      5  C   UNL     1      34.142 -21.120 -19.894  0.00  0.00    +0.052 C 
ATOM      6  C   UNL     1      34.730 -18.747 -21.171  0.00  0.00    +0.183 C 
ATOM      7  C   UNL     1      35.867 -19.623 -20.670  0.00  0.00    +0.284 C 
ATOM      8  C   UNL     1      33.222 -20.271 -20.375  0.00  0.00    +0.111 C 
ATOM      9  C   UNL     1      33.740 -22.394 -19.210  0.00  0.00    +0.049 C 
ATOM     10  H   UNL     1      36.053 -17.371 -21.891  0.00  0.00    +0.149 HD
ENDROOT
BRANCH   2  11
ATOM     11  C   UNL     1      36.503 -21.713 -19.521  0.00  0.00    +0.183 C 
BRANCH  11  14
ATOM     12  O   UNL     1      37.297 -20.295 -17.733  0.00  0.00    -0.273 OA
ATOM     13  N   UNL     1      36.514 -22.424 -17.229  0.00  0.00    -0.298 N 
ATOM     14  C   UNL     1      36.808 -21.368 -18.079  0.00  0.00    +0.243 C 
ATOM     15  H   UNL     1      36.123 -23.240 -17.617  0.00  0.00    +0.150 HD
BRANCH  13  16
ATOM     16  C   UNL     1      36.754 -22.387 -15.804  0.00  0.00    +0.138 C 
BRANCH  16  19
ATOM     17  F   UNL     1      34.945 -24.492 -15.283  0.00  0.00    -0.203 F 
ATOM     18  N   UNL     1      38.517 -23.868 -15.058  0.00  0.00    -0.244 NA
ATOM     19  C   UNL     1      37.195 -23.722 -15.275  0.00  0.00    +0.106 C 
ATOM     20  C   UNL     1      36.246 -24.700 -15.046  0.00  0.00    +0.155 C 
ATOM     21  C   UNL     1      36.691 -25.924 -14.557  0.00  0.00    +0.033 C 
ATOM     22  C   UNL     1      38.911 -25.070 -14.582  0.00  0.00    +0.099 C 
ATOM     23  C   UNL     1      38.046 -26.121 -14.318  0.00  0.00    +0.023 C 
ENDBRANCH  16  19
ENDBRANCH  13  16
ENDBRANCH  11  14
ENDBRANCH   2  11
BRANCH   3  24
ATOM     24  C   UNL     1      34.134 -16.662 -22.319  0.00  0.00    +0.162 C 
BRANCH  24  27
ATOM     25  F   UNL     1      34.998 -15.374 -20.557  0.00  0.00    -0.196 F 
ATOM     26  F   UNL     1      32.920 -15.983 -20.427  0.00  0.00    -0.196 F 
ATOM     27  C   UNL     1      33.870 -15.548 -21.307  0.00  0.00    +0.316 C 
BRANCH  27  29
ATOM     28  N   UNL     1      34.142 -13.962 -23.116  0.00  0.00    -0.243 NA
ATOM     29  C   UNL     1      33.455 -14.274 -22.005  0.00  0.00    +0.121 C 
ATOM     30  C   UNL     1      32.424 -13.534 -21.470  0.00  0.00    +0.020 C 
ATOM     31  C   UNL     1      32.066 -12.367 -22.136  0.00  0.00    +0.003 C 
ATOM     32  C   UNL     1      33.766 -12.821 -23.736  0.00  0.00    +0.099 C 
ATOM     33  C   UNL     1      32.744 -11.996 -23.291  0.00  0.00    +0.021 C 
ENDBRANCH  27  29
ENDBRANCH  24  27
ENDBRANCH   3  24
TORSDOF 7
ENDMDL
MODEL 5
REMARK VINA RESULT:     -11.0      2.663     10.049
REMARK  Name = 447219
REMARK  7 active torsions:
REMARK  status: ('A' for Active; 'I' for Inactive)
REMARK    1  A    between atoms: N_2  and  C_11
REMARK    2  A    between atoms: N_3  and  C_24
REMARK    3  A    between atoms: C_11  and  C_14
REMARK    4  A    between atoms: N_13  and  C_16
REMARK    5  A    between atoms: C_16  and  C_19
REMARK    6  A    between atoms: C_24  and  C_27
REMARK    7  A    between atoms: C_27  and  C_29
REMARK                            x       y       z     vdW  Elec       q    Type
REMARK                         _______ _______ _______ _____ _____    ______ ____
ROOT
ATOM      1  O   UNL     1      35.252 -16.747 -20.412  0.00  0.00    -0.267 OA
ATOM      2  N   UNL     1      35.194 -18.233 -22.222  0.00  0.00    -0.246 N 
ATOM      3  N   UNL     1      34.373 -14.651 -21.856  0.00  0.00    -0.310 N 
ATOM      4  N   UNL     1      34.276 -16.053 -23.732  0.00  0.00    -0.224 NA
ATOM      5  C   UNL     1      34.904 -18.369 -23.572  0.00  0.00    +0.052 C 
ATOM      6  C   UNL     1      34.533 -15.868 -22.470  0.00  0.00    +0.183 C 
ATOM      7  C   UNL     1      35.034 -17.002 -21.589  0.00  0.00    +0.284 C 
ATOM      8  C   UNL     1      34.468 -17.300 -24.253  0.00  0.00    +0.111 C 
ATOM      9  C   UNL     1      35.079 -19.700 -24.245  0.00  0.00    +0.049 C 
ATOM     10  H   UNL     1      34.583 -14.570 -20.898  0.00  0.00    +0.149 HD
ENDROOT
BRANCH   2  11
ATOM     11  C   UNL     1      35.670 -19.384 -21.461  0.00  0.00    +0.183 C 
BRANCH  11  14
ATOM     12  O   UNL     1      33.329 -19.736 -20.981  0.00  0.00    -0.273 OA
ATOM     13  N   UNL     1      34.908 -21.142 -20.018  0.00  0.00    -0.298 N 
ATOM     14  C   UNL     1      34.494 -20.092 -20.824  0.00  0.00    +0.243 C 
ATOM     15  H   UNL     1      35.871 -21.340 -19.966  0.00  0.00    +0.150 HD
BRANCH  13  16
ATOM     16  C   UNL     1      33.997 -21.959 -19.249  0.00  0.00    +0.138 C 
BRANCH  16  19
ATOM     17  F   UNL     1      32.547 -23.401 -17.300  0.00  0.00    -0.203 F 
ATOM     18  N   UNL     1      35.909 -22.109 -17.773  0.00  0.00    -0.244 NA
ATOM     19  C   UNL     1      34.611 -22.421 -17.958  0.00  0.00    +0.106 C 
ATOM     20  C   UNL     1      33.834 -23.122 -17.057  0.00  0.00    +0.155 C 
ATOM     21  C   UNL     1      34.436 -23.535 -15.873  0.00  0.00    +0.033 C 
ATOM     22  C   UNL     1      36.460 -22.526 -16.611  0.00  0.00    +0.099 C 
ATOM     23  C   UNL     1      35.774 -23.236 -15.639  0.00  0.00    +0.023 C 
ENDBRANCH  16  19
ENDBRANCH  13  16
ENDBRANCH  11  14
ENDBRANCH   2  11
BRANCH   3  24
ATOM     24  C   UNL     1      33.910 -13.497 -22.561  0.00  0.00    +0.162 C 
BRANCH  24  27
ATOM     25  F   UNL     1      31.923 -14.467 -21.774  0.00  0.00    -0.196 F 
ATOM     26  F   UNL     1      31.818 -13.316 -23.611  0.00  0.00    -0.196 F 
ATOM     27  C   UNL     1      32.402 -13.338 -22.376  0.00  0.00    +0.316 C 
BRANCH  27  29
ATOM     28  N   UNL     1      32.071 -10.942 -22.268  0.00  0.00    -0.243 NA
ATOM     29  C   UNL     1      32.086 -12.095 -21.578  0.00  0.00    +0.121 C 
ATOM     30  C   UNL     1      31.838 -12.222 -20.229  0.00  0.00    +0.020 C 
ATOM     31  C   UNL     1      31.550 -11.059 -19.524  0.00  0.00    +0.003 C 
ATOM     32  C   UNL     1      31.787  -9.833 -21.548  0.00  0.00    +0.099 C 
ATOM     33  C   UNL     1      31.522  -9.837 -20.187  0.00  0.00    +0.021 C 
ENDBRANCH  27  29
ENDBRANCH  24  27
ENDBRANCH   3  24
TORSDOF 7
ENDMDL
MODEL 6
REMARK VINA RESULT:     -10.9      9.713     12.975
REMARK  Name = 447219
REMARK  7 active torsions:
REMARK  status: ('A' for Active; 'I' for Inactive)
REMARK    1  A    between atoms: N_2  and  C_11
REMARK    2  A    between atoms: N_3  and  C_24
REMARK    3  A    between atoms: C_11  and  C_14
REMARK    4  A    between atoms: N_13  and  C_16
REMARK    5  A    between atoms: C_16  and  C_19
REMARK    6  A    between atoms: C_24  and  C_27
REMARK    7  A    between atoms: C_27  and  C_29
REMARK                            x       y       z     vdW  Elec       q    Type
REMARK                         _______ _______ _______ _____ _____    ______ ____
ROOT
ATOM      1  O   UNL     1      35.312 -25.576 -15.520  0.00  0.00    -0.267 OA
ATOM      2  N   UNL     1      36.676 -24.784 -13.788  0.00  0.00    -0.246 N 
ATOM      3  N   UNL     1      33.017 -25.050 -14.213  0.00  0.00    -0.310 N 
ATOM      4  N   UNL     1      34.288 -24.233 -12.421  0.00  0.00    -0.224 NA
ATOM      5  C   UNL     1      36.691 -24.224 -12.518  0.00  0.00    +0.052 C 
ATOM      6  C   UNL     1      34.215 -24.757 -13.609  0.00  0.00    +0.183 C 
ATOM      7  C   UNL     1      35.465 -25.084 -14.410  0.00  0.00    +0.284 C 
ATOM      8  C   UNL     1      35.525 -23.978 -11.904  0.00  0.00    +0.111 C 
ATOM      9  C   UNL     1      38.001 -23.904 -11.856  0.00  0.00    +0.049 C 
ATOM     10  H   UNL     1      33.023 -25.447 -15.113  0.00  0.00    +0.149 HD
ENDROOT
BRANCH   2  11
ATOM     11  C   UNL     1      37.933 -25.060 -14.475  0.00  0.00    +0.183 C 
BRANCH  11  14
ATOM     12  O   UNL     1      39.389 -23.605 -15.740  0.00  0.00    -0.273 OA
ATOM     13  N   UNL     1      37.089 -23.305 -15.876  0.00  0.00    -0.298 N 
ATOM     14  C   UNL     1      38.244 -23.933 -15.436  0.00  0.00    +0.243 C 
ATOM     15  H   UNL     1      36.221 -23.653 -15.567  0.00  0.00    +0.150 HD
BRANCH  13  16
ATOM     16  C   UNL     1      37.094 -22.164 -16.763  0.00  0.00    +0.138 C 
BRANCH  16  19
ATOM     17  F   UNL     1      37.057 -20.798 -19.235  0.00  0.00    -0.203 F 
ATOM     18  N   UNL     1      34.812 -22.826 -17.223  0.00  0.00    -0.244 NA
ATOM     19  C   UNL     1      35.890 -22.146 -17.662  0.00  0.00    +0.106 C 
ATOM     20  C   UNL     1      35.954 -21.454 -18.856  0.00  0.00    +0.155 C 
ATOM     21  C   UNL     1      34.821 -21.461 -19.663  0.00  0.00    +0.033 C 
ATOM     22  C   UNL     1      33.730 -22.809 -18.034  0.00  0.00    +0.099 C 
ATOM     23  C   UNL     1      33.684 -22.149 -19.251  0.00  0.00    +0.023 C 
ENDBRANCH  16  19
ENDBRANCH  13  16
ENDBRANCH  11  14
ENDBRANCH   2  11
BRANCH   3  24
ATOM     24  C   UNL     1      31.762 -24.798 -13.578  0.00  0.00    +0.162 C 
BRANCH  24  27
ATOM     25  F   UNL     1      32.316 -22.677 -14.418  0.00  0.00    -0.196 F 
ATOM     26  F   UNL     1      30.880 -22.768 -12.794  0.00  0.00    -0.196 F 
ATOM     27  C   UNL     1      31.260 -23.402 -13.943  0.00  0.00    +0.316 C 
BRANCH  27  29
ATOM     28  N   UNL     1      29.953 -24.674 -15.535  0.00  0.00    -0.243 NA
ATOM     29  C   UNL     1      30.133 -23.480 -14.945  0.00  0.00    +0.121 C 
ATOM     30  C   UNL     1      29.382 -22.351 -15.185  0.00  0.00    +0.020 C 
ATOM     31  C   UNL     1      28.352 -22.456 -16.113  0.00  0.00    +0.003 C 
ATOM     32  C   UNL     1      28.943 -24.738 -16.431  0.00  0.00    +0.099 C 
ATOM     33  C   UNL     1      28.121 -23.669 -16.753  0.00  0.00    +0.021 C 
ENDBRANCH  27  29
ENDBRANCH  24  27
ENDBRANCH   3  24
TORSDOF 7
ENDMDL
MODEL 7
REMARK VINA RESULT:     -10.9      1.818      2.586
REMARK  Name = 447219
REMARK  7 active torsions:
REMARK  status: ('A' for Active; 'I' for Inactive)
REMARK    1  A    between atoms: N_2  and  C_11
REMARK    2  A    between atoms: N_3  and  C_24
REMARK    3  A    between atoms: C_11  and  C_14
REMARK    4  A    between atoms: N_13  and  C_16
REMARK    5  A    between atoms: C_16  and  C_19
REMARK    6  A    between atoms: C_24  and  C_27
REMARK    7  A    between atoms: C_27  and  C_29
REMARK                            x       y       z     vdW  Elec       q    Type
REMARK                         _______ _______ _______ _____ _____    ______ ____
ROOT
ATOM      1  O   UNL     1      34.187 -14.528 -24.144  0.00  0.00    -0.267 OA
ATOM      2  N   UNL     1      32.808 -13.195 -22.799  0.00  0.00    -0.246 N 
ATOM      3  N   UNL     1      34.845 -16.204 -22.142  0.00  0.00    -0.310 N 
ATOM      4  N   UNL     1      33.489 -14.939 -20.708  0.00  0.00    -0.224 NA
ATOM      5  C   UNL     1      32.300 -13.012 -21.521  0.00  0.00    +0.052 C 
ATOM      6  C   UNL     1      33.994 -15.157 -21.887  0.00  0.00    +0.183 C 
ATOM      7  C   UNL     1      33.671 -14.255 -23.067  0.00  0.00    +0.284 C 
ATOM      8  C   UNL     1      32.653 -13.871 -20.553  0.00  0.00    +0.111 C 
ATOM      9  C   UNL     1      31.370 -11.867 -21.241  0.00  0.00    +0.049 C 
ATOM     10  H   UNL     1      35.197 -16.320 -23.053  0.00  0.00    +0.149 HD
ENDROOT
BRANCH   2  11
ATOM     11  C   UNL     1      32.437 -12.272 -23.867  0.00  0.00    +0.183 C 
BRANCH  11  14
ATOM     12  O   UNL     1      34.585 -11.333 -24.448  0.00  0.00    -0.273 OA
ATOM     13  N   UNL     1      33.006  -9.989 -23.400  0.00  0.00    -0.298 N 
ATOM     14  C   UNL     1      33.467 -11.169 -23.965  0.00  0.00    +0.243 C 
ATOM     15  H   UNL     1      32.089  -9.970 -23.041  0.00  0.00    +0.150 HD
BRANCH  13  16
ATOM     16  C   UNL     1      33.803  -8.786 -23.312  0.00  0.00    +0.138 C 
BRANCH  16  19
ATOM     17  F   UNL     1      33.102  -8.188 -20.642  0.00  0.00    -0.203 F 
ATOM     18  N   UNL     1      32.576  -6.803 -23.959  0.00  0.00    -0.244 NA
ATOM     19  C   UNL     1      32.974  -7.590 -22.939  0.00  0.00    +0.106 C 
ATOM     20  C   UNL     1      32.675  -7.367 -21.609  0.00  0.00    +0.155 C 
ATOM     21  C   UNL     1      31.907  -6.250 -21.302  0.00  0.00    +0.033 C 
ATOM     22  C   UNL     1      31.831  -5.727 -23.621  0.00  0.00    +0.099 C 
ATOM     23  C   UNL     1      31.473  -5.408 -22.321  0.00  0.00    +0.023 C 
ENDBRANCH  16  19
ENDBRANCH  13  16
ENDBRANCH  11  14
ENDBRANCH   2  11
BRANCH   3  24
ATOM     24  C   UNL     1      35.236 -17.131 -21.127  0.00  0.00    +0.162 C 
BRANCH  24  27
ATOM     25  F   UNL     1      36.864 -18.655 -21.860  0.00  0.00    -0.196 F 
ATOM     26  F   UNL     1      35.041 -18.496 -23.027  0.00  0.00    -0.196 F 
ATOM     27  C   UNL     1      35.511 -18.502 -21.745  0.00  0.00    +0.316 C 
BRANCH  27  29
ATOM     28  N   UNL     1      35.739 -20.346 -20.194  0.00  0.00    -0.243 NA
ATOM     29  C   UNL     1      34.887 -19.600 -20.918  0.00  0.00    +0.121 C 
ATOM     30  C   UNL     1      33.520 -19.762 -20.958  0.00  0.00    +0.020 C 
ATOM     31  C   UNL     1      32.977 -20.783 -20.185  0.00  0.00    +0.003 C 
ATOM     32  C   UNL     1      35.174 -21.329 -19.455  0.00  0.00    +0.099 C 
ATOM     33  C   UNL     1      33.813 -21.586 -19.417  0.00  0.00    +0.021 C 
ENDBRANCH  27  29
ENDBRANCH  24  27
ENDBRANCH   3  24
TORSDOF 7
ENDMDL
MODEL 8
REMARK VINA RESULT:     -10.8      4.387     11.550
REMARK  Name = 447219
REMARK  7 active torsions:
REMARK  status: ('A' for Active; 'I' for Inactive)
REMARK    1  A    between atoms: N_2  and  C_11
REMARK    2  A    between atoms: N_3  and  C_24
REMARK    3  A    between atoms: C_11  and  C_14
REMARK    4  A    between atoms: N_13  and  C_16
REMARK    5  A    between atoms: C_16  and  C_19
REMARK    6  A    between atoms: C_24  and  C_27
REMARK    7  A    between atoms: C_27  and  C_29
REMARK                            x       y       z     vdW  Elec       q    Type
REMARK                         _______ _______ _______ _____ _____    ______ ____
ROOT
ATOM      1  O   UNL     1      37.161 -19.486 -20.803  0.00  0.00    -0.267 OA
ATOM      2  N   UNL     1      35.488 -20.897 -19.964  0.00  0.00    -0.246 N 
ATOM      3  N   UNL     1      35.416 -17.731 -21.865  0.00  0.00    -0.310 N 
ATOM      4  N   UNL     1      33.666 -19.070 -21.068  0.00  0.00    -0.224 NA
ATOM      5  C   UNL     1      34.120 -21.095 -19.851  0.00  0.00    +0.052 C 
ATOM      6  C   UNL     1      34.938 -18.834 -21.204  0.00  0.00    +0.183 C 
ATOM      7  C   UNL     1      35.984 -19.779 -20.633  0.00  0.00    +0.284 C 
ATOM      8  C   UNL     1      33.287 -20.195 -20.394  0.00  0.00    +0.111 C 
ATOM      9  C   UNL     1      33.595 -22.302 -19.129  0.00  0.00    +0.049 C 
ATOM     10  H   UNL     1      36.390 -17.604 -21.937  0.00  0.00    +0.149 HD
ENDROOT
BRANCH   2  11
ATOM     11  C   UNL     1      36.413 -21.863 -19.381  0.00  0.00    +0.183 C 
BRANCH  11  14
ATOM     12  O   UNL     1      37.214 -20.431 -17.607  0.00  0.00    -0.273 OA
ATOM     13  N   UNL     1      36.331 -22.513 -17.073  0.00  0.00    -0.298 N 
ATOM     14  C   UNL     1      36.691 -21.493 -17.940  0.00  0.00    +0.243 C 
ATOM     15  H   UNL     1      35.918 -23.323 -17.451  0.00  0.00    +0.150 HD
BRANCH  13  16
ATOM     16  C   UNL     1      36.533 -22.449 -15.643  0.00  0.00    +0.138 C 
BRANCH  16  19
ATOM     17  F   UNL     1      34.856 -24.611 -14.941  0.00  0.00    -0.203 F 
ATOM     18  N   UNL     1      38.402 -23.820 -14.949  0.00  0.00    -0.244 NA
ATOM     19  C   UNL     1      37.064 -23.741 -15.093  0.00  0.00    +0.106 C 
ATOM     20  C   UNL     1      36.177 -24.751 -14.774  0.00  0.00    +0.155 C 
ATOM     21  C   UNL     1      36.705 -25.934 -14.267  0.00  0.00    +0.033 C 
ATOM     22  C   UNL     1      38.878 -24.985 -14.454  0.00  0.00    +0.099 C 
ATOM     23  C   UNL     1      38.080 -26.061 -14.102  0.00  0.00    +0.023 C 
ENDBRANCH  16  19
ENDBRANCH  13  16
ENDBRANCH  11  14
ENDBRANCH   2  11
BRANCH   3  24
ATOM     24  C   UNL     1      34.548 -16.759 -22.453  0.00  0.00    +0.162 C 
BRANCH  24  27
ATOM     25  F   UNL     1      33.744 -18.038 -24.249  0.00  0.00    -0.196 F 
ATOM     26  F   UNL     1      35.764 -17.260 -24.398  0.00  0.00    -0.196 F 
ATOM     27  C   UNL     1      34.507 -16.940 -23.969  0.00  0.00    +0.316 C 
BRANCH  27  29
ATOM     28  N   UNL     1      33.695 -15.816 -25.954  0.00  0.00    -0.243 NA
ATOM     29  C   UNL     1      33.977 -15.698 -24.645  0.00  0.00    +0.121 C 
ATOM     30  C   UNL     1      33.821 -14.553 -23.896  0.00  0.00    +0.020 C 
ATOM     31  C   UNL     1      33.331 -13.427 -24.549  0.00  0.00    +0.003 C 
ATOM     32  C   UNL     1      33.221 -14.701 -26.554  0.00  0.00    +0.099 C 
ATOM     33  C   UNL     1      33.023 -13.494 -25.903  0.00  0.00    +0.021 C 
ENDBRANCH  27  29
ENDBRANCH  24  27
ENDBRANCH   3  24
TORSDOF 7
ENDMDL
MODEL 9
REMARK VINA RESULT:     -10.8      7.135     12.321
REMARK  Name = 447219
REMARK  7 active torsions:
REMARK  status: ('A' for Active; 'I' for Inactive)
REMARK    1  A    between atoms: N_2  and  C_11
REMARK    2  A    between atoms: N_3  and  C_24
REMARK    3  A    between atoms: C_11  and  C_14
REMARK    4  A    between atoms: N_13  and  C_16
REMARK    5  A    between atoms: C_16  and  C_19
REMARK    6  A    between atoms: C_24  and  C_27
REMARK    7  A    between atoms: C_27  and  C_29
REMARK                            x       y       z     vdW  Elec       q    Type
REMARK                         _______ _______ _______ _____ _____    ______ ____
ROOT
ATOM      1  O   UNL     1      34.140 -23.940 -16.404  0.00  0.00    -0.267 OA
ATOM      2  N   UNL     1      35.621 -24.241 -14.613  0.00  0.00    -0.246 N 
ATOM      3  N   UNL     1      35.729 -22.173 -17.672  0.00  0.00    -0.310 N 
ATOM      4  N   UNL     1      37.281 -22.401 -15.930  0.00  0.00    -0.224 NA
ATOM      5  C   UNL     1      36.846 -23.872 -14.077  0.00  0.00    +0.052 C 
ATOM      6  C   UNL     1      36.143 -22.712 -16.479  0.00  0.00    +0.183 C 
ATOM      7  C   UNL     1      35.191 -23.700 -15.824  0.00  0.00    +0.284 C 
ATOM      8  C   UNL     1      37.605 -22.989 -14.742  0.00  0.00    +0.111 C 
ATOM      9  C   UNL     1      37.300 -24.459 -12.772  0.00  0.00    +0.049 C 
ATOM     10  H   UNL     1      34.857 -22.446 -18.039  0.00  0.00    +0.149 HD
ENDROOT
BRANCH   2  11
ATOM     11  C   UNL     1      34.778 -25.199 -13.907  0.00  0.00    +0.183 C 
BRANCH  11  14
ATOM     12  O   UNL     1      33.577 -23.526 -12.644  0.00  0.00    -0.273 OA
ATOM     13  N   UNL     1      32.381 -25.129 -13.825  0.00  0.00    -0.298 N 
ATOM     14  C   UNL     1      33.538 -24.501 -13.391  0.00  0.00    +0.243 C 
ATOM     15  H   UNL     1      32.467 -25.906 -14.425  0.00  0.00    +0.150 HD
BRANCH  13  16
ATOM     16  C   UNL     1      31.054 -24.703 -13.442  0.00  0.00    +0.138 C 
BRANCH  16  19
ATOM     17  F   UNL     1      31.489 -22.139 -14.544  0.00  0.00    -0.203 F 
ATOM     18  N   UNL     1      29.339 -25.009 -15.121  0.00  0.00    -0.244 NA
ATOM     19  C   UNL     1      30.272 -24.180 -14.614  0.00  0.00    +0.106 C 
ATOM     20  C   UNL     1      30.546 -22.914 -15.094  0.00  0.00    +0.155 C 
ATOM     21  C   UNL     1      29.804 -22.464 -16.180  0.00  0.00    +0.033 C 
ATOM     22  C   UNL     1      28.637 -24.537 -16.176  0.00  0.00    +0.099 C 
ATOM     23  C   UNL     1      28.829 -23.285 -16.737  0.00  0.00    +0.023 C 
ENDBRANCH  16  19
ENDBRANCH  13  16
ENDBRANCH  11  14
ENDBRANCH   2  11
BRANCH   3  24
ATOM     24  C   UNL     1      36.521 -21.231 -18.398  0.00  0.00    +0.162 C 
BRANCH  24  27
ATOM     25  F   UNL     1      35.567 -22.525 -20.108  0.00  0.00    -0.196 F 
ATOM     26  F   UNL     1      37.446 -21.528 -20.535  0.00  0.00    -0.196 F 
ATOM     27  C   UNL     1      36.250 -21.361 -19.896  0.00  0.00    +0.316 C 
BRANCH  27  29
ATOM     28  N   UNL     1      36.239 -19.083 -20.716  0.00  0.00    -0.243 NA
ATOM     29  C   UNL     1      35.495 -20.160 -20.413  0.00  0.00    +0.121 C 
ATOM     30  C   UNL     1      34.125 -20.245 -20.538  0.00  0.00    +0.020 C 
ATOM     31  C   UNL     1      33.460 -19.122 -21.017  0.00  0.00    +0.003 C 
ATOM     32  C   UNL     1      35.556 -18.011 -21.179  0.00  0.00    +0.099 C 
ATOM     33  C   UNL     1      34.181 -17.980 -21.346  0.00  0.00    +0.021 C 
ENDBRANCH  27  29
ENDBRANCH  24  27
ENDBRANCH   3  24
TORSDOF 7
ENDMDL
