MODEL 1
REMARK VINA RESULT:      -4.8      0.000      0.000
REMARK  Name = 10413
REMARK  5 active torsions:
REMARK  status: ('A' for Active; 'I' for Inactive)
REMARK    1  A    between atoms: C_1  and  C_3
REMARK    2  A    between atoms: C_1  and  C_6
REMARK    3  A    between atoms: C_3  and  O_4
REMARK    4  A    between atoms: C_6  and  C_7
REMARK    5  A    between atoms: C_7  and  O_8
REMARK                            x       y       z     vdW  Elec       q    Type
REMARK                         _______ _______ _______ _____ _____    ______ ____
ROOT
ATOM      1  C   UNL     1      39.042 -25.512 -14.110  0.00  0.00    +0.112 C 
ENDROOT
BRANCH   1   3
ATOM      2  O   UNL     1      41.224 -26.594 -14.101  0.00  0.00    -0.250 OA
ATOM      3  C   UNL     1      40.317 -26.051 -14.718  0.00  0.00    +0.314 C 
BRANCH   3   4
ATOM      4  O   UNL     1      40.344 -25.858 -16.062  0.00  0.00    -0.480 OA
ATOM      5  H   UNL     1      39.929 -26.473 -16.633  0.00  0.00    +0.295 HD
ENDBRANCH   3   4
ENDBRANCH   1   3
BRANCH   1   6
ATOM      6  C   UNL     1      37.916 -26.547 -14.134  0.00  0.00    +0.043 C 
BRANCH   6   7
ATOM      7  C   UNL     1      36.852 -26.218 -15.175  0.00  0.00    +0.138 C 
BRANCH   7   8
ATOM      8  O   UNL     1      36.857 -27.202 -16.199  0.00  0.00    -0.382 OA
ATOM      9  H   UNL     1      36.481 -26.825 -17.010  0.00  0.00    +0.210 HD
ENDBRANCH   7   8
ENDBRANCH   6   7
ENDBRANCH   1   6
TORSDOF 5
ENDMDL
MODEL 2
REMARK VINA RESULT:      -4.6      1.930      2.100
REMARK  Name = 10413
REMARK  5 active torsions:
REMARK  status: ('A' for Active; 'I' for Inactive)
REMARK    1  A    between atoms: C_1  and  C_3
REMARK    2  A    between atoms: C_1  and  C_6
REMARK    3  A    between atoms: C_3  and  O_4
REMARK    4  A    between atoms: C_6  and  C_7
REMARK    5  A    between atoms: C_7  and  O_8
REMARK                            x       y       z     vdW  Elec       q    Type
REMARK                         _______ _______ _______ _____ _____    ______ ____
ROOT
ATOM      1  C   UNL     1      39.000 -25.261 -14.491  0.00  0.00    +0.112 C 
ENDROOT
BRANCH   1   3
ATOM      2  O   UNL     1      41.003 -26.541 -13.961  0.00  0.00    -0.250 OA
ATOM      3  C   UNL     1      40.285 -25.997 -14.790  0.00  0.00    +0.314 C 
BRANCH   3   4
ATOM      4  O   UNL     1      40.564 -25.986 -16.120  0.00  0.00    -0.480 OA
ATOM      5  H   UNL     1      39.872 -26.059 -16.745  0.00  0.00    +0.295 HD
ENDBRANCH   3   4
ENDBRANCH   1   3
BRANCH   1   6
ATOM      6  C   UNL     1      38.567 -25.438 -13.034  0.00  0.00    +0.043 C 
BRANCH   6   7
ATOM      7  C   UNL     1      37.279 -26.242 -12.909  0.00  0.00    +0.138 C 
BRANCH   7   8
ATOM      8  O   UNL     1      36.716 -26.057 -11.618  0.00  0.00    -0.382 OA
ATOM      9  H   UNL     1      36.091 -25.315 -11.641  0.00  0.00    +0.210 HD
ENDBRANCH   7   8
ENDBRANCH   6   7
ENDBRANCH   1   6
TORSDOF 5
ENDMDL
MODEL 3
REMARK VINA RESULT:      -4.3      9.731     10.986
REMARK  Name = 10413
REMARK  5 active torsions:
REMARK  status: ('A' for Active; 'I' for Inactive)
REMARK    1  A    between atoms: C_1  and  C_3
REMARK    2  A    between atoms: C_1  and  C_6
REMARK    3  A    between atoms: C_3  and  O_4
REMARK    4  A    between atoms: C_6  and  C_7
REMARK    5  A    between atoms: C_7  and  O_8
REMARK                            x       y       z     vdW  Elec       q    Type
REMARK                         _______ _______ _______ _____ _____    ______ ____
ROOT
ATOM      1  C   UNL     1      28.987 -23.035 -15.671  0.00  0.00    +0.112 C 
ENDROOT
BRANCH   1   3
ATOM      2  O   UNL     1      27.711 -23.926 -17.545  0.00  0.00    -0.250 OA
ATOM      3  C   UNL     1      28.059 -22.971 -16.863  0.00  0.00    +0.314 C 
BRANCH   3   4
ATOM      4  O   UNL     1      27.644 -21.700 -17.101  0.00  0.00    -0.480 OA
ATOM      5  H   UNL     1      28.079 -20.980 -16.690  0.00  0.00    +0.295 HD
ENDBRANCH   3   4
ENDBRANCH   1   3
BRANCH   1   6
ATOM      6  C   UNL     1      30.065 -24.106 -15.844  0.00  0.00    +0.043 C 
BRANCH   6   7
ATOM      7  C   UNL     1      30.086 -25.096 -14.686  0.00  0.00    +0.138 C 
BRANCH   7   8
ATOM      8  O   UNL     1      28.761 -25.496 -14.366  0.00  0.00    -0.382 OA
ATOM      9  H   UNL     1      28.732 -25.813 -13.450  0.00  0.00    +0.210 HD
ENDBRANCH   7   8
ENDBRANCH   6   7
ENDBRANCH   1   6
TORSDOF 5
ENDMDL
MODEL 4
REMARK VINA RESULT:      -4.3      3.074      4.115
REMARK  Name = 10413
REMARK  5 active torsions:
REMARK  status: ('A' for Active; 'I' for Inactive)
REMARK    1  A    between atoms: C_1  and  C_3
REMARK    2  A    between atoms: C_1  and  C_6
REMARK    3  A    between atoms: C_3  and  O_4
REMARK    4  A    between atoms: C_6  and  C_7
REMARK    5  A    between atoms: C_7  and  O_8
REMARK                            x       y       z     vdW  Elec       q    Type
REMARK                         _______ _______ _______ _____ _____    ______ ____
ROOT
ATOM      1  C   UNL     1      38.092 -24.521 -13.358  0.00  0.00    +0.112 C 
ENDROOT
BRANCH   1   3
ATOM      2  O   UNL     1      38.550 -22.836 -11.660  0.00  0.00    -0.250 OA
ATOM      3  C   UNL     1      38.048 -23.906 -11.978  0.00  0.00    +0.314 C 
BRANCH   3   4
ATOM      4  O   UNL     1      37.373 -24.697 -11.104  0.00  0.00    -0.480 OA
ATOM      5  H   UNL     1      37.312 -24.455 -10.202  0.00  0.00    +0.295 HD
ENDBRANCH   3   4
ENDBRANCH   1   3
BRANCH   1   6
ATOM      6  C   UNL     1      39.029 -25.728 -13.415  0.00  0.00    +0.043 C 
BRANCH   6   7
ATOM      7  C   UNL     1      40.167 -25.529 -14.409  0.00  0.00    +0.138 C 
BRANCH   7   8
ATOM      8  O   UNL     1      41.126 -26.566 -14.262  0.00  0.00    -0.382 OA
ATOM      9  H   UNL     1      41.662 -26.627 -15.069  0.00  0.00    +0.210 HD
ENDBRANCH   7   8
ENDBRANCH   6   7
ENDBRANCH   1   6
TORSDOF 5
ENDMDL
MODEL 5
REMARK VINA RESULT:      -4.3      8.653     10.685
REMARK  Name = 10413
REMARK  5 active torsions:
REMARK  status: ('A' for Active; 'I' for Inactive)
REMARK    1  A    between atoms: C_1  and  C_3
REMARK    2  A    between atoms: C_1  and  C_6
REMARK    3  A    between atoms: C_3  and  O_4
REMARK    4  A    between atoms: C_6  and  C_7
REMARK    5  A    between atoms: C_7  and  O_8
REMARK                            x       y       z     vdW  Elec       q    Type
REMARK                         _______ _______ _______ _____ _____    ______ ____
ROOT
ATOM      1  C   UNL     1      28.954 -23.773 -15.709  0.00  0.00    +0.112 C 
ENDROOT
BRANCH   1   3
ATOM      2  O   UNL     1      28.284 -21.915 -17.134  0.00  0.00    -0.250 OA
ATOM      3  C   UNL     1      28.262 -23.112 -16.879  0.00  0.00    +0.314 C 
BRANCH   3   4
ATOM      4  O   UNL     1      27.591 -24.019 -17.635  0.00  0.00    -0.480 OA
ATOM      5  H   UNL     1      27.024 -24.643 -17.227  0.00  0.00    +0.295 HD
ENDBRANCH   3   4
ENDBRANCH   1   3
BRANCH   1   6
ATOM      6  C   UNL     1      30.209 -23.009 -15.282  0.00  0.00    +0.043 C 
BRANCH   6   7
ATOM      7  C   UNL     1      31.402 -23.311 -16.180  0.00  0.00    +0.138 C 
BRANCH   7   8
ATOM      8  O   UNL     1      31.389 -22.448 -17.308  0.00  0.00    -0.382 OA
ATOM      9  H   UNL     1      32.274 -22.423 -17.705  0.00  0.00    +0.210 HD
ENDBRANCH   7   8
ENDBRANCH   6   7
ENDBRANCH   1   6
TORSDOF 5
ENDMDL
MODEL 6
REMARK VINA RESULT:      -4.2      1.323      3.730
REMARK  Name = 10413
REMARK  5 active torsions:
REMARK  status: ('A' for Active; 'I' for Inactive)
REMARK    1  A    between atoms: C_1  and  C_3
REMARK    2  A    between atoms: C_1  and  C_6
REMARK    3  A    between atoms: C_3  and  O_4
REMARK    4  A    between atoms: C_6  and  C_7
REMARK    5  A    between atoms: C_7  and  O_8
REMARK                            x       y       z     vdW  Elec       q    Type
REMARK                         _______ _______ _______ _____ _____    ______ ____
ROOT
ATOM      1  C   UNL     1      37.882 -25.352 -14.851  0.00  0.00    +0.112 C 
ENDROOT
BRANCH   1   3
ATOM      2  O   UNL     1      36.765 -27.175 -16.018  0.00  0.00    -0.250 OA
ATOM      3  C   UNL     1      37.104 -26.643 -14.970  0.00  0.00    +0.314 C 
BRANCH   3   4
ATOM      4  O   UNL     1      36.812 -27.159 -13.748  0.00  0.00    -0.480 OA
ATOM      5  H   UNL     1      36.630 -26.589 -13.028  0.00  0.00    +0.295 HD
ENDBRANCH   3   4
ENDBRANCH   1   3
BRANCH   1   6
ATOM      6  C   UNL     1      38.939 -25.423 -13.748  0.00  0.00    +0.043 C 
BRANCH   6   7
ATOM      7  C   UNL     1      40.290 -25.894 -14.273  0.00  0.00    +0.138 C 
BRANCH   7   8
ATOM      8  O   UNL     1      41.080 -24.775 -14.649  0.00  0.00    -0.382 OA
ATOM      9  H   UNL     1      41.663 -24.529 -13.914  0.00  0.00    +0.210 HD
ENDBRANCH   7   8
ENDBRANCH   6   7
ENDBRANCH   1   6
TORSDOF 5
ENDMDL
MODEL 7
REMARK VINA RESULT:      -4.2     11.457     12.291
REMARK  Name = 10413
REMARK  5 active torsions:
REMARK  status: ('A' for Active; 'I' for Inactive)
REMARK    1  A    between atoms: C_1  and  C_3
REMARK    2  A    between atoms: C_1  and  C_6
REMARK    3  A    between atoms: C_3  and  O_4
REMARK    4  A    between atoms: C_6  and  C_7
REMARK    5  A    between atoms: C_7  and  O_8
REMARK                            x       y       z     vdW  Elec       q    Type
REMARK                         _______ _______ _______ _____ _____    ______ ____
ROOT
ATOM      1  C   UNL     1      41.824 -15.474 -17.663  0.00  0.00    +0.112 C 
ENDROOT
BRANCH   1   3
ATOM      2  O   UNL     1      42.450 -16.710 -15.659  0.00  0.00    -0.250 OA
ATOM      3  C   UNL     1      41.655 -15.993 -16.253  0.00  0.00    +0.314 C 
BRANCH   3   4
ATOM      4  O   UNL     1      40.488 -15.565 -15.704  0.00  0.00    -0.480 OA
ATOM      5  H   UNL     1      40.317 -14.649 -15.621  0.00  0.00    +0.295 HD
ENDBRANCH   3   4
ENDBRANCH   1   3
BRANCH   1   6
ATOM      6  C   UNL     1      41.216 -14.080 -17.834  0.00  0.00    +0.043 C 
BRANCH   6   7
ATOM      7  C   UNL     1      42.155 -12.979 -17.359  0.00  0.00    +0.138 C 
BRANCH   7   8
ATOM      8  O   UNL     1      41.960 -12.742 -15.972  0.00  0.00    -0.382 OA
ATOM      9  H   UNL     1      41.298 -12.042 -15.854  0.00  0.00    +0.210 HD
ENDBRANCH   7   8
ENDBRANCH   6   7
ENDBRANCH   1   6
TORSDOF 5
ENDMDL
MODEL 8
REMARK VINA RESULT:      -4.2      2.309      3.774
REMARK  Name = 10413
REMARK  5 active torsions:
REMARK  status: ('A' for Active; 'I' for Inactive)
REMARK    1  A    between atoms: C_1  and  C_3
REMARK    2  A    between atoms: C_1  and  C_6
REMARK    3  A    between atoms: C_3  and  O_4
REMARK    4  A    between atoms: C_6  and  C_7
REMARK    5  A    between atoms: C_7  and  O_8
REMARK                            x       y       z     vdW  Elec       q    Type
REMARK                         _______ _______ _______ _____ _____    ______ ____
ROOT
ATOM      1  C   UNL     1      37.281 -26.427 -13.405  0.00  0.00    +0.112 C 
ENDROOT
BRANCH   1   3
ATOM      2  O   UNL     1      36.277 -26.752 -15.600  0.00  0.00    -0.250 OA
ATOM      3  C   UNL     1      37.247 -26.452 -14.916  0.00  0.00    +0.314 C 
BRANCH   3   4
ATOM      4  O   UNL     1      38.446 -26.097 -15.445  0.00  0.00    -0.480 OA
ATOM      5  H   UNL     1      39.068 -26.755 -15.682  0.00  0.00    +0.295 HD
ENDBRANCH   3   4
ENDBRANCH   1   3
BRANCH   1   6
ATOM      6  C   UNL     1      38.343 -25.461 -12.875  0.00  0.00    +0.043 C 
BRANCH   6   7
ATOM      7  C   UNL     1      37.727 -24.256 -12.174  0.00  0.00    +0.138 C 
BRANCH   7   8
ATOM      8  O   UNL     1      38.753 -23.391 -11.708  0.00  0.00    -0.382 OA
ATOM      9  H   UNL     1      38.821 -23.461 -10.743  0.00  0.00    +0.210 HD
ENDBRANCH   7   8
ENDBRANCH   6   7
ENDBRANCH   1   6
TORSDOF 5
ENDMDL
MODEL 9
REMARK VINA RESULT:      -4.2      1.654      2.107
REMARK  Name = 10413
REMARK  5 active torsions:
REMARK  status: ('A' for Active; 'I' for Inactive)
REMARK    1  A    between atoms: C_1  and  C_3
REMARK    2  A    between atoms: C_1  and  C_6
REMARK    3  A    between atoms: C_3  and  O_4
REMARK    4  A    between atoms: C_6  and  C_7
REMARK    5  A    between atoms: C_7  and  O_8
REMARK                            x       y       z     vdW  Elec       q    Type
REMARK                         _______ _______ _______ _____ _____    ______ ____
ROOT
ATOM      1  C   UNL     1      39.466 -25.504 -13.739  0.00  0.00    +0.112 C 
ENDROOT
BRANCH   1   3
ATOM      2  O   UNL     1      40.580 -25.945 -15.859  0.00  0.00    -0.250 OA
ATOM      3  C   UNL     1      40.510 -26.110 -14.649  0.00  0.00    +0.314 C 
BRANCH   3   4
ATOM      4  O   UNL     1      41.386 -26.881 -13.953  0.00  0.00    -0.480 OA
ATOM      5  H   UNL     1      42.199 -27.134 -14.342  0.00  0.00    +0.295 HD
ENDBRANCH   3   4
ENDBRANCH   1   3
BRANCH   1   6
ATOM      6  C   UNL     1      38.047 -25.880 -14.170  0.00  0.00    +0.043 C 
BRANCH   6   7
ATOM      7  C   UNL     1      37.333 -24.731 -14.870  0.00  0.00    +0.138 C 
BRANCH   7   8
ATOM      8  O   UNL     1      38.071 -23.529 -14.702  0.00  0.00    -0.382 OA
ATOM      9  H   UNL     1      38.447 -23.259 -15.555  0.00  0.00    +0.210 HD
ENDBRANCH   7   8
ENDBRANCH   6   7
ENDBRANCH   1   6
TORSDOF 5
ENDMDL
