MODEL 1
REMARK VINA RESULT:     -10.3      0.000      0.000
REMARK  Name = 223253
REMARK  9 active torsions:
REMARK  status: ('A' for Active; 'I' for Inactive)
REMARK    1  A    between atoms: C_6  and  O_21
REMARK    2  A    between atoms: C_6  and  C_26
REMARK    3  A    between atoms: C_9  and  O_23
REMARK    4  A    between atoms: C_26  and  C_27
REMARK    5  A    between atoms: C_27  and  O_28
REMARK    6  A    between atoms: O_28  and  C_30
REMARK    7  A    between atoms: C_30  and  C_31
REMARK    8  A    between atoms: C_31  and  C_32
REMARK    9  A    between atoms: C_32  and  C_33
REMARK                            x       y       z     vdW  Elec       q    Type
REMARK                         _______ _______ _______ _____ _____    ______ ____
ROOT
ATOM      1  O   UNL     1      34.287 -10.176 -25.781  0.00  0.00    -0.291 OA
ATOM      2  C   UNL     1      34.802 -17.722 -22.018  0.00  0.00    +0.031 C 
ATOM      3  C   UNL     1      34.802 -17.417 -23.531  0.00  0.00    +0.003 C 
ATOM      4  C   UNL     1      33.877 -16.255 -23.924  0.00  0.00    +0.003 C 
ATOM      5  C   UNL     1      34.343 -14.964 -23.174  0.00  0.00    +0.030 C 
ATOM      6  C   UNL     1      35.756 -18.948 -22.004  0.00  0.00    +0.143 C 
ATOM      7  C   UNL     1      35.311 -16.461 -21.291  0.00  0.00    +0.032 C 
ATOM      8  C   UNL     1      33.520 -13.678 -23.592  0.00  0.00    +0.018 C 
ATOM      9  C   UNL     1      34.500 -15.193 -21.638  0.00  0.00    +0.111 C 
ATOM     10  C   UNL     1      34.578 -18.786 -24.169  0.00  0.00    +0.003 C 
ATOM     11  C   UNL     1      35.349 -19.761 -23.255  0.00  0.00    +0.034 C 
ATOM     12  C   UNL     1      33.915 -16.032 -25.444  0.00  0.00    +0.004 C 
ATOM     13  C   UNL     1      33.408 -18.143 -21.477  0.00  0.00    +0.003 C 
ATOM     14  C   UNL     1      33.477 -13.582 -25.123  0.00  0.00    -0.042 C 
ATOM     15  C   UNL     1      33.075 -14.834 -25.862  0.00  0.00    +0.022 C 
ATOM     16  C   UNL     1      34.240 -12.432 -23.000  0.00  0.00    +0.012 C 
ATOM     17  C   UNL     1      32.055 -13.693 -23.097  0.00  0.00    +0.004 C 
ATOM     18  C   UNL     1      33.805 -11.120 -23.633  0.00  0.00    +0.069 C 
ATOM     19  C   UNL     1      33.738 -12.460 -25.815  0.00  0.00    +0.029 C 
ATOM     20  C   UNL     1      33.997 -11.175 -25.126  0.00  0.00    +0.173 C 
ENDROOT
BRANCH   6  21
ATOM     21  O   UNL     1      37.116 -18.544 -22.128  0.00  0.00    -0.380 OA
ATOM     22  H   UNL     1      37.202 -17.924 -22.870  0.00  0.00    +0.211 HD
ENDBRANCH   6  21
BRANCH   9  23
ATOM     23  O   UNL     1      33.238 -15.248 -20.989  0.00  0.00    -0.384 OA
ATOM     24  H   UNL     1      32.532 -15.244 -21.655  0.00  0.00    +0.210 HD
ENDBRANCH   9  23
BRANCH   6  26
ATOM     25  O   UNL     1      36.546 -19.584 -19.847  0.00  0.00    -0.290 OA
ATOM     26  C   UNL     1      35.705 -19.741 -20.732  0.00  0.00    +0.218 C 
BRANCH  26  27
ATOM     27  C   UNL     1      34.571 -20.736 -20.606  0.00  0.00    +0.274 C 
BRANCH  27  28
ATOM     28  O   UNL     1      34.481 -21.225 -19.285  0.00  0.00    -0.440 OA
BRANCH  28  30
ATOM     29  O   UNL     1      34.250 -23.467 -19.777  0.00  0.00    -0.250 OA
ATOM     30  C   UNL     1      33.929 -22.476 -19.137  0.00  0.00    +0.317 C 
BRANCH  30  31
ATOM     31  C   UNL     1      32.867 -22.438 -18.062  0.00  0.00    +0.110 C 
BRANCH  31  32
ATOM     32  C   UNL     1      33.248 -23.283 -16.851  0.00  0.00    +0.012 C 
BRANCH  32  33
ATOM     33  C   UNL     1      32.034 -23.633 -16.010  0.00  0.00    +0.001 C 
ATOM     34  C   UNL     1      30.779 -22.867 -16.416  0.00  0.00    +0.000 C 
ATOM     35  C   UNL     1      32.188 -23.248 -14.541  0.00  0.00    +0.000 C 
ATOM     36  C   UNL     1      29.851 -23.014 -15.214  0.00  0.00    +0.000 C 
ATOM     37  C   UNL     1      30.759 -23.248 -14.005  0.00  0.00    +0.000 C 
ENDBRANCH  32  33
ENDBRANCH  31  32
ENDBRANCH  30  31
ENDBRANCH  28  30
ENDBRANCH  27  28
ENDBRANCH  26  27
ENDBRANCH   6  26
TORSDOF 9
ENDMDL
MODEL 2
REMARK VINA RESULT:     -10.3      3.025      6.360
REMARK  Name = 223253
REMARK  9 active torsions:
REMARK  status: ('A' for Active; 'I' for Inactive)
REMARK    1  A    between atoms: C_6  and  O_21
REMARK    2  A    between atoms: C_6  and  C_26
REMARK    3  A    between atoms: C_9  and  O_23
REMARK    4  A    between atoms: C_26  and  C_27
REMARK    5  A    between atoms: C_27  and  O_28
REMARK    6  A    between atoms: O_28  and  C_30
REMARK    7  A    between atoms: C_30  and  C_31
REMARK    8  A    between atoms: C_31  and  C_32
REMARK    9  A    between atoms: C_32  and  C_33
REMARK                            x       y       z     vdW  Elec       q    Type
REMARK                         _______ _______ _______ _____ _____    ______ ____
ROOT
ATOM      1  O   UNL     1      30.638  -4.617 -23.361  0.00  0.00    -0.291 OA
ATOM      2  C   UNL     1      33.364 -12.614 -23.371  0.00  0.00    +0.031 C 
ATOM      3  C   UNL     1      32.330 -11.967 -22.424  0.00  0.00    +0.003 C 
ATOM      4  C   UNL     1      32.662 -10.513 -22.053  0.00  0.00    +0.003 C 
ATOM      5  C   UNL     1      32.715  -9.658 -23.361  0.00  0.00    +0.030 C 
ATOM      6  C   UNL     1      32.763 -14.043 -23.468  0.00  0.00    +0.143 C 
ATOM      7  C   UNL     1      33.372 -11.794 -24.678  0.00  0.00    +0.032 C 
ATOM      8  C   UNL     1      32.944  -8.117 -23.081  0.00  0.00    +0.018 C 
ATOM      9  C   UNL     1      33.641 -10.290 -24.448  0.00  0.00    +0.111 C 
ATOM     10  C   UNL     1      32.180 -12.997 -21.308  0.00  0.00    +0.003 C 
ATOM     11  C   UNL     1      32.295 -14.357 -22.028  0.00  0.00    +0.034 C 
ATOM     12  C   UNL     1      31.603  -9.953 -21.091  0.00  0.00    +0.004 C 
ATOM     13  C   UNL     1      34.791 -12.690 -22.762  0.00  0.00    +0.003 C 
ATOM     14  C   UNL     1      31.947  -7.644 -22.015  0.00  0.00    -0.042 C 
ATOM     15  C   UNL     1      31.851  -8.487 -20.767  0.00  0.00    +0.022 C 
ATOM     16  C   UNL     1      32.707  -7.345 -24.412  0.00  0.00    +0.012 C 
ATOM     17  C   UNL     1      34.360  -7.788 -22.556  0.00  0.00    +0.004 C 
ATOM     18  C   UNL     1      32.502  -5.851 -24.220  0.00  0.00    +0.069 C 
ATOM     19  C   UNL     1      31.203  -6.531 -22.120  0.00  0.00    +0.029 C 
ATOM     20  C   UNL     1      31.369  -5.600 -23.260  0.00  0.00    +0.173 C 
ENDROOT
BRANCH   6  21
ATOM     21  O   UNL     1      31.641 -14.072 -24.344  0.00  0.00    -0.380 OA
ATOM     22  H   UNL     1      30.826 -13.960 -23.829  0.00  0.00    +0.211 HD
ENDBRANCH   6  21
BRANCH   9  23
ATOM     23  O   UNL     1      35.013 -10.099 -24.135  0.00  0.00    -0.384 OA
ATOM     24  H   UNL     1      35.559 -10.623 -24.741  0.00  0.00    +0.210 HD
ENDBRANCH   9  23
BRANCH   6  26
ATOM     25  O   UNL     1      33.772 -15.287 -25.233  0.00  0.00    -0.290 OA
ATOM     26  C   UNL     1      33.712 -15.063 -24.024  0.00  0.00    +0.218 C 
BRANCH  26  27
ATOM     27  C   UNL     1      34.580 -15.791 -23.020  0.00  0.00    +0.274 C 
BRANCH  27  28
ATOM     28  O   UNL     1      35.230 -16.887 -23.625  0.00  0.00    -0.440 OA
BRANCH  28  30
ATOM     29  O   UNL     1      34.687 -19.124 -23.782  0.00  0.00    -0.250 OA
ATOM     30  C   UNL     1      34.930 -18.129 -23.114  0.00  0.00    +0.317 C 
BRANCH  30  31
ATOM     31  C   UNL     1      34.947 -18.074 -21.604  0.00  0.00    +0.110 C 
BRANCH  31  32
ATOM     32  C   UNL     1      35.936 -19.071 -21.007  0.00  0.00    +0.012 C 
BRANCH  32  33
ATOM     33  C   UNL     1      35.273 -20.404 -20.709  0.00  0.00    +0.001 C 
ATOM     34  C   UNL     1      33.815 -20.269 -20.283  0.00  0.00    +0.000 C 
ATOM     35  C   UNL     1      35.893 -21.131 -19.520  0.00  0.00    +0.000 C 
ATOM     36  C   UNL     1      33.499 -21.607 -19.621  0.00  0.00    +0.000 C 
ATOM     37  C   UNL     1      34.836 -22.156 -19.119  0.00  0.00    +0.000 C 
ENDBRANCH  32  33
ENDBRANCH  31  32
ENDBRANCH  30  31
ENDBRANCH  28  30
ENDBRANCH  27  28
ENDBRANCH  26  27
ENDBRANCH   6  26
TORSDOF 9
ENDMDL
MODEL 3
REMARK VINA RESULT:      -9.9      1.557      2.199
REMARK  Name = 223253
REMARK  9 active torsions:
REMARK  status: ('A' for Active; 'I' for Inactive)
REMARK    1  A    between atoms: C_6  and  O_21
REMARK    2  A    between atoms: C_6  and  C_26
REMARK    3  A    between atoms: C_9  and  O_23
REMARK    4  A    between atoms: C_26  and  C_27
REMARK    5  A    between atoms: C_27  and  O_28
REMARK    6  A    between atoms: O_28  and  C_30
REMARK    7  A    between atoms: C_30  and  C_31
REMARK    8  A    between atoms: C_31  and  C_32
REMARK    9  A    between atoms: C_32  and  C_33
REMARK                            x       y       z     vdW  Elec       q    Type
REMARK                         _______ _______ _______ _____ _____    ______ ____
ROOT
ATOM      1  O   UNL     1      34.317 -10.232 -25.814  0.00  0.00    -0.291 OA
ATOM      2  C   UNL     1      34.730 -17.721 -21.925  0.00  0.00    +0.031 C 
ATOM      3  C   UNL     1      34.770 -17.438 -23.442  0.00  0.00    +0.003 C 
ATOM      4  C   UNL     1      33.856 -16.282 -23.876  0.00  0.00    +0.003 C 
ATOM      5  C   UNL     1      34.303 -14.980 -23.134  0.00  0.00    +0.030 C 
ATOM      6  C   UNL     1      35.683 -18.946 -21.868  0.00  0.00    +0.143 C 
ATOM      7  C   UNL     1      35.221 -16.449 -21.204  0.00  0.00    +0.032 C 
ATOM      8  C   UNL     1      33.491 -13.700 -23.593  0.00  0.00    +0.018 C 
ATOM      9  C   UNL     1      34.421 -15.185 -21.591  0.00  0.00    +0.111 C 
ATOM     10  C   UNL     1      34.560 -18.816 -24.065  0.00  0.00    +0.003 C 
ATOM     11  C   UNL     1      35.307 -19.778 -23.116  0.00  0.00    +0.034 C 
ATOM     12  C   UNL     1      33.932 -16.082 -25.398  0.00  0.00    +0.004 C 
ATOM     13  C   UNL     1      33.322 -18.133 -21.414  0.00  0.00    +0.003 C 
ATOM     14  C   UNL     1      33.489 -13.627 -25.126  0.00  0.00    -0.042 C 
ATOM     15  C   UNL     1      33.105 -14.891 -25.855  0.00  0.00    +0.022 C 
ATOM     16  C   UNL     1      34.197 -12.445 -23.001  0.00  0.00    +0.012 C 
ATOM     17  C   UNL     1      32.015 -13.707 -23.135  0.00  0.00    +0.004 C 
ATOM     18  C   UNL     1      33.780 -11.143 -23.666  0.00  0.00    +0.069 C 
ATOM     19  C   UNL     1      33.768 -12.517 -25.828  0.00  0.00    +0.029 C 
ATOM     20  C   UNL     1      34.010 -11.221 -25.152  0.00  0.00    +0.173 C 
ENDROOT
BRANCH   6  21
ATOM     21  O   UNL     1      37.046 -18.544 -21.963  0.00  0.00    -0.380 OA
ATOM     22  H   UNL     1      37.108 -17.739 -22.501  0.00  0.00    +0.211 HD
ENDBRANCH   6  21
BRANCH   9  23
ATOM     23  O   UNL     1      33.142 -15.231 -20.975  0.00  0.00    -0.384 OA
ATOM     24  H   UNL     1      33.228 -15.011 -20.034  0.00  0.00    +0.210 HD
ENDBRANCH   9  23
BRANCH   6  26
ATOM     25  O   UNL     1      36.518 -19.704 -19.768  0.00  0.00    -0.290 OA
ATOM     26  C   UNL     1      35.599 -19.720 -20.586  0.00  0.00    +0.218 C 
BRANCH  26  27
ATOM     27  C   UNL     1      34.329 -20.513 -20.363  0.00  0.00    +0.274 C 
BRANCH  27  28
ATOM     28  O   UNL     1      34.627 -21.811 -19.894  0.00  0.00    -0.440 OA
BRANCH  28  30
ATOM     29  O   UNL     1      32.720 -22.407 -18.741  0.00  0.00    -0.250 OA
ATOM     30  C   UNL     1      33.929 -22.232 -18.786  0.00  0.00    +0.317 C 
BRANCH  30  31
ATOM     31  C   UNL     1      34.885 -22.444 -17.635  0.00  0.00    +0.110 C 
BRANCH  31  32
ATOM     32  C   UNL     1      34.250 -23.248 -16.505  0.00  0.00    +0.012 C 
BRANCH  32  33
ATOM     33  C   UNL     1      35.245 -23.531 -15.393  0.00  0.00    +0.001 C 
ATOM     34  C   UNL     1      36.680 -23.179 -15.766  0.00  0.00    +0.000 C 
ATOM     35  C   UNL     1      35.353 -25.013 -15.046  0.00  0.00    +0.000 C 
ATOM     36  C   UNL     1      37.524 -23.934 -14.743  0.00  0.00    +0.000 C 
ATOM     37  C   UNL     1      36.673 -25.121 -14.288  0.00  0.00    +0.000 C 
ENDBRANCH  32  33
ENDBRANCH  31  32
ENDBRANCH  30  31
ENDBRANCH  28  30
ENDBRANCH  27  28
ENDBRANCH  26  27
ENDBRANCH   6  26
TORSDOF 9
ENDMDL
MODEL 4
REMARK VINA RESULT:      -8.4      5.023     13.705
REMARK  Name = 223253
REMARK  9 active torsions:
REMARK  status: ('A' for Active; 'I' for Inactive)
REMARK    1  A    between atoms: C_6  and  O_21
REMARK    2  A    between atoms: C_6  and  C_26
REMARK    3  A    between atoms: C_9  and  O_23
REMARK    4  A    between atoms: C_26  and  C_27
REMARK    5  A    between atoms: C_27  and  O_28
REMARK    6  A    between atoms: O_28  and  C_30
REMARK    7  A    between atoms: C_30  and  C_31
REMARK    8  A    between atoms: C_31  and  C_32
REMARK    9  A    between atoms: C_32  and  C_33
REMARK                            x       y       z     vdW  Elec       q    Type
REMARK                         _______ _______ _______ _____ _____    ______ ____
ROOT
ATOM      1  O   UNL     1      34.760 -17.216 -21.288  0.00  0.00    -0.291 OA
ATOM      2  C   UNL     1      33.120  -9.186 -23.340  0.00  0.00    +0.031 C 
ATOM      3  C   UNL     1      32.780  -9.915 -22.022  0.00  0.00    +0.003 C 
ATOM      4  C   UNL     1      32.374 -11.384 -22.218  0.00  0.00    +0.003 C 
ATOM      5  C   UNL     1      33.558 -12.147 -22.898  0.00  0.00    +0.030 C 
ATOM      6  C   UNL     1      33.405  -7.765 -22.780  0.00  0.00    +0.143 C 
ATOM      7  C   UNL     1      34.320  -9.915 -23.977  0.00  0.00    +0.032 C 
ATOM      8  C   UNL     1      33.284 -13.699 -23.049  0.00  0.00    +0.018 C 
ATOM      9  C   UNL     1      34.071 -11.426 -24.184  0.00  0.00    +0.111 C 
ATOM     10  C   UNL     1      31.802  -8.966 -21.334  0.00  0.00    +0.003 C 
ATOM     11  C   UNL     1      32.320  -7.558 -21.698  0.00  0.00    +0.034 C 
ATOM     12  C   UNL     1      32.029 -12.028 -20.867  0.00  0.00    +0.004 C 
ATOM     13  C   UNL     1      31.926  -9.124 -24.332  0.00  0.00    +0.003 C 
ATOM     14  C   UNL     1      32.813 -14.262 -21.701  0.00  0.00    -0.042 C 
ATOM     15  C   UNL     1      31.704 -13.507 -21.011  0.00  0.00    +0.022 C 
ATOM     16  C   UNL     1      34.615 -14.384 -23.476  0.00  0.00    +0.012 C 
ATOM     17  C   UNL     1      32.191 -14.036 -24.089  0.00  0.00    +0.004 C 
ATOM     18  C   UNL     1      34.614 -15.891 -23.278  0.00  0.00    +0.069 C 
ATOM     19  C   UNL     1      33.302 -15.380 -21.139  0.00  0.00    +0.029 C 
ATOM     20  C   UNL     1      34.288 -16.228 -21.847  0.00  0.00    +0.173 C 
ENDROOT
BRANCH   6  21
ATOM     21  O   UNL     1      34.693  -7.699 -22.176  0.00  0.00    -0.380 OA
ATOM     22  H   UNL     1      35.130  -8.562 -22.252  0.00  0.00    +0.211 HD
ENDBRANCH   6  21
BRANCH   9  23
ATOM     23  O   UNL     1      33.179 -11.612 -25.274  0.00  0.00    -0.384 OA
ATOM     24  H   UNL     1      32.902 -12.540 -25.310  0.00  0.00    +0.210 HD
ENDBRANCH   9  23
BRANCH   6  26
ATOM     25  O   UNL     1      34.334  -6.605 -24.643  0.00  0.00    -0.290 OA
ATOM     26  C   UNL     1      33.416  -6.692 -23.829  0.00  0.00    +0.218 C 
BRANCH  26  27
ATOM     27  C   UNL     1      32.243  -5.736 -23.823  0.00  0.00    +0.274 C 
BRANCH  27  28
ATOM     28  O   UNL     1      31.818  -5.460 -25.140  0.00  0.00    -0.440 OA
BRANCH  28  30
ATOM     29  O   UNL     1      30.533  -3.569 -24.824  0.00  0.00    -0.250 OA
ATOM     30  C   UNL     1      31.436  -4.163 -25.397  0.00  0.00    +0.317 C 
BRANCH  30  31
ATOM     31  C   UNL     1      32.302  -3.588 -26.493  0.00  0.00    +0.110 C 
BRANCH  31  32
ATOM     32  C   UNL     1      33.094  -4.669 -27.223  0.00  0.00    +0.012 C 
BRANCH  32  33
ATOM     33  C   UNL     1      34.346  -4.103 -27.868  0.00  0.00    +0.001 C 
ATOM     34  C   UNL     1      35.619  -4.835 -27.458  0.00  0.00    +0.000 C 
ATOM     35  C   UNL     1      34.646  -2.668 -27.443  0.00  0.00    +0.000 C 
ATOM     36  C   UNL     1      36.738  -3.868 -27.830  0.00  0.00    +0.000 C 
ATOM     37  C   UNL     1      36.114  -2.472 -27.809  0.00  0.00    +0.000 C 
ENDBRANCH  32  33
ENDBRANCH  31  32
ENDBRANCH  30  31
ENDBRANCH  28  30
ENDBRANCH  27  28
ENDBRANCH  26  27
ENDBRANCH   6  26
TORSDOF 9
ENDMDL
MODEL 5
REMARK VINA RESULT:      -8.4      4.170      7.410
REMARK  Name = 223253
REMARK  9 active torsions:
REMARK  status: ('A' for Active; 'I' for Inactive)
REMARK    1  A    between atoms: C_6  and  O_21
REMARK    2  A    between atoms: C_6  and  C_26
REMARK    3  A    between atoms: C_9  and  O_23
REMARK    4  A    between atoms: C_26  and  C_27
REMARK    5  A    between atoms: C_27  and  O_28
REMARK    6  A    between atoms: O_28  and  C_30
REMARK    7  A    between atoms: C_30  and  C_31
REMARK    8  A    between atoms: C_31  and  C_32
REMARK    9  A    between atoms: C_32  and  C_33
REMARK                            x       y       z     vdW  Elec       q    Type
REMARK                         _______ _______ _______ _____ _____    ______ ____
ROOT
ATOM      1  O   UNL     1      31.018  -4.427 -24.454  0.00  0.00    -0.291 OA
ATOM      2  C   UNL     1      33.284 -12.407 -22.851  0.00  0.00    +0.031 C 
ATOM      3  C   UNL     1      32.222 -11.559 -22.118  0.00  0.00    +0.003 C 
ATOM      4  C   UNL     1      32.607 -10.078 -21.980  0.00  0.00    +0.003 C 
ATOM      5  C   UNL     1      32.803  -9.472 -23.408  0.00  0.00    +0.030 C 
ATOM      6  C   UNL     1      32.612 -13.804 -22.745  0.00  0.00    +0.143 C 
ATOM      7  C   UNL     1      33.432 -11.834 -24.275  0.00  0.00    +0.032 C 
ATOM      8  C   UNL     1      33.097  -7.917 -23.383  0.00  0.00    +0.018 C 
ATOM      9  C   UNL     1      33.768 -10.326 -24.289  0.00  0.00    +0.111 C 
ATOM     10  C   UNL     1      31.933 -12.366 -20.855  0.00  0.00    +0.003 C 
ATOM     11  C   UNL     1      32.024 -13.837 -21.316  0.00  0.00    +0.034 C 
ATOM     12  C   UNL     1      31.514  -9.310 -21.220  0.00  0.00    +0.004 C 
ATOM     13  C   UNL     1      34.656 -12.434 -22.123  0.00  0.00    +0.003 C 
ATOM     14  C   UNL     1      32.053  -7.220 -22.500  0.00  0.00    -0.042 C 
ATOM     15  C   UNL     1      31.820  -7.823 -21.137  0.00  0.00    +0.022 C 
ATOM     16  C   UNL     1      33.001  -7.384 -24.842  0.00  0.00    +0.012 C 
ATOM     17  C   UNL     1      34.488  -7.560 -22.810  0.00  0.00    +0.004 C 
ATOM     18  C   UNL     1      32.867  -5.873 -24.931  0.00  0.00    +0.069 C 
ATOM     19  C   UNL     1      31.383  -6.112 -22.857  0.00  0.00    +0.029 C 
ATOM     20  C   UNL     1      31.683  -5.408 -24.125  0.00  0.00    +0.173 C 
ENDROOT
BRANCH   6  21
ATOM     21  O   UNL     1      31.556 -13.941 -23.692  0.00  0.00    -0.380 OA
ATOM     22  H   UNL     1      31.601 -14.820 -24.100  0.00  0.00    +0.211 HD
ENDBRANCH   6  21
BRANCH   9  23
ATOM     23  O   UNL     1      35.122 -10.141 -23.904  0.00  0.00    -0.384 OA
ATOM     24  H   UNL     1      35.325 -10.714 -23.148  0.00  0.00    +0.210 HD
ENDBRANCH   9  23
BRANCH   6  26
ATOM     25  O   UNL     1      33.648 -15.895 -22.262  0.00  0.00    -0.290 OA
ATOM     26  C   UNL     1      33.540 -14.946 -23.037  0.00  0.00    +0.218 C 
BRANCH  26  27
ATOM     27  C   UNL     1      34.327 -14.859 -24.327  0.00  0.00    +0.274 C 
BRANCH  27  28
ATOM     28  O   UNL     1      33.514 -15.192 -25.431  0.00  0.00    -0.440 OA
BRANCH  28  30
ATOM     29  O   UNL     1      32.609 -17.044 -26.469  0.00  0.00    -0.250 OA
ATOM     30  C   UNL     1      33.470 -16.524 -25.773  0.00  0.00    +0.317 C 
BRANCH  30  31
ATOM     31  C   UNL     1      34.647 -17.245 -25.157  0.00  0.00    +0.110 C 
BRANCH  31  32
ATOM     32  C   UNL     1      34.301 -18.681 -24.775  0.00  0.00    +0.012 C 
BRANCH  32  33
ATOM     33  C   UNL     1      35.067 -19.131 -23.544  0.00  0.00    +0.001 C 
ATOM     34  C   UNL     1      34.174 -19.365 -22.330  0.00  0.00    +0.000 C 
ATOM     35  C   UNL     1      36.046 -18.080 -23.028  0.00  0.00    +0.000 C 
ATOM     36  C   UNL     1      35.141 -19.356 -21.152  0.00  0.00    +0.000 C 
ATOM     37  C   UNL     1      36.342 -18.519 -21.597  0.00  0.00    +0.000 C 
ENDBRANCH  32  33
ENDBRANCH  31  32
ENDBRANCH  30  31
ENDBRANCH  28  30
ENDBRANCH  27  28
ENDBRANCH  26  27
ENDBRANCH   6  26
TORSDOF 9
ENDMDL
MODEL 6
REMARK VINA RESULT:      -7.5      2.940      5.871
REMARK  Name = 223253
REMARK  9 active torsions:
REMARK  status: ('A' for Active; 'I' for Inactive)
REMARK    1  A    between atoms: C_6  and  O_21
REMARK    2  A    between atoms: C_6  and  C_26
REMARK    3  A    between atoms: C_9  and  O_23
REMARK    4  A    between atoms: C_26  and  C_27
REMARK    5  A    between atoms: C_27  and  O_28
REMARK    6  A    between atoms: O_28  and  C_30
REMARK    7  A    between atoms: C_30  and  C_31
REMARK    8  A    between atoms: C_31  and  C_32
REMARK    9  A    between atoms: C_32  and  C_33
REMARK                            x       y       z     vdW  Elec       q    Type
REMARK                         _______ _______ _______ _____ _____    ______ ____
ROOT
ATOM      1  O   UNL     1      33.055  -6.524 -19.241  0.00  0.00    -0.291 OA
ATOM      2  C   UNL     1      33.127 -13.387 -24.168  0.00  0.00    +0.031 C 
ATOM      3  C   UNL     1      33.854 -12.046 -24.402  0.00  0.00    +0.003 C 
ATOM      4  C   UNL     1      33.048 -10.821 -23.943  0.00  0.00    +0.003 C 
ATOM      5  C   UNL     1      32.762 -10.951 -22.411  0.00  0.00    +0.030 C 
ATOM      6  C   UNL     1      34.169 -14.355 -24.792  0.00  0.00    +0.143 C 
ATOM      7  C   UNL     1      32.896 -13.530 -22.650  0.00  0.00    +0.032 C 
ATOM      8  C   UNL     1      32.027  -9.683 -21.812  0.00  0.00    +0.018 C 
ATOM      9  C   UNL     1      32.137 -12.331 -22.037  0.00  0.00    +0.111 C 
ATOM     10  C   UNL     1      34.296 -12.133 -25.861  0.00  0.00    +0.003 C 
ATOM     11  C   UNL     1      34.662 -13.619 -26.059  0.00  0.00    +0.034 C 
ATOM     12  C   UNL     1      33.827  -9.529 -24.234  0.00  0.00    +0.004 C 
ATOM     13  C   UNL     1      31.784 -13.501 -24.941  0.00  0.00    +0.003 C 
ATOM     14  C   UNL     1      32.773  -8.415 -22.247  0.00  0.00    -0.042 C 
ATOM     15  C   UNL     1      33.097  -8.299 -23.716  0.00  0.00    +0.022 C 
ATOM     16  C   UNL     1      32.043  -9.805 -20.260  0.00  0.00    +0.012 C 
ATOM     17  C   UNL     1      30.563  -9.535 -22.288  0.00  0.00    +0.004 C 
ATOM     18  C   UNL     1      31.735  -8.500 -19.544  0.00  0.00    +0.069 C 
ATOM     19  C   UNL     1      33.110  -7.416 -21.414  0.00  0.00    +0.029 C 
ATOM     20  C   UNL     1      32.687  -7.423 -19.995  0.00  0.00    +0.173 C 
ENDROOT
BRANCH   6  21
ATOM     21  O   UNL     1      35.269 -14.565 -23.911  0.00  0.00    -0.380 OA
ATOM     22  H   UNL     1      35.882 -15.206 -24.307  0.00  0.00    +0.211 HD
ENDBRANCH   6  21
BRANCH   9  23
ATOM     23  O   UNL     1      30.768 -12.399 -22.411  0.00  0.00    -0.384 OA
ATOM     24  H   UNL     1      30.614 -13.203 -22.931  0.00  0.00    +0.210 HD
ENDBRANCH   9  23
BRANCH   6  26
ATOM     25  O   UNL     1      33.062 -15.989 -26.128  0.00  0.00    -0.290 OA
ATOM     26  C   UNL     1      33.631 -15.728 -25.069  0.00  0.00    +0.218 C 
BRANCH  26  27
ATOM     27  C   UNL     1      33.828 -16.759 -23.978  0.00  0.00    +0.274 C 
BRANCH  27  28
ATOM     28  O   UNL     1      35.091 -17.377 -24.099  0.00  0.00    -0.440 OA
BRANCH  28  30
ATOM     29  O   UNL     1      34.921 -19.676 -24.180  0.00  0.00    -0.250 OA
ATOM     30  C   UNL     1      35.199 -18.647 -23.581  0.00  0.00    +0.317 C 
BRANCH  30  31
ATOM     31  C   UNL     1      35.712 -18.574 -22.161  0.00  0.00    +0.110 C 
BRANCH  31  32
ATOM     32  C   UNL     1      34.603 -18.808 -21.140  0.00  0.00    +0.012 C 
BRANCH  32  33
ATOM     33  C   UNL     1      34.465 -20.280 -20.793  0.00  0.00    +0.001 C 
ATOM     34  C   UNL     1      33.242 -20.584 -19.934  0.00  0.00    +0.000 C 
ATOM     35  C   UNL     1      35.608 -20.803 -19.928  0.00  0.00    +0.000 C 
ATOM     36  C   UNL     1      33.537 -21.961 -19.348  0.00  0.00    +0.000 C 
ATOM     37  C   UNL     1      35.061 -22.097 -19.333  0.00  0.00    +0.000 C 
ENDBRANCH  32  33
ENDBRANCH  31  32
ENDBRANCH  30  31
ENDBRANCH  28  30
ENDBRANCH  27  28
ENDBRANCH  26  27
ENDBRANCH   6  26
TORSDOF 9
ENDMDL
MODEL 7
REMARK VINA RESULT:      -7.4      2.637      4.936
REMARK  Name = 223253
REMARK  9 active torsions:
REMARK  status: ('A' for Active; 'I' for Inactive)
REMARK    1  A    between atoms: C_6  and  O_21
REMARK    2  A    between atoms: C_6  and  C_26
REMARK    3  A    between atoms: C_9  and  O_23
REMARK    4  A    between atoms: C_26  and  C_27
REMARK    5  A    between atoms: C_27  and  O_28
REMARK    6  A    between atoms: O_28  and  C_30
REMARK    7  A    between atoms: C_30  and  C_31
REMARK    8  A    between atoms: C_31  and  C_32
REMARK    9  A    between atoms: C_32  and  C_33
REMARK                            x       y       z     vdW  Elec       q    Type
REMARK                         _______ _______ _______ _____ _____    ______ ____
ROOT
ATOM      1  O   UNL     1      32.798  -5.363 -22.225  0.00  0.00    -0.291 OA
ATOM      2  C   UNL     1      33.045 -13.801 -21.862  0.00  0.00    +0.031 C 
ATOM      3  C   UNL     1      33.819 -12.871 -22.821  0.00  0.00    +0.003 C 
ATOM      4  C   UNL     1      33.013 -11.643 -23.271  0.00  0.00    +0.003 C 
ATOM      5  C   UNL     1      32.619 -10.808 -22.009  0.00  0.00    +0.030 C 
ATOM      6  C   UNL     1      34.105 -14.922 -21.683  0.00  0.00    +0.143 C 
ATOM      7  C   UNL     1      32.706 -12.984 -20.599  0.00  0.00    +0.032 C 
ATOM      8  C   UNL     1      31.874  -9.459 -22.370  0.00  0.00    +0.018 C 
ATOM      9  C   UNL     1      31.935 -11.680 -20.909  0.00  0.00    +0.111 C 
ATOM     10  C   UNL     1      34.359 -13.827 -23.882  0.00  0.00    +0.003 C 
ATOM     11  C   UNL     1      34.703 -15.111 -23.096  0.00  0.00    +0.034 C 
ATOM     12  C   UNL     1      33.842 -10.785 -24.240  0.00  0.00    +0.004 C 
ATOM     13  C   UNL     1      31.757 -14.398 -22.493  0.00  0.00    +0.003 C 
ATOM     14  C   UNL     1      32.680  -8.710 -23.441  0.00  0.00    -0.042 C 
ATOM     15  C   UNL     1      33.108  -9.515 -24.642  0.00  0.00    +0.022 C 
ATOM     16  C   UNL     1      31.780  -8.599 -21.076  0.00  0.00    +0.012 C 
ATOM     17  C   UNL     1      30.452  -9.670 -22.937  0.00  0.00    +0.004 C 
ATOM     18  C   UNL     1      31.455  -7.138 -21.339  0.00  0.00    +0.069 C 
ATOM     19  C   UNL     1      32.982  -7.402 -23.378  0.00  0.00    +0.029 C 
ATOM     20  C   UNL     1      32.461  -6.544 -22.289  0.00  0.00    +0.173 C 
ENDROOT
BRANCH   6  21
ATOM     21  O   UNL     1      35.135 -14.520 -20.785  0.00  0.00    -0.380 OA
ATOM     22  H   UNL     1      35.988 -14.856 -21.103  0.00  0.00    +0.211 HD
ENDBRANCH   6  21
BRANCH   9  23
ATOM     23  O   UNL     1      30.595 -11.996 -21.256  0.00  0.00    -0.384 OA
ATOM     24  H   UNL     1      30.575 -12.392 -22.141  0.00  0.00    +0.210 HD
ENDBRANCH   9  23
BRANCH   6  26
ATOM     25  O   UNL     1      32.711 -16.160 -20.197  0.00  0.00    -0.290 OA
ATOM     26  C   UNL     1      33.554 -16.187 -21.093  0.00  0.00    +0.218 C 
BRANCH  26  27
ATOM     27  C   UNL     1      34.093 -17.483 -21.660  0.00  0.00    +0.274 C 
BRANCH  27  28
ATOM     28  O   UNL     1      34.980 -18.095 -20.749  0.00  0.00    -0.440 OA
BRANCH  28  30
ATOM     29  O   UNL     1      36.684 -18.314 -22.290  0.00  0.00    -0.250 OA
ATOM     30  C   UNL     1      36.089 -18.701 -21.294  0.00  0.00    +0.317 C 
BRANCH  30  31
ATOM     31  C   UNL     1      36.457 -19.916 -20.474  0.00  0.00    +0.110 C 
BRANCH  31  32
ATOM     32  C   UNL     1      35.267 -20.850 -20.271  0.00  0.00    +0.012 C 
BRANCH  32  33
ATOM     33  C   UNL     1      35.545 -21.880 -19.190  0.00  0.00    +0.001 C 
ATOM     34  C   UNL     1      34.343 -22.149 -18.292  0.00  0.00    +0.000 C 
ATOM     35  C   UNL     1      36.604 -21.430 -18.189  0.00  0.00    +0.000 C 
ATOM     36  C   UNL     1      34.944 -22.824 -17.063  0.00  0.00    +0.000 C 
ATOM     37  C   UNL     1      36.397 -22.351 -16.990  0.00  0.00    +0.000 C 
ENDBRANCH  32  33
ENDBRANCH  31  32
ENDBRANCH  30  31
ENDBRANCH  28  30
ENDBRANCH  27  28
ENDBRANCH  26  27
ENDBRANCH   6  26
TORSDOF 9
ENDMDL
