MODEL 1
REMARK VINA RESULT:      -9.2      0.000      0.000
REMARK  Name = 134018
REMARK  7 active torsions:
REMARK  status: ('A' for Active; 'I' for Inactive)
REMARK    1  A    between atoms: C_1  and  O_19
REMARK    2  A    between atoms: C_2  and  C_9
REMARK    3  A    between atoms: C_3  and  C_18
REMARK    4  A    between atoms: C_11  and  C_14
REMARK    5  A    between atoms: C_14  and  O_15
REMARK    6  A    between atoms: O_19  and  C_20
REMARK    7  A    between atoms: C_20  and  C_21
REMARK                            x       y       z     vdW  Elec       q    Type
REMARK                         _______ _______ _______ _____ _____    ______ ____
ROOT
ATOM      1  C   UNL     1      35.769 -21.416 -19.122  0.00  0.00    +0.148 C 
ATOM      2  C   UNL     1      35.236 -19.460 -21.029  0.00  0.00    +0.036 C 
ATOM      3  C   UNL     1      34.456 -21.173 -19.514  0.00  0.00    +0.102 C 
ATOM      4  C   UNL     1      36.817 -20.688 -19.676  0.00  0.00    +0.038 C 
ATOM      5  C   UNL     1      34.188 -20.194 -20.470  0.00  0.00    +0.016 C 
ATOM      6  C   UNL     1      36.549 -19.707 -20.632  0.00  0.00    +0.006 C 
ENDROOT
BRANCH   2   9
ATOM      7  S   UNL     1      34.586 -16.858 -21.486  0.00  0.00    -0.065 S 
ATOM      8  N   UNL     1      34.969 -18.641 -23.319  0.00  0.00    -0.403 NA
ATOM      9  C   UNL     1      34.960 -18.447 -22.018  0.00  0.00    +0.157 C 
ATOM     10  C   UNL     1      34.661 -17.452 -23.951  0.00  0.00    +0.109 C 
ATOM     11  C   UNL     1      34.421 -16.374 -23.124  0.00  0.00    +0.200 C 
ATOM     12  C   UNL     1      34.615 -17.443 -25.427  0.00  0.00    +0.063 C 
BRANCH  11  14
ATOM     13  O   UNL     1      33.245 -14.629 -24.268  0.00  0.00    -0.249 OA
ATOM     14  C   UNL     1      34.083 -15.026 -23.436  0.00  0.00    +0.330 C 
BRANCH  14  15
ATOM     15  O   UNL     1      34.794 -14.108 -22.702  0.00  0.00    -0.479 OA
ATOM     16  H   UNL     1      35.574 -13.729 -23.055  0.00  0.00    +0.295 HD
ENDBRANCH  14  15
ENDBRANCH  11  14
ENDBRANCH   2   9
BRANCH   3  18
ATOM     17  N   UNL     1      32.489 -22.519 -18.496  0.00  0.00    -0.191 NA
ATOM     18  C   UNL     1      33.370 -21.916 -18.952  0.00  0.00    +0.103 C 
ENDBRANCH   3  18
BRANCH   1  19
ATOM     19  O   UNL     1      36.060 -22.372 -18.184  0.00  0.00    -0.475 OA
BRANCH  19  20
ATOM     20  C   UNL     1      36.946 -21.995 -17.138  0.00  0.00    +0.205 C 
BRANCH  20  21
ATOM     21  C   UNL     1      36.456 -22.572 -15.807  0.00  0.00    +0.044 C 
ATOM     22  C   UNL     1      35.069 -23.201 -15.948  0.00  0.00    +0.004 C 
ATOM     23  C   UNL     1      37.452 -23.599 -15.272  0.00  0.00    +0.004 C 
ENDBRANCH  20  21
ENDBRANCH  19  20
ENDBRANCH   1  19
TORSDOF 7
ENDMDL
MODEL 2
REMARK VINA RESULT:      -9.1      2.499      8.544
REMARK  Name = 134018
REMARK  7 active torsions:
REMARK  status: ('A' for Active; 'I' for Inactive)
REMARK    1  A    between atoms: C_1  and  O_19
REMARK    2  A    between atoms: C_2  and  C_9
REMARK    3  A    between atoms: C_3  and  C_18
REMARK    4  A    between atoms: C_11  and  C_14
REMARK    5  A    between atoms: C_14  and  O_15
REMARK    6  A    between atoms: O_19  and  C_20
REMARK    7  A    between atoms: C_20  and  C_21
REMARK                            x       y       z     vdW  Elec       q    Type
REMARK                         _______ _______ _______ _____ _____    ______ ____
ROOT
ATOM      1  C   UNL     1      34.293 -15.792 -23.301  0.00  0.00    +0.148 C 
ATOM      2  C   UNL     1      34.511 -18.091 -21.748  0.00  0.00    +0.036 C 
ATOM      3  C   UNL     1      33.780 -15.802 -22.007  0.00  0.00    +0.102 C 
ATOM      4  C   UNL     1      34.913 -16.922 -23.824  0.00  0.00    +0.038 C 
ATOM      5  C   UNL     1      33.890 -16.955 -21.228  0.00  0.00    +0.016 C 
ATOM      6  C   UNL     1      35.022 -18.075 -23.045  0.00  0.00    +0.006 C 
ENDROOT
BRANCH   2   9
ATOM      7  S   UNL     1      33.214 -20.218 -20.654  0.00  0.00    -0.065 S 
ATOM      8  N   UNL     1      35.739 -19.723 -20.401  0.00  0.00    -0.403 NA
ATOM      9  C   UNL     1      34.625 -19.283 -20.943  0.00  0.00    +0.157 C 
ATOM     10  C   UNL     1      35.469 -20.885 -19.704  0.00  0.00    +0.109 C 
ATOM     11  C   UNL     1      34.157 -21.309 -19.725  0.00  0.00    +0.200 C 
ATOM     12  C   UNL     1      36.589 -21.553 -19.010  0.00  0.00    +0.063 C 
BRANCH  11  14
ATOM     13  O   UNL     1      33.933 -23.628 -19.164  0.00  0.00    -0.249 OA
ATOM     14  C   UNL     1      33.543 -22.445 -19.123  0.00  0.00    +0.330 C 
BRANCH  14  15
ATOM     15  O   UNL     1      32.396 -22.135 -18.434  0.00  0.00    -0.479 OA
ATOM     16  H   UNL     1      31.636 -22.676 -18.520  0.00  0.00    +0.295 HD
ENDBRANCH  14  15
ENDBRANCH  11  14
ENDBRANCH   2   9
BRANCH   3  18
ATOM     17  N   UNL     1      32.622 -13.708 -21.013  0.00  0.00    -0.191 NA
ATOM     18  C   UNL     1      33.141 -14.646 -21.457  0.00  0.00    +0.103 C 
ENDBRANCH   3  18
BRANCH   1  19
ATOM     19  O   UNL     1      34.199 -14.674 -24.088  0.00  0.00    -0.475 OA
BRANCH  19  20
ATOM     20  C   UNL     1      33.329 -14.750 -25.209  0.00  0.00    +0.205 C 
BRANCH  20  21
ATOM     21  C   UNL     1      33.053 -13.345 -25.753  0.00  0.00    +0.044 C 
ATOM     22  C   UNL     1      33.806 -12.281 -24.953  0.00  0.00    +0.004 C 
ATOM     23  C   UNL     1      33.427 -13.263 -27.231  0.00  0.00    +0.004 C 
ENDBRANCH  20  21
ENDBRANCH  19  20
ENDBRANCH   1  19
TORSDOF 7
ENDMDL
MODEL 3
REMARK VINA RESULT:      -9.1      1.371      1.705
REMARK  Name = 134018
REMARK  7 active torsions:
REMARK  status: ('A' for Active; 'I' for Inactive)
REMARK    1  A    between atoms: C_1  and  O_19
REMARK    2  A    between atoms: C_2  and  C_9
REMARK    3  A    between atoms: C_3  and  C_18
REMARK    4  A    between atoms: C_11  and  C_14
REMARK    5  A    between atoms: C_14  and  O_15
REMARK    6  A    between atoms: O_19  and  C_20
REMARK    7  A    between atoms: C_20  and  C_21
REMARK                            x       y       z     vdW  Elec       q    Type
REMARK                         _______ _______ _______ _____ _____    ______ ____
ROOT
ATOM      1  C   UNL     1      35.860 -21.482 -19.006  0.00  0.00    +0.148 C 
ATOM      2  C   UNL     1      35.346 -19.536 -20.928  0.00  0.00    +0.036 C 
ATOM      3  C   UNL     1      34.555 -21.264 -19.436  0.00  0.00    +0.102 C 
ATOM      4  C   UNL     1      36.910 -20.734 -19.529  0.00  0.00    +0.038 C 
ATOM      5  C   UNL     1      34.297 -20.289 -20.400  0.00  0.00    +0.016 C 
ATOM      6  C   UNL     1      36.652 -19.758 -20.493  0.00  0.00    +0.006 C 
ENDROOT
BRANCH   2   9
ATOM      7  S   UNL     1      34.850 -19.022 -23.554  0.00  0.00    -0.065 S 
ATOM      8  N   UNL     1      34.997 -17.237 -21.689  0.00  0.00    -0.403 NA
ATOM      9  C   UNL     1      35.080 -18.528 -21.925  0.00  0.00    +0.157 C 
ATOM     10  C   UNL     1      34.732 -16.580 -22.875  0.00  0.00    +0.109 C 
ATOM     11  C   UNL     1      34.618 -17.380 -23.994  0.00  0.00    +0.200 C 
ATOM     12  C   UNL     1      34.598 -15.110 -22.839  0.00  0.00    +0.063 C 
BRANCH  11  14
ATOM     13  O   UNL     1      33.297 -17.219 -25.986  0.00  0.00    -0.249 OA
ATOM     14  C   UNL     1      34.354 -17.039 -25.351  0.00  0.00    +0.330 C 
BRANCH  14  15
ATOM     15  O   UNL     1      35.424 -16.445 -25.976  0.00  0.00    -0.479 OA
ATOM     16  H   UNL     1      36.227 -16.320 -25.510  0.00  0.00    +0.295 HD
ENDBRANCH  14  15
ENDBRANCH  11  14
ENDBRANCH   2   9
BRANCH   3  18
ATOM     17  N   UNL     1      32.584 -22.646 -18.476  0.00  0.00    -0.191 NA
ATOM     18  C   UNL     1      33.466 -22.027 -18.907  0.00  0.00    +0.103 C 
ENDBRANCH   3  18
BRANCH   1  19
ATOM     19  O   UNL     1      36.141 -22.432 -18.060  0.00  0.00    -0.475 OA
BRANCH  19  20
ATOM     20  C   UNL     1      36.974 -22.035 -16.979  0.00  0.00    +0.205 C 
BRANCH  20  21
ATOM     21  C   UNL     1      36.500 -22.700 -15.683  0.00  0.00    +0.044 C 
ATOM     22  C   UNL     1      35.078 -23.244 -15.824  0.00  0.00    +0.004 C 
ATOM     23  C   UNL     1      37.459 -23.818 -15.277  0.00  0.00    +0.004 C 
ENDBRANCH  20  21
ENDBRANCH  19  20
ENDBRANCH   1  19
TORSDOF 7
ENDMDL
MODEL 4
REMARK VINA RESULT:      -9.0      2.415      8.558
REMARK  Name = 134018
REMARK  7 active torsions:
REMARK  status: ('A' for Active; 'I' for Inactive)
REMARK    1  A    between atoms: C_1  and  O_19
REMARK    2  A    between atoms: C_2  and  C_9
REMARK    3  A    between atoms: C_3  and  C_18
REMARK    4  A    between atoms: C_11  and  C_14
REMARK    5  A    between atoms: C_14  and  O_15
REMARK    6  A    between atoms: O_19  and  C_20
REMARK    7  A    between atoms: C_20  and  C_21
REMARK                            x       y       z     vdW  Elec       q    Type
REMARK                         _______ _______ _______ _____ _____    ______ ____
ROOT
ATOM      1  C   UNL     1      34.426 -15.077 -22.840  0.00  0.00    +0.148 C 
ATOM      2  C   UNL     1      34.653 -17.560 -21.602  0.00  0.00    +0.036 C 
ATOM      3  C   UNL     1      34.316 -16.239 -23.597  0.00  0.00    +0.102 C 
ATOM      4  C   UNL     1      34.650 -15.148 -21.468  0.00  0.00    +0.038 C 
ATOM      5  C   UNL     1      34.429 -17.484 -22.977  0.00  0.00    +0.016 C 
ATOM      6  C   UNL     1      34.764 -16.392 -20.848  0.00  0.00    +0.006 C 
ENDROOT
BRANCH   2   9
ATOM      7  S   UNL     1      33.344 -19.765 -20.693  0.00  0.00    -0.065 S 
ATOM      8  N   UNL     1      35.898 -19.387 -20.555  0.00  0.00    -0.403 NA
ATOM      9  C   UNL     1      34.770 -18.846 -20.961  0.00  0.00    +0.157 C 
ATOM     10  C   UNL     1      35.626 -20.619 -19.990  0.00  0.00    +0.109 C 
ATOM     11  C   UNL     1      34.299 -20.995 -19.974  0.00  0.00    +0.200 C 
ATOM     12  C   UNL     1      36.760 -21.405 -19.464  0.00  0.00    +0.063 C 
BRANCH  11  14
ATOM     13  O   UNL     1      34.065 -23.353 -19.622  0.00  0.00    -0.249 OA
ATOM     14  C   UNL     1      33.679 -22.177 -19.477  0.00  0.00    +0.330 C 
BRANCH  14  15
ATOM     15  O   UNL     1      32.532 -21.925 -18.765  0.00  0.00    -0.479 OA
ATOM     16  H   UNL     1      32.533 -22.001 -17.832  0.00  0.00    +0.295 HD
ENDBRANCH  14  15
ENDBRANCH  11  14
ENDBRANCH   2   9
BRANCH   3  18
ATOM     17  N   UNL     1      33.899 -16.132 -26.153  0.00  0.00    -0.191 NA
ATOM     18  C   UNL     1      34.085 -16.180 -25.008  0.00  0.00    +0.103 C 
ENDBRANCH   3  18
BRANCH   1  19
ATOM     19  O   UNL     1      34.320 -13.842 -23.423  0.00  0.00    -0.475 OA
BRANCH  19  20
ATOM     20  C   UNL     1      33.223 -13.034 -23.019  0.00  0.00    +0.205 C 
BRANCH  20  21
ATOM     21  C   UNL     1      33.510 -11.564 -23.340  0.00  0.00    +0.044 C 
ATOM     22  C   UNL     1      33.811 -11.367 -24.826  0.00  0.00    +0.004 C 
ATOM     23  C   UNL     1      32.336 -10.686 -22.914  0.00  0.00    +0.004 C 
ENDBRANCH  20  21
ENDBRANCH  19  20
ENDBRANCH   1  19
TORSDOF 7
ENDMDL
MODEL 5
REMARK VINA RESULT:      -8.6      3.775      6.389
REMARK  Name = 134018
REMARK  7 active torsions:
REMARK  status: ('A' for Active; 'I' for Inactive)
REMARK    1  A    between atoms: C_1  and  O_19
REMARK    2  A    between atoms: C_2  and  C_9
REMARK    3  A    between atoms: C_3  and  C_18
REMARK    4  A    between atoms: C_11  and  C_14
REMARK    5  A    between atoms: C_14  and  O_15
REMARK    6  A    between atoms: O_19  and  C_20
REMARK    7  A    between atoms: C_20  and  C_21
REMARK                            x       y       z     vdW  Elec       q    Type
REMARK                         _______ _______ _______ _____ _____    ______ ____
ROOT
ATOM      1  C   UNL     1      34.578 -16.994 -22.333  0.00  0.00    +0.148 C 
ATOM      2  C   UNL     1      33.422 -14.471 -22.118  0.00  0.00    +0.036 C 
ATOM      3  C   UNL     1      34.286 -16.268 -23.483  0.00  0.00    +0.102 C 
ATOM      4  C   UNL     1      34.297 -16.467 -21.076  0.00  0.00    +0.038 C 
ATOM      5  C   UNL     1      33.707 -15.003 -23.376  0.00  0.00    +0.016 C 
ATOM      6  C   UNL     1      33.717 -15.203 -20.968  0.00  0.00    +0.006 C 
ENDROOT
BRANCH   2   9
ATOM      7  S   UNL     1      33.150 -12.002 -23.229  0.00  0.00    -0.065 S 
ATOM      8  N   UNL     1      32.033 -12.777 -21.030  0.00  0.00    -0.403 NA
ATOM      9  C   UNL     1      32.823 -13.163 -22.006  0.00  0.00    +0.157 C 
ATOM     10  C   UNL     1      31.651 -11.468 -21.253  0.00  0.00    +0.109 C 
ATOM     11  C   UNL     1      32.156 -10.880 -22.395  0.00  0.00    +0.200 C 
ATOM     12  C   UNL     1      30.755 -10.828 -20.269  0.00  0.00    +0.063 C 
BRANCH  11  14
ATOM     13  O   UNL     1      30.897  -9.039 -23.270  0.00  0.00    -0.249 OA
ATOM     14  C   UNL     1      31.969  -9.569 -22.920  0.00  0.00    +0.330 C 
BRANCH  14  15
ATOM     15  O   UNL     1      33.141  -8.859 -23.027  0.00  0.00    -0.479 OA
ATOM     16  H   UNL     1      33.882  -9.241 -23.452  0.00  0.00    +0.295 HD
ENDBRANCH  14  15
ENDBRANCH  11  14
ENDBRANCH   2   9
BRANCH   3  18
ATOM     17  N   UNL     1      34.804 -17.228 -25.834  0.00  0.00    -0.191 NA
ATOM     18  C   UNL     1      34.572 -16.797 -24.781  0.00  0.00    +0.103 C 
ENDBRANCH   3  18
BRANCH   1  19
ATOM     19  O   UNL     1      35.147 -18.238 -22.409  0.00  0.00    -0.475 OA
BRANCH  19  20
ATOM     20  C   UNL     1      35.735 -18.749 -21.220  0.00  0.00    +0.205 C 
BRANCH  20  21
ATOM     21  C   UNL     1      35.236 -20.173 -20.961  0.00  0.00    +0.044 C 
ATOM     22  C   UNL     1      36.100 -20.886 -19.919  0.00  0.00    +0.004 C 
ATOM     23  C   UNL     1      33.775 -20.154 -20.516  0.00  0.00    +0.004 C 
ENDBRANCH  20  21
ENDBRANCH  19  20
ENDBRANCH   1  19
TORSDOF 7
ENDMDL
MODEL 6
REMARK VINA RESULT:      -8.5      4.060      9.681
REMARK  Name = 134018
REMARK  7 active torsions:
REMARK  status: ('A' for Active; 'I' for Inactive)
REMARK    1  A    between atoms: C_1  and  O_19
REMARK    2  A    between atoms: C_2  and  C_9
REMARK    3  A    between atoms: C_3  and  C_18
REMARK    4  A    between atoms: C_11  and  C_14
REMARK    5  A    between atoms: C_14  and  O_15
REMARK    6  A    between atoms: O_19  and  C_20
REMARK    7  A    between atoms: C_20  and  C_21
REMARK                            x       y       z     vdW  Elec       q    Type
REMARK                         _______ _______ _______ _____ _____    ______ ____
ROOT
ATOM      1  C   UNL     1      32.560 -12.016 -22.790  0.00  0.00    +0.148 C 
ATOM      2  C   UNL     1      33.565 -14.606 -22.616  0.00  0.00    +0.036 C 
ATOM      3  C   UNL     1      33.548 -12.434 -23.676  0.00  0.00    +0.102 C 
ATOM      4  C   UNL     1      32.071 -12.883 -21.818  0.00  0.00    +0.038 C 
ATOM      5  C   UNL     1      34.052 -13.732 -23.589  0.00  0.00    +0.016 C 
ATOM      6  C   UNL     1      32.575 -14.181 -21.731  0.00  0.00    +0.006 C 
ENDROOT
BRANCH   2   9
ATOM      7  S   UNL     1      34.546 -16.551 -20.986  0.00  0.00    -0.065 S 
ATOM      8  N   UNL     1      34.240 -16.766 -23.544  0.00  0.00    -0.403 NA
ATOM      9  C   UNL     1      34.085 -15.948 -22.527  0.00  0.00    +0.157 C 
ATOM     10  C   UNL     1      34.760 -17.960 -23.085  0.00  0.00    +0.109 C 
ATOM     11  C   UNL     1      34.993 -18.032 -21.727  0.00  0.00    +0.200 C 
ATOM     12  C   UNL     1      35.016 -19.031 -24.070  0.00  0.00    +0.063 C 
BRANCH  11  14
ATOM     13  O   UNL     1      36.674 -19.216 -20.497  0.00  0.00    -0.249 OA
ATOM     14  C   UNL     1      35.514 -19.095 -20.933  0.00  0.00    +0.330 C 
BRANCH  14  15
ATOM     15  O   UNL     1      34.581 -20.063 -20.650  0.00  0.00    -0.479 OA
ATOM     16  H   UNL     1      34.615 -20.889 -21.089  0.00  0.00    +0.295 HD
ENDBRANCH  14  15
ENDBRANCH  11  14
ENDBRANCH   2   9
BRANCH   3  18
ATOM     17  N   UNL     1      34.474 -10.837 -25.495  0.00  0.00    -0.191 NA
ATOM     18  C   UNL     1      34.059 -11.552 -24.680  0.00  0.00    +0.103 C 
ENDBRANCH   3  18
BRANCH   1  19
ATOM     19  O   UNL     1      32.048 -10.746 -22.852  0.00  0.00    -0.475 OA
BRANCH  19  20
ATOM     20  C   UNL     1      31.846 -10.075 -21.615  0.00  0.00    +0.205 C 
BRANCH  20  21
ATOM     21  C   UNL     1      32.166  -8.585 -21.772  0.00  0.00    +0.044 C 
ATOM     22  C   UNL     1      32.561  -7.957 -20.434  0.00  0.00    +0.004 C 
ATOM     23  C   UNL     1      33.275  -8.384 -22.802  0.00  0.00    +0.004 C 
ENDBRANCH  20  21
ENDBRANCH  19  20
ENDBRANCH   1  19
TORSDOF 7
ENDMDL
MODEL 7
REMARK VINA RESULT:      -8.5      5.013     10.255
REMARK  Name = 134018
REMARK  7 active torsions:
REMARK  status: ('A' for Active; 'I' for Inactive)
REMARK    1  A    between atoms: C_1  and  O_19
REMARK    2  A    between atoms: C_2  and  C_9
REMARK    3  A    between atoms: C_3  and  C_18
REMARK    4  A    between atoms: C_11  and  C_14
REMARK    5  A    between atoms: C_14  and  O_15
REMARK    6  A    between atoms: O_19  and  C_20
REMARK    7  A    between atoms: C_20  and  C_21
REMARK                            x       y       z     vdW  Elec       q    Type
REMARK                         _______ _______ _______ _____ _____    ______ ____
ROOT
ATOM      1  C   UNL     1      32.551 -10.664 -23.126  0.00  0.00    +0.148 C 
ATOM      2  C   UNL     1      33.441 -13.294 -23.325  0.00  0.00    +0.036 C 
ATOM      3  C   UNL     1      32.067 -11.625 -22.245  0.00  0.00    +0.102 C 
ATOM      4  C   UNL     1      33.477 -11.008 -24.106  0.00  0.00    +0.038 C 
ATOM      5  C   UNL     1      32.513 -12.943 -22.344  0.00  0.00    +0.016 C 
ATOM      6  C   UNL     1      33.923 -12.326 -24.206  0.00  0.00    +0.006 C 
ENDROOT
BRANCH   2   9
ATOM      7  S   UNL     1      34.535 -15.419 -22.025  0.00  0.00    -0.065 S 
ATOM      8  N   UNL     1      33.879 -15.380 -24.525  0.00  0.00    -0.403 NA
ATOM      9  C   UNL     1      33.902 -14.656 -23.428  0.00  0.00    +0.157 C 
ATOM     10  C   UNL     1      34.398 -16.630 -24.249  0.00  0.00    +0.109 C 
ATOM     11  C   UNL     1      34.806 -16.839 -22.948  0.00  0.00    +0.200 C 
ATOM     12  C   UNL     1      34.467 -17.612 -25.351  0.00  0.00    +0.063 C 
BRANCH  11  14
ATOM     13  O   UNL     1      34.825 -18.772 -21.532  0.00  0.00    -0.249 OA
ATOM     14  C   UNL     1      35.376 -17.990 -22.331  0.00  0.00    +0.330 C 
BRANCH  14  15
ATOM     15  O   UNL     1      36.681 -18.208 -22.700  0.00  0.00    -0.479 OA
ATOM     16  H   UNL     1      37.155 -17.544 -23.159  0.00  0.00    +0.295 HD
ENDBRANCH  14  15
ENDBRANCH  11  14
ENDBRANCH   2   9
BRANCH   3  18
ATOM     17  N   UNL     1      30.344 -11.008 -20.410  0.00  0.00    -0.191 NA
ATOM     18  C   UNL     1      31.115 -11.284 -21.232  0.00  0.00    +0.103 C 
ENDBRANCH   3  18
BRANCH   1  19
ATOM     19  O   UNL     1      32.130  -9.362 -23.052  0.00  0.00    -0.475 OA
BRANCH  19  20
ATOM     20  C   UNL     1      32.831  -8.511 -22.155  0.00  0.00    +0.205 C 
BRANCH  20  21
ATOM     21  C   UNL     1      33.403  -7.310 -22.914  0.00  0.00    +0.044 C 
ATOM     22  C   UNL     1      34.798  -7.613 -23.465  0.00  0.00    +0.004 C 
ATOM     23  C   UNL     1      32.464  -6.897 -24.044  0.00  0.00    +0.004 C 
ENDBRANCH  20  21
ENDBRANCH  19  20
ENDBRANCH   1  19
TORSDOF 7
ENDMDL
MODEL 8
REMARK VINA RESULT:      -8.5      1.692      2.393
REMARK  Name = 134018
REMARK  7 active torsions:
REMARK  status: ('A' for Active; 'I' for Inactive)
REMARK    1  A    between atoms: C_1  and  O_19
REMARK    2  A    between atoms: C_2  and  C_9
REMARK    3  A    between atoms: C_3  and  C_18
REMARK    4  A    between atoms: C_11  and  C_14
REMARK    5  A    between atoms: C_14  and  O_15
REMARK    6  A    between atoms: O_19  and  C_20
REMARK    7  A    between atoms: C_20  and  C_21
REMARK                            x       y       z     vdW  Elec       q    Type
REMARK                         _______ _______ _______ _____ _____    ______ ____
ROOT
ATOM      1  C   UNL     1      35.865 -20.397 -20.336  0.00  0.00    +0.148 C 
ATOM      2  C   UNL     1      35.013 -18.310 -21.969  0.00  0.00    +0.036 C 
ATOM      3  C   UNL     1      34.505 -20.198 -20.548  0.00  0.00    +0.102 C 
ATOM      4  C   UNL     1      36.803 -19.560 -20.934  0.00  0.00    +0.038 C 
ATOM      5  C   UNL     1      34.077 -19.152 -21.366  0.00  0.00    +0.016 C 
ATOM      6  C   UNL     1      36.375 -18.514 -21.752  0.00  0.00    +0.006 C 
ENDROOT
BRANCH   2   9
ATOM      7  S   UNL     1      34.370 -17.529 -24.494  0.00  0.00    -0.065 S 
ATOM      8  N   UNL     1      34.303 -16.010 -22.403  0.00  0.00    -0.403 NA
ATOM      9  C   UNL     1      34.571 -17.229 -22.815  0.00  0.00    +0.157 C 
ATOM     10  C   UNL     1      33.909 -15.247 -23.486  0.00  0.00    +0.109 C 
ATOM     11  C   UNL     1      33.883 -15.897 -24.703  0.00  0.00    +0.200 C 
ATOM     12  C   UNL     1      33.559 -13.832 -23.247  0.00  0.00    +0.063 C 
BRANCH  11  14
ATOM     13  O   UNL     1      33.915 -14.370 -26.549  0.00  0.00    -0.249 OA
ATOM     14  C   UNL     1      33.532 -15.420 -25.998  0.00  0.00    +0.330 C 
BRANCH  14  15
ATOM     15  O   UNL     1      32.672 -16.259 -26.666  0.00  0.00    -0.479 OA
ATOM     16  H   UNL     1      32.183 -16.902 -26.193  0.00  0.00    +0.295 HD
ENDBRANCH  14  15
ENDBRANCH  11  14
ENDBRANCH   2   9
BRANCH   3  18
ATOM     17  N   UNL     1      32.740 -21.744 -19.447  0.00  0.00    -0.191 NA
ATOM     18  C   UNL     1      33.531 -21.051 -19.939  0.00  0.00    +0.103 C 
ENDBRANCH   3  18
BRANCH   1  19
ATOM     19  O   UNL     1      36.313 -21.415 -19.536  0.00  0.00    -0.475 OA
BRANCH  19  20
ATOM     20  C   UNL     1      36.765 -21.059 -18.236  0.00  0.00    +0.205 C 
BRANCH  20  21
ATOM     21  C   UNL     1      36.692 -22.274 -17.307  0.00  0.00    +0.044 C 
ATOM     22  C   UNL     1      37.432 -22.017 -15.993  0.00  0.00    +0.004 C 
ATOM     23  C   UNL     1      35.236 -22.648 -17.033  0.00  0.00    +0.004 C 
ENDBRANCH  20  21
ENDBRANCH  19  20
ENDBRANCH   1  19
TORSDOF 7
ENDMDL
MODEL 9
REMARK VINA RESULT:      -8.4      1.594      2.525
REMARK  Name = 134018
REMARK  7 active torsions:
REMARK  status: ('A' for Active; 'I' for Inactive)
REMARK    1  A    between atoms: C_1  and  O_19
REMARK    2  A    between atoms: C_2  and  C_9
REMARK    3  A    between atoms: C_3  and  C_18
REMARK    4  A    between atoms: C_11  and  C_14
REMARK    5  A    between atoms: C_14  and  O_15
REMARK    6  A    between atoms: O_19  and  C_20
REMARK    7  A    between atoms: C_20  and  C_21
REMARK                            x       y       z     vdW  Elec       q    Type
REMARK                         _______ _______ _______ _____ _____    ______ ____
ROOT
ATOM      1  C   UNL     1      33.846 -21.755 -19.237  0.00  0.00    +0.148 C 
ATOM      2  C   UNL     1      34.117 -19.613 -20.993  0.00  0.00    +0.036 C 
ATOM      3  C   UNL     1      35.095 -21.173 -19.428  0.00  0.00    +0.102 C 
ATOM      4  C   UNL     1      32.731 -21.274 -19.918  0.00  0.00    +0.038 C 
ATOM      5  C   UNL     1      35.231 -20.098 -20.308  0.00  0.00    +0.016 C 
ATOM      6  C   UNL     1      32.868 -20.201 -20.798  0.00  0.00    +0.006 C 
ENDROOT
BRANCH   2   9
ATOM      7  S   UNL     1      33.998 -16.912 -21.306  0.00  0.00    -0.065 S 
ATOM      8  N   UNL     1      34.574 -18.604 -23.174  0.00  0.00    -0.403 NA
ATOM      9  C   UNL     1      34.257 -18.502 -21.902  0.00  0.00    +0.157 C 
ATOM     10  C   UNL     1      34.617 -17.339 -23.728  0.00  0.00    +0.109 C 
ATOM     11  C   UNL     1      34.334 -16.296 -22.871  0.00  0.00    +0.200 C 
ATOM     12  C   UNL     1      34.956 -17.220 -25.161  0.00  0.00    +0.063 C 
BRANCH  11  14
ATOM     13  O   UNL     1      33.669 -14.293 -24.004  0.00  0.00    -0.249 OA
ATOM     14  C   UNL     1      34.290 -14.891 -23.106  0.00  0.00    +0.330 C 
BRANCH  14  15
ATOM     15  O   UNL     1      35.037 -14.171 -22.205  0.00  0.00    -0.479 OA
ATOM     16  H   UNL     1      34.795 -14.157 -21.301  0.00  0.00    +0.295 HD
ENDBRANCH  14  15
ENDBRANCH  11  14
ENDBRANCH   2   9
BRANCH   3  18
ATOM     17  N   UNL     1      37.183 -22.050 -18.169  0.00  0.00    -0.191 NA
ATOM     18  C   UNL     1      36.248 -21.657 -18.733  0.00  0.00    +0.103 C 
ENDBRANCH   3  18
BRANCH   1  19
ATOM     19  O   UNL     1      33.683 -22.812 -18.380  0.00  0.00    -0.475 OA
BRANCH  19  20
ATOM     20  C   UNL     1      32.589 -22.742 -17.475  0.00  0.00    +0.205 C 
BRANCH  20  21
ATOM     21  C   UNL     1      32.950 -23.447 -16.164  0.00  0.00    +0.044 C 
ATOM     22  C   UNL     1      34.381 -23.123 -15.733  0.00  0.00    +0.004 C 
ATOM     23  C   UNL     1      31.963 -23.062 -15.064  0.00  0.00    +0.004 C 
ENDBRANCH  20  21
ENDBRANCH  19  20
ENDBRANCH   1  19
TORSDOF 7
ENDMDL
