MODEL 1
REMARK VINA RESULT:      -8.8      0.000      0.000
REMARK  Name = 9543443
REMARK  9 active torsions:
REMARK  status: ('A' for Active; 'I' for Inactive)
REMARK    1  A    between atoms: N_2  and  C_18
REMARK    2  A    between atoms: C_3  and  C_5
REMARK    3  A    between atoms: C_6  and  C_11
REMARK    4  A    between atoms: C_18  and  C_19
REMARK    5  A    between atoms: C_18  and  C_25
REMARK    6  A    between atoms: C_19  and  S_20
REMARK    7  A    between atoms: S_20  and  C_22
REMARK    8  A    between atoms: C_22  and  S_23
REMARK    9  A    between atoms: C_25  and  O_26
REMARK                            x       y       z     vdW  Elec       q    Type
REMARK                         _______ _______ _______ _____ _____    ______ ____
ROOT
ATOM      1  O   UNK A   0      35.291 -18.194 -24.808  0.00  0.00    -0.270 OA
ATOM      2  N   UNK A   1      34.503 -16.947 -23.015  0.00  0.00    -0.299 N 
ATOM      3  C   UNK A   0      34.879 -18.115 -23.656  0.00  0.00    +0.246 C 
ATOM      4  H   UNK A   1      34.184 -16.995 -22.085  0.00  0.00    +0.150 HD
ENDROOT
BRANCH   3   5
ATOM      5  C   UNK A   0      34.723 -19.305 -22.775  0.00  0.00    +0.058 C 
ATOM      6  C   UNK A   0      34.650 -19.146 -21.453  0.00  0.00    +0.011 C 
BRANCH   6  11
ATOM      7  O   UNK A   0      32.125 -20.245 -20.822  0.00  0.00    -0.267 OA
ATOM      8  O   UNK A   0      33.887 -23.379 -17.965  0.00  0.00    -0.247 OA
ATOM      9  N   UNK A   0      35.298 -21.920 -19.038  0.00  0.00    -0.310 N 
ATOM     10  N   UNK A   0      32.999 -21.814 -19.397  0.00  0.00    -0.275 N 
ATOM     11  C   UNK A   0      34.501 -20.256 -20.539  0.00  0.00    +0.068 A 
ATOM     12  C   UNK A   0      35.523 -20.869 -19.903  0.00  0.00    +0.042 A 
ATOM     13  C   UNK A   0      33.105 -20.753 -20.281  0.00  0.00    +0.262 A 
ATOM     14  C   UNK A   0      36.984 -20.521 -20.033  0.00  0.00    +0.050 C 
ATOM     15  C   UNK A   0      34.052 -22.439 -18.743  0.00  0.00    +0.327 A 
ATOM     16  H   UNK A   0      36.079 -22.330 -18.600  0.00  0.00    +0.170 HD
ATOM     17  H   UNK A   0      32.095 -22.156 -19.216  0.00  0.00    +0.173 HD
ENDBRANCH   6  11
ENDBRANCH   3   5
BRANCH   2  18
ATOM     18  C   UNK A   1      34.561 -15.659 -23.668  0.00  0.00    +0.114 C 
BRANCH  18  19
ATOM     19  C   UNK A   1      34.343 -14.532 -22.657  0.00  0.00    +0.115 C 
BRANCH  19  20
ATOM     20  S   UNK A   1      33.700 -15.170 -21.073  0.00  0.00    +0.055 S 
ATOM     21  O   UNK A   1      34.854 -15.207 -20.122  0.00  0.00    -0.255 OA
BRANCH  20  22
ATOM     22  C   UNK A   1      32.706 -13.695 -20.692  0.00  0.00    +0.149 C 
BRANCH  22  23
ATOM     23  S   UNK A   1      32.213 -12.832 -22.209  0.00  0.00    -0.125 S 
ATOM     24  C   UNK A   1      31.233 -11.510 -21.460  0.00  0.00    +0.070 C 
ENDBRANCH  22  23
ENDBRANCH  20  22
ENDBRANCH  19  20
ENDBRANCH  18  19
BRANCH  18  25
ATOM     25  C   UNK A   1      33.542 -15.602 -24.808  0.00  0.00    +0.158 C 
BRANCH  25  26
ATOM     26  O   UNK A   1      34.170 -15.864 -26.056  0.00  0.00    -0.380 OA
ATOM     27  H   UNK A   1      33.501 -16.127 -26.707  0.00  0.00    +0.211 HD
ENDBRANCH  25  26
ENDBRANCH  18  25
ENDBRANCH   2  18
TORSDOF 9
ENDMDL
MODEL 2
REMARK VINA RESULT:      -8.3      1.513      2.141
REMARK  Name = 9543443
REMARK  9 active torsions:
REMARK  status: ('A' for Active; 'I' for Inactive)
REMARK    1  A    between atoms: N_2  and  C_18
REMARK    2  A    between atoms: C_3  and  C_5
REMARK    3  A    between atoms: C_6  and  C_11
REMARK    4  A    between atoms: C_18  and  C_19
REMARK    5  A    between atoms: C_18  and  C_25
REMARK    6  A    between atoms: C_19  and  S_20
REMARK    7  A    between atoms: S_20  and  C_22
REMARK    8  A    between atoms: C_22  and  S_23
REMARK    9  A    between atoms: C_25  and  O_26
REMARK                            x       y       z     vdW  Elec       q    Type
REMARK                         _______ _______ _______ _____ _____    ______ ____
ROOT
ATOM      1  O   UNK A   0      34.890 -17.576 -25.546  0.00  0.00    -0.270 OA
ATOM      2  N   UNK A   1      34.325 -16.297 -23.693  0.00  0.00    -0.299 N 
ATOM      3  C   UNK A   0      34.715 -17.458 -24.338  0.00  0.00    +0.246 C 
ATOM      4  H   UNK A   1      34.213 -16.311 -22.715  0.00  0.00    +0.150 HD
ENDROOT
BRANCH   3   5
ATOM      5  C   UNK A   0      34.903 -18.587 -23.385  0.00  0.00    +0.058 C 
ATOM      6  C   UNK A   0      34.868 -18.357 -22.072  0.00  0.00    +0.011 C 
BRANCH   6  11
ATOM      7  O   UNK A   0      37.416 -19.081 -21.087  0.00  0.00    -0.267 OA
ATOM      8  O   UNK A   0      35.735 -22.348 -18.331  0.00  0.00    -0.247 OA
ATOM      9  N   UNK A   0      34.290 -21.120 -19.626  0.00  0.00    -0.310 N 
ATOM     10  N   UNK A   0      36.581 -20.711 -19.707  0.00  0.00    -0.275 N 
ATOM     11  C   UNK A   0      35.044 -19.404 -21.091  0.00  0.00    +0.068 A 
ATOM     12  C   UNK A   0      34.039 -20.131 -20.555  0.00  0.00    +0.042 A 
ATOM     13  C   UNK A   0      36.449 -19.699 -20.644  0.00  0.00    +0.262 A 
ATOM     14  C   UNK A   0      32.573 -19.981 -20.869  0.00  0.00    +0.050 C 
ATOM     15  C   UNK A   0      35.546 -21.458 -19.162  0.00  0.00    +0.327 A 
ATOM     16  H   UNK A   0      33.521 -21.620 -19.269  0.00  0.00    +0.170 HD
ATOM     17  H   UNK A   0      37.493 -20.919 -19.400  0.00  0.00    +0.173 HD
ENDBRANCH   6  11
ENDBRANCH   3   5
BRANCH   2  18
ATOM     18  C   UNK A   1      34.077 -15.066 -24.408  0.00  0.00    +0.114 C 
BRANCH  18  19
ATOM     19  C   UNK A   1      33.605 -13.972 -23.449  0.00  0.00    +0.115 C 
BRANCH  19  20
ATOM     20  S   UNK A   1      33.145 -14.661 -21.823  0.00  0.00    +0.055 S 
ATOM     21  O   UNK A   1      34.407 -14.768 -21.027  0.00  0.00    -0.255 OA
BRANCH  20  22
ATOM     22  C   UNK A   1      32.253 -13.178 -21.263  0.00  0.00    +0.149 C 
BRANCH  22  23
ATOM     23  S   UNK A   1      32.158 -11.937 -22.581  0.00  0.00    -0.125 S 
ATOM     24  C   UNK A   1      31.083 -10.743 -21.751  0.00  0.00    +0.070 C 
ENDBRANCH  22  23
ENDBRANCH  20  22
ENDBRANCH  19  20
ENDBRANCH  18  19
BRANCH  18  25
ATOM     25  C   UNK A   1      33.067 -15.308 -25.532  0.00  0.00    +0.158 C 
BRANCH  25  26
ATOM     26  O   UNK A   1      33.669 -15.091 -26.802  0.00  0.00    -0.380 OA
ATOM     27  H   UNK A   1      33.146 -14.446 -27.302  0.00  0.00    +0.211 HD
ENDBRANCH  25  26
ENDBRANCH  18  25
ENDBRANCH   2  18
TORSDOF 9
ENDMDL
MODEL 3
REMARK VINA RESULT:      -8.0      8.905     11.740
REMARK  Name = 9543443
REMARK  9 active torsions:
REMARK  status: ('A' for Active; 'I' for Inactive)
REMARK    1  A    between atoms: N_2  and  C_18
REMARK    2  A    between atoms: C_3  and  C_5
REMARK    3  A    between atoms: C_6  and  C_11
REMARK    4  A    between atoms: C_18  and  C_19
REMARK    5  A    between atoms: C_18  and  C_25
REMARK    6  A    between atoms: C_19  and  S_20
REMARK    7  A    between atoms: S_20  and  C_22
REMARK    8  A    between atoms: C_22  and  S_23
REMARK    9  A    between atoms: C_25  and  O_26
REMARK                            x       y       z     vdW  Elec       q    Type
REMARK                         _______ _______ _______ _____ _____    ______ ____
ROOT
ATOM      1  O   UNK A   0      35.527 -22.906 -14.625  0.00  0.00    -0.270 OA
ATOM      2  N   UNK A   1      35.207 -24.828 -13.362  0.00  0.00    -0.299 N 
ATOM      3  C   UNK A   0      34.839 -23.861 -14.282  0.00  0.00    +0.246 C 
ATOM      4  H   UNK A   1      34.577 -25.556 -13.158  0.00  0.00    +0.150 HD
ENDROOT
BRANCH   3   5
ATOM      5  C   UNK A   0      33.475 -24.105 -14.827  0.00  0.00    +0.058 C 
ATOM      6  C   UNK A   0      32.576 -23.120 -14.828  0.00  0.00    +0.011 C 
BRANCH   6  11
ATOM      7  O   UNK A   0      31.850 -22.315 -17.438  0.00  0.00    -0.267 OA
ATOM      8  O   UNK A   0      27.487 -23.663 -16.946  0.00  0.00    -0.247 OA
ATOM      9  N   UNK A   0      28.952 -23.946 -15.201  0.00  0.00    -0.310 N 
ATOM     10  N   UNK A   0      29.672 -22.989 -17.199  0.00  0.00    -0.275 N 
ATOM     11  C   UNK A   0      31.234 -23.287 -15.339  0.00  0.00    +0.068 A 
ATOM     12  C   UNK A   0      30.210 -23.827 -14.644  0.00  0.00    +0.042 A 
ATOM     13  C   UNK A   0      30.969 -22.819 -16.744  0.00  0.00    +0.262 A 
ATOM     14  C   UNK A   0      30.277 -24.356 -13.234  0.00  0.00    +0.050 C 
ATOM     15  C   UNK A   0      28.621 -23.542 -16.480  0.00  0.00    +0.327 A 
ATOM     16  H   UNK A   0      28.242 -24.346 -14.649  0.00  0.00    +0.170 HD
ATOM     17  H   UNK A   0      29.477 -22.691 -18.116  0.00  0.00    +0.173 HD
ENDBRANCH   6  11
ENDBRANCH   3   5
BRANCH   2  18
ATOM     18  C   UNK A   1      36.487 -24.803 -12.692  0.00  0.00    +0.114 C 
BRANCH  18  19
ATOM     19  C   UNK A   1      37.153 -26.179 -12.751  0.00  0.00    +0.115 C 
BRANCH  19  20
ATOM     20  S   UNK A   1      37.702 -26.583 -14.444  0.00  0.00    +0.055 S 
ATOM     21  O   UNK A   1      36.466 -26.802 -15.258  0.00  0.00    -0.255 OA
BRANCH  20  22
ATOM     22  C   UNK A   1      38.331 -24.917 -14.816  0.00  0.00    +0.149 C 
BRANCH  22  23
ATOM     23  S   UNK A   1      40.124 -24.943 -15.088  0.00  0.00    -0.125 S 
ATOM     24  C   UNK A   1      40.505 -26.486 -14.226  0.00  0.00    +0.070 C 
ENDBRANCH  22  23
ENDBRANCH  20  22
ENDBRANCH  19  20
ENDBRANCH  18  19
BRANCH  18  25
ATOM     25  C   UNK A   1      36.314 -24.320 -11.250  0.00  0.00    +0.158 C 
BRANCH  25  26
ATOM     26  O   UNK A   1      35.274 -25.040 -10.601  0.00  0.00    -0.380 OA
ATOM     27  H   UNK A   1      35.622 -25.884 -10.272  0.00  0.00    +0.211 HD
ENDBRANCH  25  26
ENDBRANCH  18  25
ENDBRANCH   2  18
TORSDOF 9
ENDMDL
MODEL 4
REMARK VINA RESULT:      -7.9      1.452      1.859
REMARK  Name = 9543443
REMARK  9 active torsions:
REMARK  status: ('A' for Active; 'I' for Inactive)
REMARK    1  A    between atoms: N_2  and  C_18
REMARK    2  A    between atoms: C_3  and  C_5
REMARK    3  A    between atoms: C_6  and  C_11
REMARK    4  A    between atoms: C_18  and  C_19
REMARK    5  A    between atoms: C_18  and  C_25
REMARK    6  A    between atoms: C_19  and  S_20
REMARK    7  A    between atoms: S_20  and  C_22
REMARK    8  A    between atoms: C_22  and  S_23
REMARK    9  A    between atoms: C_25  and  O_26
REMARK                            x       y       z     vdW  Elec       q    Type
REMARK                         _______ _______ _______ _____ _____    ______ ____
ROOT
ATOM      1  O   UNK A   0      36.026 -17.401 -23.150  0.00  0.00    -0.270 OA
ATOM      2  N   UNK A   1      33.969 -16.402 -22.747  0.00  0.00    -0.299 N 
ATOM      3  C   UNK A   0      34.975 -17.326 -22.522  0.00  0.00    +0.246 C 
ATOM      4  H   UNK A   1      33.163 -16.429 -22.183  0.00  0.00    +0.150 HD
ENDROOT
BRANCH   3   5
ATOM      5  C   UNK A   0      34.638 -18.253 -21.407  0.00  0.00    +0.058 C 
ATOM      6  C   UNK A   0      34.826 -19.564 -21.556  0.00  0.00    +0.011 C 
BRANCH   6  11
ATOM      7  O   UNK A   0      32.169 -20.262 -20.892  0.00  0.00    -0.267 OA
ATOM      8  O   UNK A   0      33.462 -23.190 -17.598  0.00  0.00    -0.247 OA
ATOM      9  N   UNK A   0      35.068 -22.062 -18.789  0.00  0.00    -0.310 N 
ATOM     10  N   UNK A   0      32.809 -21.728 -19.249  0.00  0.00    -0.275 N 
ATOM     11  C   UNK A   0      34.519 -20.521 -20.517  0.00  0.00    +0.068 A 
ATOM     12  C   UNK A   0      35.442 -21.165 -19.770  0.00  0.00    +0.042 A 
ATOM     13  C   UNK A   0      33.067 -20.810 -20.254  0.00  0.00    +0.262 A 
ATOM     14  C   UNK A   0      36.937 -21.015 -19.885  0.00  0.00    +0.050 C 
ATOM     15  C   UNK A   0      33.761 -22.385 -18.481  0.00  0.00    +0.327 A 
ATOM     16  H   UNK A   0      35.782 -22.502 -18.274  0.00  0.00    +0.170 HD
ATOM     17  H   UNK A   0      31.865 -21.932 -19.062  0.00  0.00    +0.173 HD
ENDBRANCH   6  11
ENDBRANCH   3   5
BRANCH   2  18
ATOM     18  C   UNK A   1      34.065 -15.398 -23.783  0.00  0.00    +0.114 C 
BRANCH  18  19
ATOM     19  C   UNK A   1      33.159 -14.208 -23.465  0.00  0.00    +0.115 C 
BRANCH  19  20
ATOM     20  S   UNK A   1      33.873 -12.643 -24.074  0.00  0.00    +0.055 S 
ATOM     21  O   UNK A   1      33.541 -12.554 -25.530  0.00  0.00    -0.255 OA
BRANCH  20  22
ATOM     22  C   UNK A   1      32.716 -11.570 -23.168  0.00  0.00    +0.149 C 
BRANCH  22  23
ATOM     23  S   UNK A   1      31.902 -12.477 -21.825  0.00  0.00    -0.125 S 
ATOM     24  C   UNK A   1      30.787 -11.172 -21.258  0.00  0.00    +0.070 C 
ENDBRANCH  22  23
ENDBRANCH  20  22
ENDBRANCH  19  20
ENDBRANCH  18  19
BRANCH  18  25
ATOM     25  C   UNK A   1      33.731 -16.016 -25.143  0.00  0.00    +0.158 C 
BRANCH  25  26
ATOM     26  O   UNK A   1      34.908 -16.496 -25.778  0.00  0.00    -0.380 OA
ATOM     27  H   UNK A   1      35.205 -15.852 -26.439  0.00  0.00    +0.211 HD
ENDBRANCH  25  26
ENDBRANCH  18  25
ENDBRANCH   2  18
TORSDOF 9
ENDMDL
MODEL 5
REMARK VINA RESULT:      -7.9      3.706      6.448
REMARK  Name = 9543443
REMARK  9 active torsions:
REMARK  status: ('A' for Active; 'I' for Inactive)
REMARK    1  A    between atoms: N_2  and  C_18
REMARK    2  A    between atoms: C_3  and  C_5
REMARK    3  A    between atoms: C_6  and  C_11
REMARK    4  A    between atoms: C_18  and  C_19
REMARK    5  A    between atoms: C_18  and  C_25
REMARK    6  A    between atoms: C_19  and  S_20
REMARK    7  A    between atoms: S_20  and  C_22
REMARK    8  A    between atoms: C_22  and  S_23
REMARK    9  A    between atoms: C_25  and  O_26
REMARK                            x       y       z     vdW  Elec       q    Type
REMARK                         _______ _______ _______ _____ _____    ______ ____
ROOT
ATOM      1  O   UNK A   0      34.170 -23.328 -19.582  0.00  0.00    -0.270 OA
ATOM      2  N   UNK A   1      34.801 -21.133 -19.168  0.00  0.00    -0.299 N 
ATOM      3  C   UNK A   0      34.549 -22.448 -18.817  0.00  0.00    +0.246 C 
ATOM      4  H   UNK A   1      35.104 -20.504 -18.473  0.00  0.00    +0.150 HD
ENDROOT
BRANCH   3   5
ATOM      5  C   UNK A   0      34.790 -22.692 -17.368  0.00  0.00    +0.058 C 
ATOM      6  C   UNK A   0      34.058 -23.599 -16.719  0.00  0.00    +0.011 C 
BRANCH   6  11
ATOM      7  O   UNK A   0      36.315 -24.991 -15.742  0.00  0.00    -0.267 OA
ATOM      8  O   UNK A   0      34.896 -24.801 -11.378  0.00  0.00    -0.247 OA
ATOM      9  N   UNK A   0      33.605 -23.849 -13.020  0.00  0.00    -0.310 N 
ATOM     10  N   UNK A   0      35.613 -24.896 -13.562  0.00  0.00    -0.275 N 
ATOM     11  C   UNK A   0      34.236 -23.886 -15.313  0.00  0.00    +0.068 A 
ATOM     12  C   UNK A   0      33.366 -23.532 -14.342  0.00  0.00    +0.042 A 
ATOM     13  C   UNK A   0      35.478 -24.635 -14.915  0.00  0.00    +0.262 A 
ATOM     14  C   UNK A   0      32.076 -22.778 -14.539  0.00  0.00    +0.050 C 
ATOM     15  C   UNK A   0      34.715 -24.534 -12.567  0.00  0.00    +0.327 A 
ATOM     16  H   UNK A   0      32.937 -23.568 -12.354  0.00  0.00    +0.170 HD
ATOM     17  H   UNK A   0      36.420 -25.384 -13.279  0.00  0.00    +0.173 HD
ENDBRANCH   6  11
ENDBRANCH   3   5
BRANCH   2  18
ATOM     18  C   UNK A   1      34.635 -20.653 -20.520  0.00  0.00    +0.114 C 
BRANCH  18  19
ATOM     19  C   UNK A   1      35.647 -19.547 -20.828  0.00  0.00    +0.115 C 
BRANCH  19  20
ATOM     20  S   UNK A   1      34.819 -18.024 -21.400  0.00  0.00    +0.055 S 
ATOM     21  O   UNK A   1      35.258 -16.925 -20.486  0.00  0.00    -0.255 OA
BRANCH  20  22
ATOM     22  C   UNK A   1      35.775 -17.887 -22.942  0.00  0.00    +0.149 C 
BRANCH  22  23
ATOM     23  S   UNK A   1      34.743 -18.267 -24.384  0.00  0.00    -0.125 S 
ATOM     24  C   UNK A   1      34.444 -16.578 -24.954  0.00  0.00    +0.070 C 
ENDBRANCH  22  23
ENDBRANCH  20  22
ENDBRANCH  19  20
ENDBRANCH  18  19
BRANCH  18  25
ATOM     25  C   UNK A   1      33.196 -20.178 -20.734  0.00  0.00    +0.158 C 
BRANCH  25  26
ATOM     26  O   UNK A   1      32.385 -20.518 -19.617  0.00  0.00    -0.380 OA
ATOM     27  H   UNK A   1      32.728 -20.081 -18.822  0.00  0.00    +0.211 HD
ENDBRANCH  25  26
ENDBRANCH  18  25
ENDBRANCH   2  18
TORSDOF 9
ENDMDL
MODEL 6
REMARK VINA RESULT:      -7.8      1.952      2.990
REMARK  Name = 9543443
REMARK  9 active torsions:
REMARK  status: ('A' for Active; 'I' for Inactive)
REMARK    1  A    between atoms: N_2  and  C_18
REMARK    2  A    between atoms: C_3  and  C_5
REMARK    3  A    between atoms: C_6  and  C_11
REMARK    4  A    between atoms: C_18  and  C_19
REMARK    5  A    between atoms: C_18  and  C_25
REMARK    6  A    between atoms: C_19  and  S_20
REMARK    7  A    between atoms: S_20  and  C_22
REMARK    8  A    between atoms: C_22  and  S_23
REMARK    9  A    between atoms: C_25  and  O_26
REMARK                            x       y       z     vdW  Elec       q    Type
REMARK                         _______ _______ _______ _____ _____    ______ ____
ROOT
ATOM      1  O   UNK A   0      34.928 -14.636 -21.696  0.00  0.00    -0.270 OA
ATOM      2  N   UNK A   1      34.158 -16.106 -23.320  0.00  0.00    -0.299 N 
ATOM      3  C   UNK A   0      34.608 -15.764 -22.056  0.00  0.00    +0.246 C 
ATOM      4  H   UNK A   1      33.927 -17.045 -23.505  0.00  0.00    +0.150 HD
ENDROOT
BRANCH   3   5
ATOM      5  C   UNK A   0      34.670 -16.945 -21.151  0.00  0.00    +0.058 C 
ATOM      6  C   UNK A   0      34.885 -18.159 -21.660  0.00  0.00    +0.011 C 
BRANCH   6  11
ATOM      7  O   UNK A   0      37.341 -19.197 -20.723  0.00  0.00    -0.267 OA
ATOM      8  O   UNK A   0      35.346 -22.707 -18.534  0.00  0.00    -0.247 OA
ATOM      9  N   UNK A   0      34.036 -21.204 -19.671  0.00  0.00    -0.310 N 
ATOM     10  N   UNK A   0      36.350 -20.949 -19.626  0.00  0.00    -0.275 N 
ATOM     11  C   UNK A   0      34.955 -19.348 -20.841  0.00  0.00    +0.068 A 
ATOM     12  C   UNK A   0      33.886 -20.073 -20.448  0.00  0.00    +0.042 A 
ATOM     13  C   UNK A   0      36.320 -19.804 -20.404  0.00  0.00    +0.262 A 
ATOM     14  C   UNK A   0      32.445 -19.777 -20.778  0.00  0.00    +0.050 C 
ATOM     15  C   UNK A   0      35.248 -21.693 -19.227  0.00  0.00    +0.327 A 
ATOM     16  H   UNK A   0      33.222 -21.695 -19.414  0.00  0.00    +0.170 HD
ATOM     17  H   UNK A   0      37.234 -21.264 -19.328  0.00  0.00    +0.173 HD
ENDBRANCH   6  11
ENDBRANCH   3   5
BRANCH   2  18
ATOM     18  C   UNK A   1      34.017 -15.130 -24.376  0.00  0.00    +0.114 C 
BRANCH  18  19
ATOM     19  C   UNK A   1      33.073 -14.005 -23.947  0.00  0.00    +0.115 C 
BRANCH  19  20
ATOM     20  S   UNK A   1      33.823 -12.363 -24.221  0.00  0.00    +0.055 S 
ATOM     21  O   UNK A   1      33.555 -11.999 -25.647  0.00  0.00    -0.255 OA
BRANCH  20  22
ATOM     22  C   UNK A   1      32.634 -11.464 -23.178  0.00  0.00    +0.149 C 
BRANCH  22  23
ATOM     23  S   UNK A   1      31.955 -12.540 -21.886  0.00  0.00    -0.125 S 
ATOM     24  C   UNK A   1      31.084 -11.284 -20.921  0.00  0.00    +0.070 C 
ENDBRANCH  22  23
ENDBRANCH  20  22
ENDBRANCH  19  20
ENDBRANCH  18  19
BRANCH  18  25
ATOM     25  C   UNK A   1      33.537 -15.812 -25.659  0.00  0.00    +0.158 C 
BRANCH  25  26
ATOM     26  O   UNK A   1      33.649 -14.930 -26.768  0.00  0.00    -0.380 OA
ATOM     27  H   UNK A   1      34.585 -14.772 -26.964  0.00  0.00    +0.211 HD
ENDBRANCH  25  26
ENDBRANCH  18  25
ENDBRANCH   2  18
TORSDOF 9
ENDMDL
MODEL 7
REMARK VINA RESULT:      -7.7      2.060      2.720
REMARK  Name = 9543443
REMARK  9 active torsions:
REMARK  status: ('A' for Active; 'I' for Inactive)
REMARK    1  A    between atoms: N_2  and  C_18
REMARK    2  A    between atoms: C_3  and  C_5
REMARK    3  A    between atoms: C_6  and  C_11
REMARK    4  A    between atoms: C_18  and  C_19
REMARK    5  A    between atoms: C_18  and  C_25
REMARK    6  A    between atoms: C_19  and  S_20
REMARK    7  A    between atoms: S_20  and  C_22
REMARK    8  A    between atoms: C_22  and  S_23
REMARK    9  A    between atoms: C_25  and  O_26
REMARK                            x       y       z     vdW  Elec       q    Type
REMARK                         _______ _______ _______ _____ _____    ______ ____
ROOT
ATOM      1  O   UNK A   0      37.154 -19.489 -21.307  0.00  0.00    -0.270 OA
ATOM      2  N   UNK A   1      35.019 -19.007 -22.081  0.00  0.00    -0.299 N 
ATOM      3  C   UNK A   0      35.934 -19.536 -21.188  0.00  0.00    +0.246 C 
ATOM      4  H   UNK A   1      34.058 -19.100 -21.890  0.00  0.00    +0.150 HD
ENDROOT
BRANCH   3   5
ATOM      5  C   UNK A   0      35.265 -20.193 -20.032  0.00  0.00    +0.058 C 
ATOM      6  C   UNK A   0      35.709 -21.372 -19.592  0.00  0.00    +0.011 C 
BRANCH   6  11
ATOM      7  O   UNK A   0      33.115 -22.484 -19.738  0.00  0.00    -0.267 OA
ATOM      8  O   UNK A   0      33.238 -24.050 -15.422  0.00  0.00    -0.247 OA
ATOM      9  N   UNK A   0      35.055 -22.924 -16.259  0.00  0.00    -0.310 N 
ATOM     10  N   UNK A   0      33.173 -23.271 -17.585  0.00  0.00    -0.275 N 
ATOM     11  C   UNK A   0      35.107 -22.067 -18.477  0.00  0.00    +0.068 A 
ATOM     12  C   UNK A   0      35.700 -22.253 -17.278  0.00  0.00    +0.042 A 
ATOM     13  C   UNK A   0      33.720 -22.615 -18.675  0.00  0.00    +0.262 A 
ATOM     14  C   UNK A   0      37.080 -21.786 -16.890  0.00  0.00    +0.050 C 
ATOM     15  C   UNK A   0      33.785 -23.457 -16.353  0.00  0.00    +0.327 A 
ATOM     16  H   UNK A   0      35.534 -23.029 -15.405  0.00  0.00    +0.170 HD
ATOM     17  H   UNK A   0      32.266 -23.639 -17.694  0.00  0.00    +0.173 HD
ENDBRANCH   6  11
ENDBRANCH   3   5
BRANCH   2  18
ATOM     18  C   UNK A   1      35.428 -18.322 -23.287  0.00  0.00    +0.114 C 
BRANCH  18  19
ATOM     19  C   UNK A   1      35.334 -16.806 -23.104  0.00  0.00    +0.115 C 
BRANCH  19  20
ATOM     20  S   UNK A   1      34.367 -16.371 -21.618  0.00  0.00    +0.055 S 
ATOM     21  O   UNK A   1      35.279 -16.538 -20.445  0.00  0.00    -0.255 OA
BRANCH  20  22
ATOM     22  C   UNK A   1      34.266 -14.596 -22.003  0.00  0.00    +0.149 C 
BRANCH  22  23
ATOM     23  S   UNK A   1      33.353 -14.313 -23.544  0.00  0.00    -0.125 S 
ATOM     24  C   UNK A   1      32.323 -12.932 -22.997  0.00  0.00    +0.070 C 
ENDBRANCH  22  23
ENDBRANCH  20  22
ENDBRANCH  19  20
ENDBRANCH  18  19
BRANCH  18  25
ATOM     25  C   UNK A   1      34.588 -18.802 -24.472  0.00  0.00    +0.158 C 
BRANCH  25  26
ATOM     26  O   UNK A   1      34.139 -17.698 -25.248  0.00  0.00    -0.380 OA
ATOM     27  H   UNK A   1      34.883 -17.102 -25.423  0.00  0.00    +0.211 HD
ENDBRANCH  25  26
ENDBRANCH  18  25
ENDBRANCH   2  18
TORSDOF 9
ENDMDL
MODEL 8
REMARK VINA RESULT:      -7.7      4.426      9.009
REMARK  Name = 9543443
REMARK  9 active torsions:
REMARK  status: ('A' for Active; 'I' for Inactive)
REMARK    1  A    between atoms: N_2  and  C_18
REMARK    2  A    between atoms: C_3  and  C_5
REMARK    3  A    between atoms: C_6  and  C_11
REMARK    4  A    between atoms: C_18  and  C_19
REMARK    5  A    between atoms: C_18  and  C_25
REMARK    6  A    between atoms: C_19  and  S_20
REMARK    7  A    between atoms: S_20  and  C_22
REMARK    8  A    between atoms: C_22  and  S_23
REMARK    9  A    between atoms: C_25  and  O_26
REMARK                            x       y       z     vdW  Elec       q    Type
REMARK                         _______ _______ _______ _____ _____    ______ ____
ROOT
ATOM      1  O   UNK A   0      33.431 -24.011 -18.090  0.00  0.00    -0.270 OA
ATOM      2  N   UNK A   1      34.664 -23.247 -16.278  0.00  0.00    -0.299 N 
ATOM      3  C   UNK A   0      34.163 -23.179 -17.566  0.00  0.00    +0.246 C 
ATOM      4  H   UNK A   1      35.246 -22.522 -15.954  0.00  0.00    +0.150 HD
ENDROOT
BRANCH   3   5
ATOM      5  C   UNK A   0      34.623 -21.953 -18.276  0.00  0.00    +0.058 C 
ATOM      6  C   UNK A   0      34.168 -21.688 -19.501  0.00  0.00    +0.011 C 
BRANCH   6  11
ATOM      7  O   UNK A   0      32.292 -19.921 -20.661  0.00  0.00    -0.267 OA
ATOM      8  O   UNK A   0      35.533 -17.178 -22.411  0.00  0.00    -0.247 OA
ATOM      9  N   UNK A   0      36.160 -19.026 -21.203  0.00  0.00    -0.310 N 
ATOM     10  N   UNK A   0      33.905 -18.547 -21.534  0.00  0.00    -0.275 N 
ATOM     11  C   UNK A   0      34.572 -20.519 -20.249  0.00  0.00    +0.068 A 
ATOM     12  C   UNK A   0      35.854 -20.156 -20.471  0.00  0.00    +0.042 A 
ATOM     13  C   UNK A   0      33.482 -19.655 -20.820  0.00  0.00    +0.262 A 
ATOM     14  C   UNK A   0      37.079 -20.884 -19.981  0.00  0.00    +0.050 C 
ATOM     15  C   UNK A   0      35.224 -18.179 -21.763  0.00  0.00    +0.327 A 
ATOM     16  H   UNK A   0      37.111 -18.809 -21.335  0.00  0.00    +0.170 HD
ATOM     17  H   UNK A   0      33.208 -17.967 -21.915  0.00  0.00    +0.173 HD
ENDBRANCH   6  11
ENDBRANCH   3   5
BRANCH   2  18
ATOM     18  C   UNK A   1      34.361 -24.348 -15.392  0.00  0.00    +0.114 C 
BRANCH  18  19
ATOM     19  C   UNK A   1      33.512 -23.872 -14.212  0.00  0.00    +0.115 C 
BRANCH  19  20
ATOM     20  S   UNK A   1      31.788 -24.455 -14.350  0.00  0.00    +0.055 S 
ATOM     21  O   UNK A   1      31.322 -24.759 -12.962  0.00  0.00    -0.255 OA
BRANCH  20  22
ATOM     22  C   UNK A   1      31.106 -22.837 -14.829  0.00  0.00    +0.149 C 
BRANCH  22  23
ATOM     23  S   UNK A   1      30.009 -22.992 -16.265  0.00  0.00    -0.125 S 
ATOM     24  C   UNK A   1      28.964 -24.339 -15.661  0.00  0.00    +0.070 C 
ENDBRANCH  22  23
ENDBRANCH  20  22
ENDBRANCH  19  20
ENDBRANCH  18  19
BRANCH  18  25
ATOM     25  C   UNK A   1      35.655 -25.017 -14.925  0.00  0.00    +0.158 C 
BRANCH  25  26
ATOM     26  O   UNK A   1      35.765 -26.328 -15.463  0.00  0.00    -0.380 OA
ATOM     27  H   UNK A   1      35.304 -26.369 -16.315  0.00  0.00    +0.211 HD
ENDBRANCH  25  26
ENDBRANCH  18  25
ENDBRANCH   2  18
TORSDOF 9
ENDMDL
MODEL 9
REMARK VINA RESULT:      -7.6      3.223      4.882
REMARK  Name = 9543443
REMARK  9 active torsions:
REMARK  status: ('A' for Active; 'I' for Inactive)
REMARK    1  A    between atoms: N_2  and  C_18
REMARK    2  A    between atoms: C_3  and  C_5
REMARK    3  A    between atoms: C_6  and  C_11
REMARK    4  A    between atoms: C_18  and  C_19
REMARK    5  A    between atoms: C_18  and  C_25
REMARK    6  A    between atoms: C_19  and  S_20
REMARK    7  A    between atoms: S_20  and  C_22
REMARK    8  A    between atoms: C_22  and  S_23
REMARK    9  A    between atoms: C_25  and  O_26
REMARK                            x       y       z     vdW  Elec       q    Type
REMARK                         _______ _______ _______ _____ _____    ______ ____
ROOT
ATOM      1  O   UNK A   0      32.804 -13.413 -25.327  0.00  0.00    -0.270 OA
ATOM      2  N   UNK A   1      34.058 -12.639 -23.532  0.00  0.00    -0.299 N 
ATOM      3  C   UNK A   0      33.399 -13.606 -24.272  0.00  0.00    +0.246 C 
ATOM      4  H   UNK A   1      34.506 -12.902 -22.696  0.00  0.00    +0.150 HD
ENDROOT
BRANCH   3   5
ATOM      5  C   UNK A   0      33.485 -14.948 -23.633  0.00  0.00    +0.058 C 
ATOM      6  C   UNK A   0      34.680 -15.493 -23.396  0.00  0.00    +0.011 C 
BRANCH   6  11
ATOM      7  O   UNK A   0      35.031 -15.805 -20.609  0.00  0.00    -0.267 OA
ATOM      8  O   UNK A   0      35.320 -20.381 -20.872  0.00  0.00    -0.247 OA
ATOM      9  N   UNK A   0      35.002 -19.165 -22.793  0.00  0.00    -0.310 N 
ATOM     10  N   UNK A   0      35.173 -18.090 -20.734  0.00  0.00    -0.275 N 
ATOM     11  C   UNK A   0      34.838 -16.792 -22.781  0.00  0.00    +0.068 A 
ATOM     12  C   UNK A   0      34.838 -17.964 -23.453  0.00  0.00    +0.042 A 
ATOM     13  C   UNK A   0      35.019 -16.830 -21.288  0.00  0.00    +0.262 A 
ATOM     14  C   UNK A   0      34.667 -18.132 -24.941  0.00  0.00    +0.050 C 
ATOM     15  C   UNK A   0      35.175 -19.291 -21.429  0.00  0.00    +0.327 A 
ATOM     16  H   UNK A   0      34.995 -19.989 -23.332  0.00  0.00    +0.170 HD
ATOM     17  H   UNK A   0      35.291 -18.137 -19.759  0.00  0.00    +0.173 HD
ENDBRANCH   6  11
ENDBRANCH   3   5
BRANCH   2  18
ATOM     18  C   UNK A   1      34.111 -11.256 -23.948  0.00  0.00    +0.114 C 
BRANCH  18  19
ATOM     19  C   UNK A   1      32.766 -10.569 -23.704  0.00  0.00    +0.115 C 
BRANCH  19  20
ATOM     20  S   UNK A   1      32.983  -8.931 -22.928  0.00  0.00    +0.055 S 
ATOM     21  O   UNK A   1      32.276  -7.943 -23.800  0.00  0.00    -0.255 OA
BRANCH  20  22
ATOM     22  C   UNK A   1      31.916  -9.283 -21.498  0.00  0.00    +0.149 C 
BRANCH  22  23
ATOM     23  S   UNK A   1      31.245 -10.966 -21.583  0.00  0.00    -0.125 S 
ATOM     24  C   UNK A   1      31.518 -11.452 -19.864  0.00  0.00    +0.070 C 
ENDBRANCH  22  23
ENDBRANCH  20  22
ENDBRANCH  19  20
ENDBRANCH  18  19
BRANCH  18  25
ATOM     25  C   UNK A   1      34.533 -11.166 -25.416  0.00  0.00    +0.158 C 
BRANCH  25  26
ATOM     26  O   UNK A   1      35.735 -10.417 -25.547  0.00  0.00    -0.380 OA
ATOM     27  H   UNK A   1      36.492 -11.022 -25.577  0.00  0.00    +0.211 HD
ENDBRANCH  25  26
ENDBRANCH  18  25
ENDBRANCH   2  18
TORSDOF 9
ENDMDL
