MODEL 1
REMARK VINA RESULT:      -9.4      0.000      0.000
REMARK  Name = 58521
REMARK  7 active torsions:
REMARK  status: ('A' for Active; 'I' for Inactive)
REMARK    1  A    between atoms: N_3  and  C_25
REMARK    2  A    between atoms: C_5  and  C_9
REMARK    3  A    between atoms: C_5  and  C_17
REMARK    4  A    between atoms: C_14  and  O_15
REMARK    5  A    between atoms: C_22  and  O_23
REMARK    6  A    between atoms: C_25  and  C_26
REMARK    7  A    between atoms: C_26  and  N_27
REMARK                            x       y       z     vdW  Elec       q    Type
REMARK                         _______ _______ _______ _____ _____    ______ ____
ROOT
ATOM      1  O   UNL     1      35.251 -25.862 -15.648  0.00  0.00    -0.272 OA
ATOM      2  O   UNL     1      35.900 -23.187 -11.972  0.00  0.00    -0.252 OA
ATOM      3  N   UNL     1      35.770 -24.813 -13.644  0.00  0.00    -0.215 N 
ATOM      4  N   UNL     1      34.692 -22.893 -13.939  0.00  0.00    -0.277 N 
ATOM      5  C   UNL     1      34.367 -23.618 -15.165  0.00  0.00    +0.166 C 
ATOM      6  C   UNL     1      35.168 -24.910 -14.879  0.00  0.00    +0.256 C 
ATOM      7  C   UNL     1      35.506 -23.597 -13.056  0.00  0.00    +0.310 C 
ATOM      8  H   UNL     1      34.363 -21.984 -13.753  0.00  0.00    +0.152 HD
ENDROOT
BRANCH   5   9
ATOM      9  C   UNL     1      34.936 -22.960 -16.430  0.00  0.00    +0.006 C 
ATOM     10  C   UNL     1      36.217 -22.406 -16.415  0.00  0.00    +0.001 C 
ATOM     11  C   UNL     1      34.173 -22.913 -17.599  0.00  0.00    +0.001 C 
ATOM     12  C   UNL     1      36.735 -21.809 -17.565  0.00  0.00    +0.037 C 
ATOM     13  C   UNL     1      34.691 -22.317 -18.748  0.00  0.00    +0.037 C 
ATOM     14  C   UNL     1      35.971 -21.765 -18.732  0.00  0.00    +0.139 C 
BRANCH  14  15
ATOM     15  O   UNL     1      36.475 -21.181 -19.853  0.00  0.00    -0.471 OA
ATOM     16  C   UNL     1      35.606 -20.316 -20.582  0.00  0.00    +0.252 C 
ENDBRANCH  14  15
ENDBRANCH   5   9
BRANCH   5  17
ATOM     17  C   UNL     1      32.849 -23.810 -15.215  0.00  0.00    +0.006 C 
ATOM     18  C   UNL     1      32.230 -24.723 -14.359  0.00  0.00    +0.001 C 
ATOM     19  C   UNL     1      32.078 -23.071 -16.115  0.00  0.00    +0.001 C 
ATOM     20  C   UNL     1      30.846 -24.898 -14.403  0.00  0.00    +0.037 C 
ATOM     21  C   UNL     1      30.695 -23.245 -16.160  0.00  0.00    +0.037 C 
ATOM     22  C   UNL     1      30.079 -24.159 -15.303  0.00  0.00    +0.139 C 
BRANCH  22  23
ATOM     23  O   UNL     1      28.728 -24.329 -15.349  0.00  0.00    -0.471 OA
ATOM     24  C   UNL     1      27.960 -23.271 -15.920  0.00  0.00    +0.252 C 
ENDBRANCH  22  23
ENDBRANCH   5  17
BRANCH   3  25
ATOM     25  C   UNL     1      36.595 -25.853 -13.062  0.00  0.00    +0.080 C 
BRANCH  25  26
ATOM     26  C   UNL     1      37.778 -25.263 -12.308  0.00  0.00    -0.055 C 
BRANCH  26  27
ATOM     27  N   UNL     1      38.929 -25.123 -13.197  0.00  0.00    +0.388 N 
ATOM     28  C   UNL     1      39.583 -26.424 -13.403  0.00  0.00    -0.077 C 
ATOM     29  C   UNL     1      38.522 -24.525 -14.476  0.00  0.00    -0.077 C 
ATOM     30  C   UNL     1      40.819 -26.287 -14.291  0.00  0.00    -0.023 C 
ATOM     31  C   UNL     1      39.725 -24.325 -15.400  0.00  0.00    -0.023 C 
ATOM     32  C   UNL     1      40.475 -25.634 -15.625  0.00  0.00    -0.004 C 
ATOM     33  H   UNL     1      39.606 -24.498 -12.759  0.00  0.00    -0.080 HD
ENDBRANCH  26  27
ENDBRANCH  25  26
ENDBRANCH   3  25
TORSDOF 7
ENDMDL
MODEL 2
REMARK VINA RESULT:      -8.8      1.892      6.863
REMARK  Name = 58521
REMARK  7 active torsions:
REMARK  status: ('A' for Active; 'I' for Inactive)
REMARK    1  A    between atoms: N_3  and  C_25
REMARK    2  A    between atoms: C_5  and  C_9
REMARK    3  A    between atoms: C_5  and  C_17
REMARK    4  A    between atoms: C_14  and  O_15
REMARK    5  A    between atoms: C_22  and  O_23
REMARK    6  A    between atoms: C_25  and  C_26
REMARK    7  A    between atoms: C_26  and  N_27
REMARK                            x       y       z     vdW  Elec       q    Type
REMARK                         _______ _______ _______ _____ _____    ______ ____
ROOT
ATOM      1  O   UNL     1      33.959 -25.974 -15.383  0.00  0.00    -0.272 OA
ATOM      2  O   UNL     1      32.648 -22.671 -12.474  0.00  0.00    -0.252 OA
ATOM      3  N   UNL     1      32.977 -24.519 -13.865  0.00  0.00    -0.215 N 
ATOM      4  N   UNL     1      34.490 -22.892 -13.879  0.00  0.00    -0.277 N 
ATOM      5  C   UNL     1      35.041 -23.830 -14.854  0.00  0.00    +0.166 C 
ATOM      6  C   UNL     1      33.946 -24.919 -14.758  0.00  0.00    +0.256 C 
ATOM      7  C   UNL     1      33.286 -23.298 -13.310  0.00  0.00    +0.310 C 
ATOM      8  H   UNL     1      34.933 -22.045 -13.644  0.00  0.00    +0.152 HD
ENDROOT
BRANCH   5   9
ATOM      9  C   UNL     1      36.379 -24.442 -14.422  0.00  0.00    +0.006 C 
ATOM     10  C   UNL     1      36.907 -25.532 -15.117  0.00  0.00    +0.001 C 
ATOM     11  C   UNL     1      37.074 -23.912 -13.334  0.00  0.00    +0.001 C 
ATOM     12  C   UNL     1      38.124 -26.089 -14.726  0.00  0.00    +0.037 C 
ATOM     13  C   UNL     1      38.291 -24.469 -12.942  0.00  0.00    +0.037 C 
ATOM     14  C   UNL     1      38.817 -25.557 -13.638  0.00  0.00    +0.139 C 
BRANCH  14  15
ATOM     15  O   UNL     1      40.004 -26.101 -13.254  0.00  0.00    -0.471 OA
ATOM     16  C   UNL     1      40.907 -26.488 -14.289  0.00  0.00    +0.252 C 
ENDBRANCH  14  15
ENDBRANCH   5   9
BRANCH   5  17
ATOM     17  C   UNL     1      35.111 -23.118 -16.209  0.00  0.00    +0.006 C 
ATOM     18  C   UNL     1      36.280 -22.461 -16.596  0.00  0.00    +0.001 C 
ATOM     19  C   UNL     1      34.005 -23.126 -17.063  0.00  0.00    +0.001 C 
ATOM     20  C   UNL     1      36.344 -21.815 -17.831  0.00  0.00    +0.037 C 
ATOM     21  C   UNL     1      34.068 -22.480 -18.297  0.00  0.00    +0.037 C 
ATOM     22  C   UNL     1      35.239 -21.824 -18.681  0.00  0.00    +0.139 C 
BRANCH  22  23
ATOM     23  O   UNL     1      35.299 -21.192 -19.886  0.00  0.00    -0.471 OA
ATOM     24  C   UNL     1      34.113 -20.540 -20.336  0.00  0.00    +0.252 C 
ENDBRANCH  22  23
ENDBRANCH   5  17
BRANCH   3  25
ATOM     25  C   UNL     1      31.803 -25.304 -13.540  0.00  0.00    +0.080 C 
BRANCH  25  26
ATOM     26  C   UNL     1      30.550 -24.440 -13.522  0.00  0.00    -0.055 C 
BRANCH  26  27
ATOM     27  N   UNL     1      30.119 -24.139 -14.886  0.00  0.00    +0.388 N 
ATOM     28  C   UNL     1      28.835 -24.792 -15.177  0.00  0.00    -0.077 C 
ATOM     29  C   UNL     1      30.034 -22.686 -15.090  0.00  0.00    -0.077 C 
ATOM     30  C   UNL     1      28.394 -24.528 -16.617  0.00  0.00    -0.023 C 
ATOM     31  C   UNL     1      29.633 -22.352 -16.528  0.00  0.00    -0.023 C 
ATOM     32  C   UNL     1      28.324 -23.033 -16.910  0.00  0.00    -0.004 C 
ATOM     33  H   UNL     1      30.814 -24.507 -15.537  0.00  0.00    -0.080 HD
ENDBRANCH  26  27
ENDBRANCH  25  26
ENDBRANCH   3  25
TORSDOF 7
ENDMDL
MODEL 3
REMARK VINA RESULT:      -8.7      0.902      4.949
REMARK  Name = 58521
REMARK  7 active torsions:
REMARK  status: ('A' for Active; 'I' for Inactive)
REMARK    1  A    between atoms: N_3  and  C_25
REMARK    2  A    between atoms: C_5  and  C_9
REMARK    3  A    between atoms: C_5  and  C_17
REMARK    4  A    between atoms: C_14  and  O_15
REMARK    5  A    between atoms: C_22  and  O_23
REMARK    6  A    between atoms: C_25  and  C_26
REMARK    7  A    between atoms: C_26  and  N_27
REMARK                            x       y       z     vdW  Elec       q    Type
REMARK                         _______ _______ _______ _____ _____    ______ ____
ROOT
ATOM      1  O   UNL     1      34.924 -22.756 -13.665  0.00  0.00    -0.272 OA
ATOM      2  O   UNL     1      36.167 -26.955 -15.050  0.00  0.00    -0.252 OA
ATOM      3  N   UNL     1      35.761 -24.889 -14.039  0.00  0.00    -0.215 N 
ATOM      4  N   UNL     1      34.888 -25.284 -16.043  0.00  0.00    -0.277 N 
ATOM      5  C   UNL     1      34.422 -23.927 -15.769  0.00  0.00    +0.166 C 
ATOM      6  C   UNL     1      35.053 -23.754 -14.367  0.00  0.00    +0.256 C 
ATOM      7  C   UNL     1      35.671 -25.836 -15.033  0.00  0.00    +0.310 C 
ATOM      8  H   UNL     1      34.666 -25.767 -16.872  0.00  0.00    +0.152 HD
ENDROOT
BRANCH   5   9
ATOM      9  C   UNL     1      32.897 -23.822 -15.635  0.00  0.00    +0.006 C 
ATOM     10  C   UNL     1      32.241 -24.467 -14.585  0.00  0.00    +0.001 C 
ATOM     11  C   UNL     1      32.161 -23.082 -16.563  0.00  0.00    +0.001 C 
ATOM     12  C   UNL     1      30.854 -24.371 -14.462  0.00  0.00    +0.037 C 
ATOM     13  C   UNL     1      30.776 -22.986 -16.441  0.00  0.00    +0.037 C 
ATOM     14  C   UNL     1      30.121 -23.630 -15.390  0.00  0.00    +0.139 C 
BRANCH  14  15
ATOM     15  O   UNL     1      28.769 -23.537 -15.272  0.00  0.00    -0.471 OA
ATOM     16  C   UNL     1      28.157 -22.333 -15.732  0.00  0.00    +0.252 C 
ENDBRANCH  14  15
ENDBRANCH   5   9
BRANCH   5  17
ATOM     17  C   UNL     1      35.000 -23.001 -16.843  0.00  0.00    +0.006 C 
ATOM     18  C   UNL     1      36.222 -22.361 -16.634  0.00  0.00    +0.001 C 
ATOM     19  C   UNL     1      34.305 -22.795 -18.038  0.00  0.00    +0.001 C 
ATOM     20  C   UNL     1      36.749 -21.519 -17.613  0.00  0.00    +0.037 C 
ATOM     21  C   UNL     1      34.831 -21.953 -19.017  0.00  0.00    +0.037 C 
ATOM     22  C   UNL     1      36.054 -21.315 -18.805  0.00  0.00    +0.139 C 
BRANCH  22  23
ATOM     23  O   UNL     1      36.566 -20.491 -19.761  0.00  0.00    -0.471 OA
ATOM     24  C   UNL     1      35.656 -19.986 -20.736  0.00  0.00    +0.252 C 
ENDBRANCH  22  23
ENDBRANCH   5  17
BRANCH   3  25
ATOM     25  C   UNL     1      36.482 -25.060 -12.793  0.00  0.00    +0.080 C 
BRANCH  25  26
ATOM     26  C   UNL     1      37.566 -24.004 -12.634  0.00  0.00    -0.055 C 
BRANCH  26  27
ATOM     27  N   UNL     1      38.778 -24.407 -13.345  0.00  0.00    +0.388 N 
ATOM     28  C   UNL     1      39.048 -25.836 -13.134  0.00  0.00    -0.077 C 
ATOM     29  C   UNL     1      38.664 -24.094 -14.776  0.00  0.00    -0.077 C 
ATOM     30  C   UNL     1      40.341 -26.263 -13.829  0.00  0.00    -0.023 C 
ATOM     31  C   UNL     1      39.944 -24.464 -15.526  0.00  0.00    -0.023 C 
ATOM     32  C   UNL     1      40.306 -25.930 -15.317  0.00  0.00    -0.004 C 
ATOM     33  H   UNL     1      39.568 -23.879 -12.970  0.00  0.00    -0.080 HD
ENDBRANCH  26  27
ENDBRANCH  25  26
ENDBRANCH   3  25
TORSDOF 7
ENDMDL
MODEL 4
REMARK VINA RESULT:      -8.2     12.928     17.126
REMARK  Name = 58521
REMARK  7 active torsions:
REMARK  status: ('A' for Active; 'I' for Inactive)
REMARK    1  A    between atoms: N_3  and  C_25
REMARK    2  A    between atoms: C_5  and  C_9
REMARK    3  A    between atoms: C_5  and  C_17
REMARK    4  A    between atoms: C_14  and  O_15
REMARK    5  A    between atoms: C_22  and  O_23
REMARK    6  A    between atoms: C_25  and  C_26
REMARK    7  A    between atoms: C_26  and  N_27
REMARK                            x       y       z     vdW  Elec       q    Type
REMARK                         _______ _______ _______ _____ _____    ______ ____
ROOT
ATOM      1  O   UNL     1      30.712  -9.896 -23.069  0.00  0.00    -0.272 OA
ATOM      2  O   UNL     1      32.796  -9.168 -19.041  0.00  0.00    -0.252 OA
ATOM      3  N   UNL     1      31.502  -9.774 -20.890  0.00  0.00    -0.215 N 
ATOM      4  N   UNL     1      33.094  -8.248 -21.158  0.00  0.00    -0.277 N 
ATOM      5  C   UNL     1      32.530  -8.340 -22.502  0.00  0.00    +0.166 C 
ATOM      6  C   UNL     1      31.463  -9.425 -22.222  0.00  0.00    +0.256 C 
ATOM      7  C   UNL     1      32.488  -9.083 -20.223  0.00  0.00    +0.310 C 
ATOM      8  H   UNL     1      33.840  -7.646 -20.932  0.00  0.00    +0.152 HD
ENDROOT
BRANCH   5   9
ATOM      9  C   UNL     1      33.519  -8.884 -23.542  0.00  0.00    +0.006 C 
ATOM     10  C   UNL     1      33.513 -10.241 -23.870  0.00  0.00    +0.001 C 
ATOM     11  C   UNL     1      34.427  -8.024 -24.162  0.00  0.00    +0.001 C 
ATOM     12  C   UNL     1      34.411 -10.736 -24.816  0.00  0.00    +0.037 C 
ATOM     13  C   UNL     1      35.325  -8.519 -25.108  0.00  0.00    +0.037 C 
ATOM     14  C   UNL     1      35.317  -9.875 -25.435  0.00  0.00    +0.139 C 
BRANCH  14  15
ATOM     15  O   UNL     1      36.195 -10.357 -26.357  0.00  0.00    -0.471 OA
ATOM     16  C   UNL     1      35.657 -11.147 -27.415  0.00  0.00    +0.252 C 
ENDBRANCH  14  15
ENDBRANCH   5   9
BRANCH   5  17
ATOM     17  C   UNL     1      31.958  -6.968 -22.872  0.00  0.00    +0.006 C 
ATOM     18  C   UNL     1      31.468  -6.736 -24.158  0.00  0.00    +0.001 C 
ATOM     19  C   UNL     1      31.923  -5.944 -21.922  0.00  0.00    +0.001 C 
ATOM     20  C   UNL     1      30.946  -5.487 -24.494  0.00  0.00    +0.037 C 
ATOM     21  C   UNL     1      31.402  -4.695 -22.258  0.00  0.00    +0.037 C 
ATOM     22  C   UNL     1      30.912  -4.467 -23.544  0.00  0.00    +0.139 C 
BRANCH  22  23
ATOM     23  O   UNL     1      30.405  -3.246 -23.871  0.00  0.00    -0.471 OA
ATOM     24  C   UNL     1      30.760  -2.150 -23.031  0.00  0.00    +0.252 C 
ENDBRANCH  22  23
ENDBRANCH   5  17
BRANCH   3  25
ATOM     25  C   UNL     1      30.630 -10.763 -20.287  0.00  0.00    +0.080 C 
BRANCH  25  26
ATOM     26  C   UNL     1      31.431 -11.870 -19.618  0.00  0.00    -0.055 C 
BRANCH  26  27
ATOM     27  N   UNL     1      32.254 -12.570 -20.603  0.00  0.00    +0.388 N 
ATOM     28  C   UNL     1      32.696 -13.868 -20.076  0.00  0.00    -0.077 C 
ATOM     29  C   UNL     1      31.519 -12.731 -21.866  0.00  0.00    -0.077 C 
ATOM     30  C   UNL     1      33.599 -14.592 -21.075  0.00  0.00    -0.023 C 
ATOM     31  C   UNL     1      32.384 -13.417 -22.924  0.00  0.00    -0.023 C 
ATOM     32  C   UNL     1      32.911 -14.758 -22.426  0.00  0.00    -0.004 C 
ATOM     33  H   UNL     1      33.085 -12.008 -20.793  0.00  0.00    -0.080 HD
ENDBRANCH  26  27
ENDBRANCH  25  26
ENDBRANCH   3  25
TORSDOF 7
ENDMDL
MODEL 5
REMARK VINA RESULT:      -7.4      2.736      6.924
REMARK  Name = 58521
REMARK  7 active torsions:
REMARK  status: ('A' for Active; 'I' for Inactive)
REMARK    1  A    between atoms: N_3  and  C_25
REMARK    2  A    between atoms: C_5  and  C_9
REMARK    3  A    between atoms: C_5  and  C_17
REMARK    4  A    between atoms: C_14  and  O_15
REMARK    5  A    between atoms: C_22  and  O_23
REMARK    6  A    between atoms: C_25  and  C_26
REMARK    7  A    between atoms: C_26  and  N_27
REMARK                            x       y       z     vdW  Elec       q    Type
REMARK                         _______ _______ _______ _____ _____    ______ ____
ROOT
ATOM      1  O   UNL     1      35.385 -21.230 -17.152  0.00  0.00    -0.272 OA
ATOM      2  O   UNL     1      34.269 -24.201 -20.473  0.00  0.00    -0.252 OA
ATOM      3  N   UNL     1      34.933 -22.452 -19.074  0.00  0.00    -0.215 N 
ATOM      4  N   UNL     1      34.064 -24.279 -18.156  0.00  0.00    -0.277 N 
ATOM      5  C   UNL     1      34.336 -23.449 -16.985  0.00  0.00    +0.166 C 
ATOM      6  C   UNL     1      34.949 -22.230 -17.714  0.00  0.00    +0.256 C 
ATOM      7  C   UNL     1      34.410 -23.690 -19.369  0.00  0.00    +0.310 C 
ATOM      8  H   UNL     1      33.669 -25.179 -18.092  0.00  0.00    +0.152 HD
ENDROOT
BRANCH   5   9
ATOM      9  C   UNL     1      35.398 -24.044 -16.050  0.00  0.00    +0.006 C 
ATOM     10  C   UNL     1      35.221 -25.321 -15.515  0.00  0.00    +0.001 C 
ATOM     11  C   UNL     1      36.542 -23.310 -15.732  0.00  0.00    +0.001 C 
ATOM     12  C   UNL     1      36.186 -25.863 -14.665  0.00  0.00    +0.037 C 
ATOM     13  C   UNL     1      37.507 -23.852 -14.883  0.00  0.00    +0.037 C 
ATOM     14  C   UNL     1      37.329 -25.128 -14.349  0.00  0.00    +0.139 C 
BRANCH  14  15
ATOM     15  O   UNL     1      38.270 -25.655 -13.520  0.00  0.00    -0.471 OA
ATOM     16  C   UNL     1      39.629 -25.588 -13.951  0.00  0.00    +0.252 C 
ENDBRANCH  14  15
ENDBRANCH   5   9
BRANCH   5  17
ATOM     17  C   UNL     1      33.004 -23.166 -16.284  0.00  0.00    +0.006 C 
ATOM     18  C   UNL     1      31.838 -23.002 -17.034  0.00  0.00    +0.001 C 
ATOM     19  C   UNL     1      32.951 -23.072 -14.891  0.00  0.00    +0.001 C 
ATOM     20  C   UNL     1      30.624 -22.745 -16.396  0.00  0.00    +0.037 C 
ATOM     21  C   UNL     1      31.738 -22.816 -14.253  0.00  0.00    +0.037 C 
ATOM     22  C   UNL     1      30.574 -22.652 -15.005  0.00  0.00    +0.139 C 
BRANCH  22  23
ATOM     23  O   UNL     1      29.391 -22.400 -14.381  0.00  0.00    -0.471 OA
ATOM     24  C   UNL     1      28.233 -22.294 -15.205  0.00  0.00    +0.252 C 
ENDBRANCH  22  23
ENDBRANCH   5  17
BRANCH   3  25
ATOM     25  C   UNL     1      35.429 -21.506 -20.053  0.00  0.00    +0.080 C 
BRANCH  25  26
ATOM     26  C   UNL     1      34.368 -20.477 -20.414  0.00  0.00    -0.055 C 
BRANCH  26  27
ATOM     27  N   UNL     1      34.960 -19.381 -21.179  0.00  0.00    +0.388 N 
ATOM     28  C   UNL     1      34.936 -19.685 -22.617  0.00  0.00    -0.077 C 
ATOM     29  C   UNL     1      34.264 -18.118 -20.892  0.00  0.00    -0.077 C 
ATOM     30  C   UNL     1      35.597 -18.571 -23.428  0.00  0.00    -0.023 C 
ATOM     31  C   UNL     1      34.904 -16.952 -21.647  0.00  0.00    -0.023 C 
ATOM     32  C   UNL     1      34.948 -17.220 -23.147  0.00  0.00    -0.004 C 
ATOM     33  H   UNL     1      35.934 -19.274 -20.896  0.00  0.00    -0.080 HD
ENDBRANCH  26  27
ENDBRANCH  25  26
ENDBRANCH   3  25
TORSDOF 7
ENDMDL
MODEL 6
REMARK VINA RESULT:      -7.2      8.513     12.796
REMARK  Name = 58521
REMARK  7 active torsions:
REMARK  status: ('A' for Active; 'I' for Inactive)
REMARK    1  A    between atoms: N_3  and  C_25
REMARK    2  A    between atoms: C_5  and  C_9
REMARK    3  A    between atoms: C_5  and  C_17
REMARK    4  A    between atoms: C_14  and  O_15
REMARK    5  A    between atoms: C_22  and  O_23
REMARK    6  A    between atoms: C_25  and  C_26
REMARK    7  A    between atoms: C_26  and  N_27
REMARK                            x       y       z     vdW  Elec       q    Type
REMARK                         _______ _______ _______ _____ _____    ______ ____
ROOT
ATOM      1  O   UNL     1      35.113 -13.670 -21.223  0.00  0.00    -0.272 OA
ATOM      2  O   UNL     1      31.730 -16.771 -21.041  0.00  0.00    -0.252 OA
ATOM      3  N   UNL     1      33.664 -15.464 -20.956  0.00  0.00    -0.215 N 
ATOM      4  N   UNL     1      31.879 -14.659 -22.005  0.00  0.00    -0.277 N 
ATOM      5  C   UNL     1      32.847 -13.578 -22.174  0.00  0.00    +0.166 C 
ATOM      6  C   UNL     1      34.029 -14.214 -21.404  0.00  0.00    +0.256 C 
ATOM      7  C   UNL     1      32.364 -15.756 -21.299  0.00  0.00    +0.310 C 
ATOM      8  H   UNL     1      30.962 -14.615 -22.361  0.00  0.00    +0.152 HD
ENDROOT
BRANCH   5   9
ATOM      9  C   UNL     1      32.442 -12.280 -21.463  0.00  0.00    +0.006 C 
ATOM     10  C   UNL     1      32.140 -12.295 -20.099  0.00  0.00    +0.001 C 
ATOM     11  C   UNL     1      32.373 -11.081 -22.175  0.00  0.00    +0.001 C 
ATOM     12  C   UNL     1      31.772 -11.115 -19.451  0.00  0.00    +0.037 C 
ATOM     13  C   UNL     1      32.006  -9.902 -21.528  0.00  0.00    +0.037 C 
ATOM     14  C   UNL     1      31.705  -9.919 -20.166  0.00  0.00    +0.139 C 
BRANCH  14  15
ATOM     15  O   UNL     1      31.345  -8.768 -19.535  0.00  0.00    -0.471 OA
ATOM     16  C   UNL     1      32.042  -7.579 -19.902  0.00  0.00    +0.252 C 
ENDBRANCH  14  15
ENDBRANCH   5   9
BRANCH   5  17
ATOM     17  C   UNL     1      33.094 -13.392 -23.675  0.00  0.00    +0.006 C 
ATOM     18  C   UNL     1      32.711 -14.386 -24.576  0.00  0.00    +0.001 C 
ATOM     19  C   UNL     1      33.702 -12.226 -24.146  0.00  0.00    +0.001 C 
ATOM     20  C   UNL     1      32.934 -14.217 -25.943  0.00  0.00    +0.037 C 
ATOM     21  C   UNL     1      33.925 -12.056 -25.512  0.00  0.00    +0.037 C 
ATOM     22  C   UNL     1      33.541 -13.051 -26.411  0.00  0.00    +0.139 C 
BRANCH  22  23
ATOM     23  O   UNL     1      33.762 -12.885 -27.744  0.00  0.00    -0.471 OA
ATOM     24  C   UNL     1      35.109 -12.660 -28.155  0.00  0.00    +0.252 C 
ENDBRANCH  22  23
ENDBRANCH   5  17
BRANCH   3  25
ATOM     25  C   UNL     1      34.539 -16.339 -20.201  0.00  0.00    +0.080 C 
BRANCH  25  26
ATOM     26  C   UNL     1      35.196 -17.374 -21.102  0.00  0.00    -0.055 C 
BRANCH  26  27
ATOM     27  N   UNL     1      35.264 -18.668 -20.426  0.00  0.00    +0.388 N 
ATOM     28  C   UNL     1      34.131 -19.516 -20.821  0.00  0.00    -0.077 C 
ATOM     29  C   UNL     1      36.546 -19.330 -20.708  0.00  0.00    -0.077 C 
ATOM     30  C   UNL     1      34.159 -20.855 -20.084  0.00  0.00    -0.023 C 
ATOM     31  C   UNL     1      36.654 -20.663 -19.967  0.00  0.00    -0.023 C 
ATOM     32  C   UNL     1      35.482 -21.580 -20.302  0.00  0.00    -0.004 C 
ATOM     33  H   UNL     1      35.205 -18.514 -19.419  0.00  0.00    -0.080 HD
ENDBRANCH  26  27
ENDBRANCH  25  26
ENDBRANCH   3  25
TORSDOF 7
ENDMDL
MODEL 7
REMARK VINA RESULT:      -7.2      1.981      7.043
REMARK  Name = 58521
REMARK  7 active torsions:
REMARK  status: ('A' for Active; 'I' for Inactive)
REMARK    1  A    between atoms: N_3  and  C_25
REMARK    2  A    between atoms: C_5  and  C_9
REMARK    3  A    between atoms: C_5  and  C_17
REMARK    4  A    between atoms: C_14  and  O_15
REMARK    5  A    between atoms: C_22  and  O_23
REMARK    6  A    between atoms: C_25  and  C_26
REMARK    7  A    between atoms: C_26  and  N_27
REMARK                            x       y       z     vdW  Elec       q    Type
REMARK                         _______ _______ _______ _____ _____    ______ ____
ROOT
ATOM      1  O   UNL     1      34.124 -22.024 -14.178  0.00  0.00    -0.272 OA
ATOM      2  O   UNL     1      31.475 -25.702 -14.918  0.00  0.00    -0.252 OA
ATOM      3  N   UNL     1      32.552 -23.728 -14.285  0.00  0.00    -0.215 N 
ATOM      4  N   UNL     1      33.567 -25.080 -15.725  0.00  0.00    -0.277 N 
ATOM      5  C   UNL     1      34.537 -23.996 -15.588  0.00  0.00    +0.166 C 
ATOM      6  C   UNL     1      33.742 -23.110 -14.600  0.00  0.00    +0.256 C 
ATOM      7  C   UNL     1      32.416 -24.920 -14.959  0.00  0.00    +0.310 C 
ATOM      8  H   UNL     1      33.716 -25.859 -16.309  0.00  0.00    +0.152 HD
ENDROOT
BRANCH   5   9
ATOM      9  C   UNL     1      34.755 -23.206 -16.886  0.00  0.00    +0.006 C 
ATOM     10  C   UNL     1      33.757 -23.176 -17.862  0.00  0.00    +0.001 C 
ATOM     11  C   UNL     1      35.950 -22.516 -17.094  0.00  0.00    +0.001 C 
ATOM     12  C   UNL     1      33.954 -22.458 -19.042  0.00  0.00    +0.037 C 
ATOM     13  C   UNL     1      36.147 -21.798 -18.273  0.00  0.00    +0.037 C 
ATOM     14  C   UNL     1      35.149 -21.768 -19.247  0.00  0.00    +0.139 C 
BRANCH  14  15
ATOM     15  O   UNL     1      35.343 -21.069 -20.398  0.00  0.00    -0.471 OA
ATOM     16  C   UNL     1      34.491 -19.948 -20.629  0.00  0.00    +0.252 C 
ENDBRANCH  14  15
ENDBRANCH   5   9
BRANCH   5  17
ATOM     17  C   UNL     1      35.829 -24.585 -15.015  0.00  0.00    +0.006 C 
ATOM     18  C   UNL     1      36.656 -23.804 -14.205  0.00  0.00    +0.001 C 
ATOM     19  C   UNL     1      36.184 -25.906 -15.299  0.00  0.00    +0.001 C 
ATOM     20  C   UNL     1      37.833 -24.341 -13.682  0.00  0.00    +0.037 C 
ATOM     21  C   UNL     1      37.360 -26.442 -14.776  0.00  0.00    +0.037 C 
ATOM     22  C   UNL     1      38.185 -25.660 -13.967  0.00  0.00    +0.139 C 
BRANCH  22  23
ATOM     23  O   UNL     1      39.334 -26.185 -13.458  0.00  0.00    -0.471 OA
ATOM     24  C   UNL     1      40.528 -25.979 -14.209  0.00  0.00    +0.252 C 
ENDBRANCH  22  23
ENDBRANCH   5  17
BRANCH   3  25
ATOM     25  C   UNL     1      31.567 -23.171 -13.378  0.00  0.00    +0.080 C 
BRANCH  25  26
ATOM     26  C   UNL     1      30.734 -22.097 -14.061  0.00  0.00    -0.055 C 
BRANCH  26  27
ATOM     27  N   UNL     1      29.705 -22.707 -14.900  0.00  0.00    +0.388 N 
ATOM     28  C   UNL     1      28.460 -21.928 -14.839  0.00  0.00    -0.077 C 
ATOM     29  C   UNL     1      30.181 -22.839 -16.285  0.00  0.00    -0.077 C 
ATOM     30  C   UNL     1      27.357 -22.581 -15.672  0.00  0.00    -0.023 C 
ATOM     31  C   UNL     1      29.135 -23.522 -17.166  0.00  0.00    -0.023 C 
ATOM     32  C   UNL     1      27.801 -22.784 -17.117  0.00  0.00    -0.004 C 
ATOM     33  H   UNL     1      29.507 -23.644 -14.546  0.00  0.00    -0.080 HD
ENDBRANCH  26  27
ENDBRANCH  25  26
ENDBRANCH   3  25
TORSDOF 7
ENDMDL
MODEL 8
REMARK VINA RESULT:      -7.2      2.441      7.651
REMARK  Name = 58521
REMARK  7 active torsions:
REMARK  status: ('A' for Active; 'I' for Inactive)
REMARK    1  A    between atoms: N_3  and  C_25
REMARK    2  A    between atoms: C_5  and  C_9
REMARK    3  A    between atoms: C_5  and  C_17
REMARK    4  A    between atoms: C_14  and  O_15
REMARK    5  A    between atoms: C_22  and  O_23
REMARK    6  A    between atoms: C_25  and  C_26
REMARK    7  A    between atoms: C_26  and  N_27
REMARK                            x       y       z     vdW  Elec       q    Type
REMARK                         _______ _______ _______ _____ _____    ______ ____
ROOT
ATOM      1  O   UNL     1      34.457 -24.407 -17.889  0.00  0.00    -0.272 OA
ATOM      2  O   UNL     1      36.647 -20.378 -17.635  0.00  0.00    -0.252 OA
ATOM      3  N   UNL     1      35.512 -22.355 -18.144  0.00  0.00    -0.215 N 
ATOM      4  N   UNL     1      36.176 -22.017 -16.051  0.00  0.00    -0.277 N 
ATOM      5  C   UNL     1      35.532 -23.324 -15.960  0.00  0.00    +0.166 C 
ATOM      6  C   UNL     1      35.091 -23.459 -17.437  0.00  0.00    +0.256 C 
ATOM      7  C   UNL     1      36.165 -21.460 -17.328  0.00  0.00    +0.310 C 
ATOM      8  H   UNL     1      36.584 -21.567 -15.276  0.00  0.00    +0.152 HD
ENDROOT
BRANCH   5   9
ATOM      9  C   UNL     1      34.279 -23.326 -15.074  0.00  0.00    +0.006 C 
ATOM     10  C   UNL     1      34.352 -23.791 -13.759  0.00  0.00    +0.001 C 
ATOM     11  C   UNL     1      33.063 -22.862 -15.579  0.00  0.00    +0.001 C 
ATOM     12  C   UNL     1      33.214 -23.791 -12.953  0.00  0.00    +0.037 C 
ATOM     13  C   UNL     1      31.925 -22.862 -14.773  0.00  0.00    +0.037 C 
ATOM     14  C   UNL     1      32.000 -23.327 -13.460  0.00  0.00    +0.139 C 
BRANCH  14  15
ATOM     15  O   UNL     1      30.889 -23.329 -12.674  0.00  0.00    -0.471 OA
ATOM     16  C   UNL     1      30.036 -24.470 -12.755  0.00  0.00    +0.252 C 
ENDBRANCH  14  15
ENDBRANCH   5   9
BRANCH   5  17
ATOM     17  C   UNL     1      36.586 -24.343 -15.517  0.00  0.00    +0.006 C 
ATOM     18  C   UNL     1      36.250 -25.692 -15.395  0.00  0.00    +0.001 C 
ATOM     19  C   UNL     1      37.889 -23.925 -15.235  0.00  0.00    +0.001 C 
ATOM     20  C   UNL     1      37.211 -26.621 -14.993  0.00  0.00    +0.037 C 
ATOM     21  C   UNL     1      38.850 -24.853 -14.833  0.00  0.00    +0.037 C 
ATOM     22  C   UNL     1      38.511 -26.201 -14.712  0.00  0.00    +0.139 C 
BRANCH  22  23
ATOM     23  O   UNL     1      39.449 -27.105 -14.318  0.00  0.00    -0.471 OA
ATOM     24  C   UNL     1      40.794 -26.642 -14.219  0.00  0.00    +0.252 C 
ENDBRANCH  22  23
ENDBRANCH   5  17
BRANCH   3  25
ATOM     25  C   UNL     1      35.270 -22.161 -19.560  0.00  0.00    +0.080 C 
BRANCH  25  26
ATOM     26  C   UNL     1      34.119 -21.194 -19.795  0.00  0.00    -0.055 C 
BRANCH  26  27
ATOM     27  N   UNL     1      34.627 -19.889 -20.213  0.00  0.00    +0.388 N 
ATOM     28  C   UNL     1      35.858 -20.043 -21.001  0.00  0.00    -0.077 C 
ATOM     29  C   UNL     1      33.601 -19.154 -20.966  0.00  0.00    -0.077 C 
ATOM     30  C   UNL     1      36.431 -18.684 -21.404  0.00  0.00    -0.023 C 
ATOM     31  C   UNL     1      34.100 -17.765 -21.367  0.00  0.00    -0.023 C 
ATOM     32  C   UNL     1      35.401 -17.850 -22.158  0.00  0.00    -0.004 C 
ATOM     33  H   UNL     1      34.854 -19.345 -19.379  0.00  0.00    -0.080 HD
ENDBRANCH  26  27
ENDBRANCH  25  26
ENDBRANCH   3  25
TORSDOF 7
ENDMDL
MODEL 9
REMARK VINA RESULT:      -7.0      9.555     13.376
REMARK  Name = 58521
REMARK  7 active torsions:
REMARK  status: ('A' for Active; 'I' for Inactive)
REMARK    1  A    between atoms: N_3  and  C_25
REMARK    2  A    between atoms: C_5  and  C_9
REMARK    3  A    between atoms: C_5  and  C_17
REMARK    4  A    between atoms: C_14  and  O_15
REMARK    5  A    between atoms: C_22  and  O_23
REMARK    6  A    between atoms: C_25  and  C_26
REMARK    7  A    between atoms: C_26  and  N_27
REMARK                            x       y       z     vdW  Elec       q    Type
REMARK                         _______ _______ _______ _____ _____    ______ ____
ROOT
ATOM      1  O   UNL     1      35.040 -13.604 -21.101  0.00  0.00    -0.272 OA
ATOM      2  O   UNL     1      31.613 -16.655 -20.901  0.00  0.00    -0.252 OA
ATOM      3  N   UNL     1      33.564 -15.373 -20.818  0.00  0.00    -0.215 N 
ATOM      4  N   UNL     1      31.802 -14.564 -21.903  0.00  0.00    -0.277 N 
ATOM      5  C   UNL     1      32.787 -13.499 -22.081  0.00  0.00    +0.166 C 
ATOM      6  C   UNL     1      33.950 -14.136 -21.285  0.00  0.00    +0.256 C 
ATOM      7  C   UNL     1      32.263 -15.654 -21.170  0.00  0.00    +0.310 C 
ATOM      8  H   UNL     1      30.890 -14.514 -22.270  0.00  0.00    +0.152 HD
ENDROOT
BRANCH   5   9
ATOM      9  C   UNL     1      32.391 -12.183 -21.399  0.00  0.00    +0.006 C 
ATOM     10  C   UNL     1      32.097 -12.163 -20.035  0.00  0.00    +0.001 C 
ATOM     11  C   UNL     1      32.323 -11.002 -22.141  0.00  0.00    +0.001 C 
ATOM     12  C   UNL     1      31.737 -10.966 -19.414  0.00  0.00    +0.037 C 
ATOM     13  C   UNL     1      31.964  -9.806 -21.521  0.00  0.00    +0.037 C 
ATOM     14  C   UNL     1      31.671  -9.787 -20.157  0.00  0.00    +0.139 C 
BRANCH  14  15
ATOM     15  O   UNL     1      31.319  -8.620 -19.552  0.00  0.00    -0.471 OA
ATOM     16  C   UNL     1      32.040  -7.448 -19.931  0.00  0.00    +0.252 C 
ENDBRANCH  14  15
ENDBRANCH   5   9
BRANCH   5  17
ATOM     17  C   UNL     1      33.053 -13.346 -23.582  0.00  0.00    +0.006 C 
ATOM     18  C   UNL     1      32.590 -14.310 -24.478  0.00  0.00    +0.001 C 
ATOM     19  C   UNL     1      33.760 -12.239 -24.058  0.00  0.00    +0.001 C 
ATOM     20  C   UNL     1      32.832 -14.170 -25.845  0.00  0.00    +0.037 C 
ATOM     21  C   UNL     1      34.002 -12.098 -25.424  0.00  0.00    +0.037 C 
ATOM     22  C   UNL     1      33.538 -13.064 -26.318  0.00  0.00    +0.139 C 
BRANCH  22  23
ATOM     23  O   UNL     1      33.776 -12.926 -27.652  0.00  0.00    -0.471 OA
ATOM     24  C   UNL     1      35.117 -12.640 -28.045  0.00  0.00    +0.252 C 
ENDBRANCH  22  23
ENDBRANCH   5  17
BRANCH   3  25
ATOM     25  C   UNL     1      34.417 -16.244 -20.035  0.00  0.00    +0.080 C 
BRANCH  25  26
ATOM     26  C   UNL     1      35.423 -16.969 -20.918  0.00  0.00    -0.055 C 
BRANCH  26  27
ATOM     27  N   UNL     1      34.773 -17.465 -22.129  0.00  0.00    +0.388 N 
ATOM     28  C   UNL     1      35.269 -16.746 -23.312  0.00  0.00    -0.077 C 
ATOM     29  C   UNL     1      34.975 -18.914 -22.265  0.00  0.00    -0.077 C 
ATOM     30  C   UNL     1      34.563 -17.218 -24.582  0.00  0.00    -0.023 C 
ATOM     31  C   UNL     1      34.258 -19.458 -23.502  0.00  0.00    -0.023 C 
ATOM     32  C   UNL     1      34.699 -18.726 -24.765  0.00  0.00    -0.004 C 
ATOM     33  H   UNL     1      33.770 -17.294 -22.055  0.00  0.00    -0.080 HD
ENDBRANCH  26  27
ENDBRANCH  25  26
ENDBRANCH   3  25
TORSDOF 7
ENDMDL
