MODEL 1
REMARK VINA RESULT:     -10.2      0.000      0.000
REMARK  Name = 3116
REMARK  11 active torsions:
REMARK  status: ('A' for Active; 'I' for Inactive)
REMARK    1  A    between atoms: C_1  and  C_2
REMARK    2  A    between atoms: C_1  and  C_17
REMARK    3  A    between atoms: C_2  and  C_3
REMARK    4  A    between atoms: C_3  and  C_4
REMARK    5  A    between atoms: C_4  and  N_6
REMARK    6  A    between atoms: C_8  and  O_9
REMARK    7  A    between atoms: O_9  and  C_11
REMARK    8  A    between atoms: C_17  and  C_18
REMARK    9  A    between atoms: C_18  and  N_20
REMARK   10  A    between atoms: C_22  and  O_23
REMARK   11  A    between atoms: O_23  and  C_25
REMARK                            x       y       z     vdW  Elec       q    Type
REMARK                         _______ _______ _______ _____ _____    ______ ____
ROOT
ATOM      1  C   UNL     1      32.269 -13.000 -22.198  0.00  0.00    +0.002 C 
ENDROOT
BRANCH   1   2
ATOM      2  C   UNL     1      32.848 -14.416 -22.156  0.00  0.00    +0.002 C 
BRANCH   2   3
ATOM      3  C   UNL     1      33.968 -14.586 -23.189  0.00  0.00    +0.022 C 
BRANCH   3   4
ATOM      4  C   UNL     1      34.889 -15.759 -22.865  0.00  0.00    +0.097 C 
BRANCH   4   6
ATOM      5  O   UNL     1      34.888 -19.159 -24.221  0.00  0.00    -0.226 OA
ATOM      6  N   UNL     1      34.713 -16.865 -23.764  0.00  0.00    -0.244 N 
ATOM      7  C   UNL     1      34.152 -16.562 -25.084  0.00  0.00    +0.118 C 
ATOM      8  C   UNL     1      35.038 -18.204 -23.459  0.00  0.00    +0.409 C 
BRANCH   8   9
ATOM      9  O   UNL     1      35.560 -18.328 -22.168  0.00  0.00    -0.413 OA
BRANCH   9  11
ATOM     10  N   UNL     1      34.875 -21.002 -19.792  0.00  0.00    -0.298 N 
ATOM     11  C   UNL     1      34.865 -19.228 -21.353  0.00  0.00    +0.147 C 
ATOM     12  C   UNL     1      35.551 -20.143 -20.568  0.00  0.00    +0.156 C 
ATOM     13  C   UNL     1      33.473 -19.221 -21.314  0.00  0.00    +0.036 C 
ATOM     14  C   UNL     1      32.798 -20.124 -20.498  0.00  0.00    +0.019 C 
ATOM     15  C   UNL     1      33.537 -21.018 -19.736  0.00  0.00    +0.062 C 
ATOM     16  C   UNL     1      35.625 -21.956 -18.978  0.00  0.00    +0.113 C 
ENDBRANCH   9  11
ENDBRANCH   8   9
ENDBRANCH   4   6
ENDBRANCH   3   4
ENDBRANCH   2   3
ENDBRANCH   1   2
BRANCH   1  17
ATOM     17  C   UNL     1      31.691 -12.538 -20.856  0.00  0.00    +0.022 C 
BRANCH  17  18
ATOM     18  C   UNL     1      30.952 -11.204 -20.902  0.00  0.00    +0.097 C 
BRANCH  18  20
ATOM     19  O   UNL     1      32.415  -8.064 -19.716  0.00  0.00    -0.226 OA
ATOM     20  N   UNL     1      31.541 -10.216 -20.040  0.00  0.00    -0.244 N 
ATOM     21  C   UNL     1      31.760 -10.602 -18.643  0.00  0.00    +0.118 C 
ATOM     22  C   UNL     1      31.913  -8.916 -20.447  0.00  0.00    +0.409 C 
BRANCH  22  23
ATOM     23  O   UNL     1      31.642  -8.703 -21.802  0.00  0.00    -0.413 OA
BRANCH  23  25
ATOM     24  N   UNL     1      34.108  -9.884 -24.207  0.00  0.00    -0.298 N 
ATOM     25  C   UNL     1      32.771  -8.745 -22.626  0.00  0.00    +0.147 C 
ATOM     26  C   UNL     1      33.023  -9.853 -23.423  0.00  0.00    +0.156 C 
ATOM     27  C   UNL     1      33.665  -7.678 -22.662  0.00  0.00    +0.036 C 
ATOM     28  C   UNL     1      34.784  -7.738 -23.486  0.00  0.00    +0.019 C 
ATOM     29  C   UNL     1      34.984  -8.872 -24.260  0.00  0.00    +0.062 C 
ATOM     30  C   UNL     1      34.346 -11.066 -25.032  0.00  0.00    +0.113 C 
ENDBRANCH  23  25
ENDBRANCH  22  23
ENDBRANCH  18  20
ENDBRANCH  17  18
ENDBRANCH   1  17
TORSDOF 11
ENDMDL
MODEL 2
REMARK VINA RESULT:     -10.2      0.151     10.286
REMARK  Name = 3116
REMARK  11 active torsions:
REMARK  status: ('A' for Active; 'I' for Inactive)
REMARK    1  A    between atoms: C_1  and  C_2
REMARK    2  A    between atoms: C_1  and  C_17
REMARK    3  A    between atoms: C_2  and  C_3
REMARK    4  A    between atoms: C_3  and  C_4
REMARK    5  A    between atoms: C_4  and  N_6
REMARK    6  A    between atoms: C_8  and  O_9
REMARK    7  A    between atoms: O_9  and  C_11
REMARK    8  A    between atoms: C_17  and  C_18
REMARK    9  A    between atoms: C_18  and  N_20
REMARK   10  A    between atoms: C_22  and  O_23
REMARK   11  A    between atoms: O_23  and  C_25
REMARK                            x       y       z     vdW  Elec       q    Type
REMARK                         _______ _______ _______ _____ _____    ______ ____
ROOT
ATOM      1  C   UNL     1      32.608 -14.439 -22.165  0.00  0.00    +0.002 C 
ENDROOT
BRANCH   1   2
ATOM      2  C   UNL     1      32.083 -13.004 -22.254  0.00  0.00    +0.002 C 
BRANCH   2   3
ATOM      3  C   UNL     1      31.713 -12.464 -20.868  0.00  0.00    +0.022 C 
BRANCH   3   4
ATOM      4  C   UNL     1      31.003 -11.114 -20.937  0.00  0.00    +0.097 C 
BRANCH   4   6
ATOM      5  O   UNL     1      32.453  -7.988 -19.702  0.00  0.00    -0.226 OA
ATOM      6  N   UNL     1      31.587 -10.138 -20.060  0.00  0.00    -0.244 N 
ATOM      7  C   UNL     1      31.804 -10.545 -18.668  0.00  0.00    +0.118 C 
ATOM      8  C   UNL     1      31.955  -8.832 -20.447  0.00  0.00    +0.409 C 
BRANCH   8   9
ATOM      9  O   UNL     1      31.686  -8.599 -21.799  0.00  0.00    -0.413 OA
BRANCH   9  11
ATOM     10  N   UNL     1      34.149  -9.854 -24.169  0.00  0.00    -0.298 N 
ATOM     11  C   UNL     1      32.811  -8.665 -22.627  0.00  0.00    +0.147 C 
ATOM     12  C   UNL     1      33.067  -9.801 -23.381  0.00  0.00    +0.156 C 
ATOM     13  C   UNL     1      33.694  -7.591 -22.710  0.00  0.00    +0.036 C 
ATOM     14  C   UNL     1      34.810  -7.674 -23.538  0.00  0.00    +0.019 C 
ATOM     15  C   UNL     1      35.016  -8.837 -24.268  0.00  0.00    +0.062 C 
ATOM     16  C   UNL     1      34.394 -11.065 -24.949  0.00  0.00    +0.113 C 
ENDBRANCH   9  11
ENDBRANCH   8   9
ENDBRANCH   4   6
ENDBRANCH   3   4
ENDBRANCH   2   3
ENDBRANCH   1   2
BRANCH   1  17
ATOM     17  C   UNL     1      33.635 -14.781 -23.250  0.00  0.00    +0.022 C 
BRANCH  17  18
ATOM     18  C   UNL     1      34.687 -15.806 -22.838  0.00  0.00    +0.097 C 
BRANCH  18  20
ATOM     19  O   UNL     1      35.260 -19.181 -24.136  0.00  0.00    -0.226 OA
ATOM     20  N   UNL     1      34.748 -16.927 -23.733  0.00  0.00    -0.244 N 
ATOM     21  C   UNL     1      34.293 -16.702 -25.109  0.00  0.00    +0.118 C 
ATOM     22  C   UNL     1      35.207 -18.214 -23.377  0.00  0.00    +0.409 C 
BRANCH  22  23
ATOM     23  O   UNL     1      35.604 -18.267 -22.037  0.00  0.00    -0.413 OA
BRANCH  23  25
ATOM     24  N   UNL     1      34.859 -21.015 -19.766  0.00  0.00    -0.298 N 
ATOM     25  C   UNL     1      34.889 -19.186 -21.263  0.00  0.00    +0.147 C 
ATOM     26  C   UNL     1      35.554 -20.138 -20.503  0.00  0.00    +0.156 C 
ATOM     27  C   UNL     1      33.497 -19.165 -21.241  0.00  0.00    +0.036 C 
ATOM     28  C   UNL     1      32.802 -20.088 -20.466  0.00  0.00    +0.019 C 
ATOM     29  C   UNL     1      33.520 -21.017 -19.727  0.00  0.00    +0.062 C 
ATOM     30  C   UNL     1      35.588 -22.006 -18.979  0.00  0.00    +0.113 C 
ENDBRANCH  23  25
ENDBRANCH  22  23
ENDBRANCH  18  20
ENDBRANCH  17  18
ENDBRANCH   1  17
TORSDOF 11
ENDMDL
MODEL 3
REMARK VINA RESULT:      -9.8      3.473     10.959
REMARK  Name = 3116
REMARK  11 active torsions:
REMARK  status: ('A' for Active; 'I' for Inactive)
REMARK    1  A    between atoms: C_1  and  C_2
REMARK    2  A    between atoms: C_1  and  C_17
REMARK    3  A    between atoms: C_2  and  C_3
REMARK    4  A    between atoms: C_3  and  C_4
REMARK    5  A    between atoms: C_4  and  N_6
REMARK    6  A    between atoms: C_8  and  O_9
REMARK    7  A    between atoms: O_9  and  C_11
REMARK    8  A    between atoms: C_17  and  C_18
REMARK    9  A    between atoms: C_18  and  N_20
REMARK   10  A    between atoms: C_22  and  O_23
REMARK   11  A    between atoms: O_23  and  C_25
REMARK                            x       y       z     vdW  Elec       q    Type
REMARK                         _______ _______ _______ _____ _____    ______ ____
ROOT
ATOM      1  C   UNL     1      32.906 -20.055 -20.780  0.00  0.00    +0.002 C 
ENDROOT
BRANCH   1   2
ATOM      2  C   UNL     1      34.092 -19.108 -20.977  0.00  0.00    +0.002 C 
BRANCH   2   3
ATOM      3  C   UNL     1      34.913 -19.500 -22.209  0.00  0.00    +0.022 C 
BRANCH   3   4
ATOM      4  C   UNL     1      35.602 -18.303 -22.859  0.00  0.00    +0.097 C 
BRANCH   4   6
ATOM      5  O   UNL     1      34.124 -16.085 -25.368  0.00  0.00    -0.226 OA
ATOM      6  N   UNL     1      34.918 -17.845 -24.036  0.00  0.00    -0.244 N 
ATOM      7  C   UNL     1      34.414 -18.873 -24.952  0.00  0.00    +0.118 C 
ATOM      8  C   UNL     1      34.707 -16.487 -24.362  0.00  0.00    +0.409 C 
BRANCH   8   9
ATOM      9  O   UNL     1      35.244 -15.634 -23.393  0.00  0.00    -0.413 OA
BRANCH   9  11
ATOM     10  N   UNL     1      32.892 -13.056 -22.352  0.00  0.00    -0.298 N 
ATOM     11  C   UNL     1      34.286 -14.941 -22.646  0.00  0.00    +0.147 C 
ATOM     12  C   UNL     1      33.809 -13.712 -23.077  0.00  0.00    +0.156 C 
ATOM     13  C   UNL     1      33.795 -15.472 -21.456  0.00  0.00    +0.036 C 
ATOM     14  C   UNL     1      32.842 -14.768 -20.724  0.00  0.00    +0.019 C 
ATOM     15  C   UNL     1      32.402 -13.542 -21.204  0.00  0.00    +0.062 C 
ATOM     16  C   UNL     1      32.410 -11.762 -22.831  0.00  0.00    +0.113 C 
ENDBRANCH   9  11
ENDBRANCH   8   9
ENDBRANCH   4   6
ENDBRANCH   3   4
ENDBRANCH   2   3
ENDBRANCH   1   2
BRANCH   1  17
ATOM     17  C   UNL     1      33.055 -20.975 -19.563  0.00  0.00    +0.022 C 
BRANCH  17  18
ATOM     18  C   UNL     1      34.083 -22.090 -19.724  0.00  0.00    +0.097 C 
BRANCH  18  20
ATOM     19  O   UNL     1      35.730 -22.984 -16.579  0.00  0.00    -0.226 OA
ATOM     20  N   UNL     1      35.035 -22.126 -18.648  0.00  0.00    -0.244 N 
ATOM     21  C   UNL     1      36.203 -21.248 -18.767  0.00  0.00    +0.118 C 
ATOM     22  C   UNL     1      34.919 -22.945 -17.503  0.00  0.00    +0.409 C 
BRANCH  22  23
ATOM     23  O   UNL     1      33.757 -23.720 -17.538  0.00  0.00    -0.413 OA
BRANCH  23  25
ATOM     24  N   UNL     1      30.619 -22.841 -15.912  0.00  0.00    -0.298 N 
ATOM     25  C   UNL     1      32.826 -23.403 -16.544  0.00  0.00    +0.147 C 
ATOM     26  C   UNL     1      31.502 -23.146 -16.872  0.00  0.00    +0.156 C 
ATOM     27  C   UNL     1      33.210 -23.337 -15.207  0.00  0.00    +0.036 C 
ATOM     28  C   UNL     1      32.270 -23.018 -14.231  0.00  0.00    +0.019 C 
ATOM     29  C   UNL     1      30.961 -22.771 -14.618  0.00  0.00    +0.062 C 
ATOM     30  C   UNL     1      29.234 -22.574 -16.289  0.00  0.00    +0.113 C 
ENDBRANCH  23  25
ENDBRANCH  22  23
ENDBRANCH  18  20
ENDBRANCH  17  18
ENDBRANCH   1  17
TORSDOF 11
ENDMDL
MODEL 4
REMARK VINA RESULT:      -9.7      4.199     12.113
REMARK  Name = 3116
REMARK  11 active torsions:
REMARK  status: ('A' for Active; 'I' for Inactive)
REMARK    1  A    between atoms: C_1  and  C_2
REMARK    2  A    between atoms: C_1  and  C_17
REMARK    3  A    between atoms: C_2  and  C_3
REMARK    4  A    between atoms: C_3  and  C_4
REMARK    5  A    between atoms: C_4  and  N_6
REMARK    6  A    between atoms: C_8  and  O_9
REMARK    7  A    between atoms: O_9  and  C_11
REMARK    8  A    between atoms: C_17  and  C_18
REMARK    9  A    between atoms: C_18  and  N_20
REMARK   10  A    between atoms: C_22  and  O_23
REMARK   11  A    between atoms: O_23  and  C_25
REMARK                            x       y       z     vdW  Elec       q    Type
REMARK                         _______ _______ _______ _____ _____    ______ ____
ROOT
ATOM      1  C   UNL     1      33.536 -20.676 -19.915  0.00  0.00    +0.002 C 
ENDROOT
BRANCH   1   2
ATOM      2  C   UNL     1      34.749 -20.101 -20.650  0.00  0.00    +0.002 C 
BRANCH   2   3
ATOM      3  C   UNL     1      34.338 -18.958 -21.585  0.00  0.00    +0.022 C 
BRANCH   3   4
ATOM      4  C   UNL     1      35.462 -18.542 -22.530  0.00  0.00    +0.097 C 
BRANCH   4   6
ATOM      5  O   UNL     1      34.486 -16.569 -25.454  0.00  0.00    -0.226 OA
ATOM      6  N   UNL     1      34.983 -18.195 -23.838  0.00  0.00    -0.244 N 
ATOM      7  C   UNL     1      34.566 -19.301 -24.706  0.00  0.00    +0.118 C 
ATOM      8  C   UNL     1      34.893 -16.876 -24.334  0.00  0.00    +0.409 C 
BRANCH   8   9
ATOM      9  O   UNL     1      35.325 -15.939 -23.391  0.00  0.00    -0.413 OA
BRANCH   9  11
ATOM     10  N   UNL     1      33.224 -12.988 -23.019  0.00  0.00    -0.298 N 
ATOM     11  C   UNL     1      34.320 -15.079 -22.935  0.00  0.00    +0.147 C 
ATOM     12  C   UNL     1      34.190 -13.804 -23.464  0.00  0.00    +0.156 C 
ATOM     13  C   UNL     1      33.434 -15.488 -21.942  0.00  0.00    +0.036 C 
ATOM     14  C   UNL     1      32.440 -14.619 -21.499  0.00  0.00    +0.019 C 
ATOM     15  C   UNL     1      32.358 -13.354 -22.065  0.00  0.00    +0.062 C 
ATOM     16  C   UNL     1      33.113 -11.649 -23.594  0.00  0.00    +0.113 C 
ENDBRANCH   9  11
ENDBRANCH   8   9
ENDBRANCH   4   6
ENDBRANCH   3   4
ENDBRANCH   2   3
ENDBRANCH   1   2
BRANCH   1  17
ATOM     17  C   UNL     1      33.703 -22.149 -19.524  0.00  0.00    +0.022 C 
BRANCH  17  18
ATOM     18  C   UNL     1      34.553 -22.389 -18.280  0.00  0.00    +0.097 C 
BRANCH  18  20
ATOM     19  O   UNL     1      33.757 -24.166 -15.179  0.00  0.00    -0.226 OA
ATOM     20  N   UNL     1      33.809 -22.990 -17.208  0.00  0.00    -0.244 N 
ATOM     21  C   UNL     1      32.348 -22.897 -17.284  0.00  0.00    +0.118 C 
ATOM     22  C   UNL     1      34.387 -23.651 -16.102  0.00  0.00    +0.409 C 
BRANCH  22  23
ATOM     23  O   UNL     1      35.783 -23.656 -16.176  0.00  0.00    -0.413 OA
BRANCH  23  25
ATOM     24  N   UNL     1      37.232 -23.840 -12.840  0.00  0.00    -0.298 N 
ATOM     25  C   UNL     1      36.415 -24.159 -15.035  0.00  0.00    +0.147 C 
ATOM     26  C   UNL     1      36.624 -23.349 -13.928  0.00  0.00    +0.156 C 
ATOM     27  C   UNL     1      36.850 -25.481 -14.988  0.00  0.00    +0.036 C 
ATOM     28  C   UNL     1      37.479 -25.964 -13.845  0.00  0.00    +0.019 C 
ATOM     29  C   UNL     1      37.660 -25.108 -12.769  0.00  0.00    +0.062 C 
ATOM     30  C   UNL     1      37.439 -22.961 -11.692  0.00  0.00    +0.113 C 
ENDBRANCH  23  25
ENDBRANCH  22  23
ENDBRANCH  18  20
ENDBRANCH  17  18
ENDBRANCH   1  17
TORSDOF 11
ENDMDL
MODEL 5
REMARK VINA RESULT:      -9.7      3.524      7.295
REMARK  Name = 3116
REMARK  11 active torsions:
REMARK  status: ('A' for Active; 'I' for Inactive)
REMARK    1  A    between atoms: C_1  and  C_2
REMARK    2  A    between atoms: C_1  and  C_17
REMARK    3  A    between atoms: C_2  and  C_3
REMARK    4  A    between atoms: C_3  and  C_4
REMARK    5  A    between atoms: C_4  and  N_6
REMARK    6  A    between atoms: C_8  and  O_9
REMARK    7  A    between atoms: O_9  and  C_11
REMARK    8  A    between atoms: C_17  and  C_18
REMARK    9  A    between atoms: C_18  and  N_20
REMARK   10  A    between atoms: C_22  and  O_23
REMARK   11  A    between atoms: O_23  and  C_25
REMARK                            x       y       z     vdW  Elec       q    Type
REMARK                         _______ _______ _______ _____ _____    ______ ____
ROOT
ATOM      1  C   UNL     1      33.924 -19.031 -21.072  0.00  0.00    +0.002 C 
ENDROOT
BRANCH   1   2
ATOM      2  C   UNL     1      32.847 -20.099 -20.866  0.00  0.00    +0.002 C 
BRANCH   2   3
ATOM      3  C   UNL     1      33.095 -20.894 -19.580  0.00  0.00    +0.022 C 
BRANCH   3   4
ATOM      4  C   UNL     1      34.098 -22.028 -19.778  0.00  0.00    +0.097 C 
BRANCH   4   6
ATOM      5  O   UNL     1      36.063 -22.752 -16.775  0.00  0.00    -0.226 OA
ATOM      6  N   UNL     1      35.155 -22.005 -18.805  0.00  0.00    -0.244 N 
ATOM      7  C   UNL     1      36.298 -21.132 -19.089  0.00  0.00    +0.118 C 
ATOM      8  C   UNL     1      35.162 -22.762 -17.613  0.00  0.00    +0.409 C 
BRANCH   8   9
ATOM      9  O   UNL     1      34.007 -23.540 -17.488  0.00  0.00    -0.413 OA
BRANCH   9  11
ATOM     10  N   UNL     1      33.620 -23.854 -13.880  0.00  0.00    -0.298 N 
ATOM     11  C   UNL     1      33.435 -23.516 -16.212  0.00  0.00    +0.147 C 
ATOM     12  C   UNL     1      34.178 -23.880 -15.099  0.00  0.00    +0.156 C 
ATOM     13  C   UNL     1      32.110 -23.126 -16.036  0.00  0.00    +0.036 C 
ATOM     14  C   UNL     1      31.556 -23.109 -14.759  0.00  0.00    +0.019 C 
ATOM     15  C   UNL     1      32.348 -23.484 -13.682  0.00  0.00    +0.062 C 
ATOM     16  C   UNL     1      34.427 -24.245 -12.727  0.00  0.00    +0.113 C 
ENDBRANCH   9  11
ENDBRANCH   8   9
ENDBRANCH   4   6
ENDBRANCH   3   4
ENDBRANCH   2   3
ENDBRANCH   1   2
BRANCH   1  17
ATOM     17  C   UNL     1      34.987 -19.427 -22.103  0.00  0.00    +0.022 C 
BRANCH  17  18
ATOM     18  C   UNL     1      35.628 -18.258 -22.844  0.00  0.00    +0.097 C 
BRANCH  18  20
ATOM     19  O   UNL     1      34.134 -16.350 -25.589  0.00  0.00    -0.226 OA
ATOM     20  N   UNL     1      34.948 -17.941 -24.070  0.00  0.00    -0.244 N 
ATOM     21  C   UNL     1      34.475 -19.070 -24.876  0.00  0.00    +0.118 C 
ATOM     22  C   UNL     1      34.713 -16.630 -24.541  0.00  0.00    +0.409 C 
BRANCH  22  23
ATOM     23  O   UNL     1      35.221 -15.668 -23.663  0.00  0.00    -0.413 OA
BRANCH  23  25
ATOM     24  N   UNL     1      33.073 -12.827 -22.902  0.00  0.00    -0.298 N 
ATOM     25  C   UNL     1      34.244 -14.875 -23.053  0.00  0.00    +0.147 C 
ATOM     26  C   UNL     1      34.010 -13.580 -23.495  0.00  0.00    +0.156 C 
ATOM     27  C   UNL     1      33.490 -15.367 -21.992  0.00  0.00    +0.036 C 
ATOM     28  C   UNL     1      32.523 -14.563 -21.397  0.00  0.00    +0.019 C 
ATOM     29  C   UNL     1      32.333 -13.277 -21.880  0.00  0.00    +0.062 C 
ATOM     30  C   UNL     1      32.852 -11.468 -23.388  0.00  0.00    +0.113 C 
ENDBRANCH  23  25
ENDBRANCH  22  23
ENDBRANCH  18  20
ENDBRANCH  17  18
ENDBRANCH   1  17
TORSDOF 11
ENDMDL
MODEL 6
REMARK VINA RESULT:      -9.6      4.254      8.309
REMARK  Name = 3116
REMARK  11 active torsions:
REMARK  status: ('A' for Active; 'I' for Inactive)
REMARK    1  A    between atoms: C_1  and  C_2
REMARK    2  A    between atoms: C_1  and  C_17
REMARK    3  A    between atoms: C_2  and  C_3
REMARK    4  A    between atoms: C_3  and  C_4
REMARK    5  A    between atoms: C_4  and  N_6
REMARK    6  A    between atoms: C_8  and  O_9
REMARK    7  A    between atoms: O_9  and  C_11
REMARK    8  A    between atoms: C_17  and  C_18
REMARK    9  A    between atoms: C_18  and  N_20
REMARK   10  A    between atoms: C_22  and  O_23
REMARK   11  A    between atoms: O_23  and  C_25
REMARK                            x       y       z     vdW  Elec       q    Type
REMARK                         _______ _______ _______ _____ _____    ______ ____
ROOT
ATOM      1  C   UNL     1      34.706 -20.168 -20.467  0.00  0.00    +0.002 C 
ENDROOT
BRANCH   1   2
ATOM      2  C   UNL     1      33.480 -20.873 -19.883  0.00  0.00    +0.002 C 
BRANCH   2   3
ATOM      3  C   UNL     1      33.811 -22.313 -19.477  0.00  0.00    +0.022 C 
BRANCH   3   4
ATOM      4  C   UNL     1      34.599 -22.387 -18.172  0.00  0.00    +0.097 C 
BRANCH   4   6
ATOM      5  O   UNL     1      33.824 -24.262 -15.125  0.00  0.00    -0.226 OA
ATOM      6  N   UNL     1      33.862 -23.023 -17.117  0.00  0.00    -0.244 N 
ATOM      7  C   UNL     1      32.399 -22.934 -17.184  0.00  0.00    +0.118 C 
ATOM      8  C   UNL     1      34.447 -23.715 -16.035  0.00  0.00    +0.409 C 
BRANCH   8   9
ATOM      9  O   UNL     1      35.843 -23.711 -16.115  0.00  0.00    -0.413 OA
BRANCH   9  11
ATOM     10  N   UNL     1      37.216 -23.826 -12.743  0.00  0.00    -0.298 N 
ATOM     11  C   UNL     1      36.484 -24.178 -14.962  0.00  0.00    +0.147 C 
ATOM     12  C   UNL     1      36.599 -23.368 -13.842  0.00  0.00    +0.156 C 
ATOM     13  C   UNL     1      37.018 -25.463 -14.919  0.00  0.00    +0.036 C 
ATOM     14  C   UNL     1      37.654 -25.911 -13.765  0.00  0.00    +0.019 C 
ATOM     15  C   UNL     1      37.740 -25.057 -12.674  0.00  0.00    +0.062 C 
ATOM     16  C   UNL     1      37.324 -22.949 -11.580  0.00  0.00    +0.113 C 
ENDBRANCH   9  11
ENDBRANCH   8   9
ENDBRANCH   4   6
ENDBRANCH   3   4
ENDBRANCH   2   3
ENDBRANCH   1   2
BRANCH   1  17
ATOM     17  C   UNL     1      34.356 -19.086 -21.494  0.00  0.00    +0.022 C 
BRANCH  17  18
ATOM     18  C   UNL     1      35.504 -18.677 -22.412  0.00  0.00    +0.097 C 
BRANCH  18  20
ATOM     19  O   UNL     1      34.608 -16.679 -25.346  0.00  0.00    -0.226 OA
ATOM     20  N   UNL     1      35.058 -18.318 -23.730  0.00  0.00    -0.244 N 
ATOM     21  C   UNL     1      34.659 -19.416 -24.616  0.00  0.00    +0.118 C 
ATOM     22  C   UNL     1      34.986 -16.995 -24.219  0.00  0.00    +0.409 C 
BRANCH  22  23
ATOM     23  O   UNL     1      35.398 -16.067 -23.259  0.00  0.00    -0.413 OA
BRANCH  23  25
ATOM     24  N   UNL     1      33.224 -13.160 -22.958  0.00  0.00    -0.298 N 
ATOM     25  C   UNL     1      34.384 -15.215 -22.811  0.00  0.00    +0.147 C 
ATOM     26  C   UNL     1      34.199 -13.970 -23.395  0.00  0.00    +0.156 C 
ATOM     27  C   UNL     1      33.541 -15.599 -21.771  0.00  0.00    +0.036 C 
ATOM     28  C   UNL     1      32.538 -14.738 -21.338  0.00  0.00    +0.019 C 
ATOM     29  C   UNL     1      32.400 -13.505 -21.959  0.00  0.00    +0.062 C 
ATOM     30  C   UNL     1      33.057 -11.855 -23.591  0.00  0.00    +0.113 C 
ENDBRANCH  23  25
ENDBRANCH  22  23
ENDBRANCH  18  20
ENDBRANCH  17  18
ENDBRANCH   1  17
TORSDOF 11
ENDMDL
MODEL 7
REMARK VINA RESULT:      -9.6      1.254     10.973
REMARK  Name = 3116
REMARK  11 active torsions:
REMARK  status: ('A' for Active; 'I' for Inactive)
REMARK    1  A    between atoms: C_1  and  C_2
REMARK    2  A    between atoms: C_1  and  C_17
REMARK    3  A    between atoms: C_2  and  C_3
REMARK    4  A    between atoms: C_3  and  C_4
REMARK    5  A    between atoms: C_4  and  N_6
REMARK    6  A    between atoms: C_8  and  O_9
REMARK    7  A    between atoms: O_9  and  C_11
REMARK    8  A    between atoms: C_17  and  C_18
REMARK    9  A    between atoms: C_18  and  N_20
REMARK   10  A    between atoms: C_22  and  O_23
REMARK   11  A    between atoms: O_23  and  C_25
REMARK                            x       y       z     vdW  Elec       q    Type
REMARK                         _______ _______ _______ _____ _____    ______ ____
ROOT
ATOM      1  C   UNL     1      33.249 -14.480 -21.051  0.00  0.00    +0.002 C 
ENDROOT
BRANCH   1   2
ATOM      2  C   UNL     1      32.364 -13.421 -21.712  0.00  0.00    +0.002 C 
BRANCH   2   3
ATOM      3  C   UNL     1      31.851 -12.408 -20.683  0.00  0.00    +0.022 C 
BRANCH   3   4
ATOM      4  C   UNL     1      31.387 -11.104 -21.327  0.00  0.00    +0.097 C 
BRANCH   4   6
ATOM      5  O   UNL     1      32.103  -7.640 -20.387  0.00  0.00    -0.226 OA
ATOM      6  N   UNL     1      31.727  -9.950 -20.543  0.00  0.00    -0.244 N 
ATOM      7  C   UNL     1      31.997 -10.172 -19.119  0.00  0.00    +0.118 C 
ATOM      8  C   UNL     1      31.815  -8.635 -21.050  0.00  0.00    +0.409 C 
BRANCH   8   9
ATOM      9  O   UNL     1      31.531  -8.590 -22.419  0.00  0.00    -0.413 OA
BRANCH   9  11
ATOM     10  N   UNL     1      33.086  -6.230 -24.716  0.00  0.00    -0.298 N 
ATOM     11  C   UNL     1      32.499  -7.929 -23.182  0.00  0.00    +0.147 C 
ATOM     12  C   UNL     1      32.151  -6.854 -23.987  0.00  0.00    +0.156 C 
ATOM     13  C   UNL     1      33.830  -8.338 -23.148  0.00  0.00    +0.036 C 
ATOM     14  C   UNL     1      34.780  -7.670 -23.916  0.00  0.00    +0.019 C 
ATOM     15  C   UNL     1      34.373  -6.602 -24.703  0.00  0.00    +0.062 C 
ATOM     16  C   UNL     1      32.688  -5.103 -25.556  0.00  0.00    +0.113 C 
ENDBRANCH   9  11
ENDBRANCH   8   9
ENDBRANCH   4   6
ENDBRANCH   3   4
ENDBRANCH   2   3
ENDBRANCH   1   2
BRANCH   1  17
ATOM     17  C   UNL     1      33.417 -15.749 -21.894  0.00  0.00    +0.022 C 
BRANCH  17  18
ATOM     18  C   UNL     1      34.700 -15.807 -22.717  0.00  0.00    +0.097 C 
BRANCH  18  20
ATOM     19  O   UNL     1      35.198 -19.162 -24.096  0.00  0.00    -0.226 OA
ATOM     20  N   UNL     1      34.719 -16.913 -23.634  0.00  0.00    -0.244 N 
ATOM     21  C   UNL     1      34.215 -16.659 -24.988  0.00  0.00    +0.118 C 
ATOM     22  C   UNL     1      35.181 -18.209 -23.318  0.00  0.00    +0.409 C 
BRANCH  22  23
ATOM     23  O   UNL     1      35.627 -18.290 -21.996  0.00  0.00    -0.413 OA
BRANCH  23  25
ATOM     24  N   UNL     1      34.993 -21.038 -19.692  0.00  0.00    -0.298 N 
ATOM     25  C   UNL     1      34.949 -19.234 -21.219  0.00  0.00    +0.147 C 
ATOM     26  C   UNL     1      35.652 -20.136 -20.432  0.00  0.00    +0.156 C 
ATOM     27  C   UNL     1      33.558 -19.290 -21.221  0.00  0.00    +0.036 C 
ATOM     28  C   UNL     1      32.900 -20.237 -20.443  0.00  0.00    +0.019 C 
ATOM     29  C   UNL     1      33.655 -21.113 -19.676  0.00  0.00    +0.062 C 
ATOM     30  C   UNL     1      35.761 -21.975 -18.876  0.00  0.00    +0.113 C 
ENDBRANCH  23  25
ENDBRANCH  22  23
ENDBRANCH  18  20
ENDBRANCH  17  18
ENDBRANCH   1  17
TORSDOF 11
ENDMDL
MODEL 8
REMARK VINA RESULT:      -9.6      1.756     10.659
REMARK  Name = 3116
REMARK  11 active torsions:
REMARK  status: ('A' for Active; 'I' for Inactive)
REMARK    1  A    between atoms: C_1  and  C_2
REMARK    2  A    between atoms: C_1  and  C_17
REMARK    3  A    between atoms: C_2  and  C_3
REMARK    4  A    between atoms: C_3  and  C_4
REMARK    5  A    between atoms: C_4  and  N_6
REMARK    6  A    between atoms: C_8  and  O_9
REMARK    7  A    between atoms: O_9  and  C_11
REMARK    8  A    between atoms: C_17  and  C_18
REMARK    9  A    between atoms: C_18  and  N_20
REMARK   10  A    between atoms: C_22  and  O_23
REMARK   11  A    between atoms: O_23  and  C_25
REMARK                            x       y       z     vdW  Elec       q    Type
REMARK                         _______ _______ _______ _____ _____    ______ ____
ROOT
ATOM      1  C   UNL     1      33.078 -14.139 -22.178  0.00  0.00    +0.002 C 
ENDROOT
BRANCH   1   2
ATOM      2  C   UNL     1      32.773 -13.635 -23.590  0.00  0.00    +0.002 C 
BRANCH   2   3
ATOM      3  C   UNL     1      33.916 -12.766 -24.127  0.00  0.00    +0.022 C 
BRANCH   3   4
ATOM      4  C   UNL     1      33.415 -11.500 -24.815  0.00  0.00    +0.097 C 
BRANCH   4   6
ATOM      5  O   UNL     1      35.126  -8.447 -23.740  0.00  0.00    -0.226 OA
ATOM      6  N   UNL     1      34.364 -10.424 -24.748  0.00  0.00    -0.244 N 
ATOM      7  C   UNL     1      35.451 -10.436 -25.732  0.00  0.00    +0.118 C 
ATOM      8  C   UNL     1      34.317  -9.372 -23.807  0.00  0.00    +0.409 C 
BRANCH   8   9
ATOM      9  O   UNL     1      33.226  -9.502 -22.942  0.00  0.00    -0.413 OA
BRANCH   9  11
ATOM     10  N   UNL     1      31.601  -6.244 -23.030  0.00  0.00    -0.298 N 
ATOM     11  C   UNL     1      32.679  -8.284 -22.523  0.00  0.00    +0.147 C 
ATOM     12  C   UNL     1      32.120  -7.408 -23.443  0.00  0.00    +0.156 C 
ATOM     13  C   UNL     1      32.685  -7.931 -21.177  0.00  0.00    +0.036 C 
ATOM     14  C   UNL     1      32.137  -6.715 -20.777  0.00  0.00    +0.019 C 
ATOM     15  C   UNL     1      31.594  -5.878 -21.742  0.00  0.00    +0.062 C 
ATOM     16  C   UNL     1      31.022  -5.340 -24.022  0.00  0.00    +0.113 C 
ENDBRANCH   9  11
ENDBRANCH   8   9
ENDBRANCH   4   6
ENDBRANCH   3   4
ENDBRANCH   2   3
ENDBRANCH   1   2
BRANCH   1  17
ATOM     17  C   UNL     1      33.540 -15.600 -22.139  0.00  0.00    +0.022 C 
BRANCH  17  18
ATOM     18  C   UNL     1      34.874 -15.870 -22.829  0.00  0.00    +0.097 C 
BRANCH  18  20
ATOM     19  O   UNL     1      35.157 -19.259 -24.186  0.00  0.00    -0.226 OA
ATOM     20  N   UNL     1      34.813 -16.983 -23.736  0.00  0.00    -0.244 N 
ATOM     21  C   UNL     1      34.297 -16.713 -25.081  0.00  0.00    +0.118 C 
ATOM     22  C   UNL     1      35.209 -18.300 -23.417  0.00  0.00    +0.409 C 
BRANCH  22  23
ATOM     23  O   UNL     1      35.676 -18.394 -22.103  0.00  0.00    -0.413 OA
BRANCH  23  25
ATOM     24  N   UNL     1      34.920 -21.033 -19.710  0.00  0.00    -0.298 N 
ATOM     25  C   UNL     1      34.957 -19.285 -21.300  0.00  0.00    +0.147 C 
ATOM     26  C   UNL     1      35.619 -20.182 -20.474  0.00  0.00    +0.156 C 
ATOM     27  C   UNL     1      33.565 -19.292 -21.317  0.00  0.00    +0.036 C 
ATOM     28  C   UNL     1      32.866 -20.186 -20.513  0.00  0.00    +0.019 C 
ATOM     29  C   UNL     1      33.580 -21.060 -19.707  0.00  0.00    +0.062 C 
ATOM     30  C   UNL     1      35.645 -21.966 -18.852  0.00  0.00    +0.113 C 
ENDBRANCH  23  25
ENDBRANCH  22  23
ENDBRANCH  18  20
ENDBRANCH  17  18
ENDBRANCH   1  17
TORSDOF 11
ENDMDL
MODEL 9
REMARK VINA RESULT:      -9.5      5.022     12.472
REMARK  Name = 3116
REMARK  11 active torsions:
REMARK  status: ('A' for Active; 'I' for Inactive)
REMARK    1  A    between atoms: C_1  and  C_2
REMARK    2  A    between atoms: C_1  and  C_17
REMARK    3  A    between atoms: C_2  and  C_3
REMARK    4  A    between atoms: C_3  and  C_4
REMARK    5  A    between atoms: C_4  and  N_6
REMARK    6  A    between atoms: C_8  and  O_9
REMARK    7  A    between atoms: O_9  and  C_11
REMARK    8  A    between atoms: C_17  and  C_18
REMARK    9  A    between atoms: C_18  and  N_20
REMARK   10  A    between atoms: C_22  and  O_23
REMARK   11  A    between atoms: O_23  and  C_25
REMARK                            x       y       z     vdW  Elec       q    Type
REMARK                         _______ _______ _______ _____ _____    ______ ____
ROOT
ATOM      1  C   UNL     1      36.671 -22.102 -16.012  0.00  0.00    +0.002 C 
ENDROOT
BRANCH   1   2
ATOM      2  C   UNL     1      36.936 -21.707 -17.467  0.00  0.00    +0.002 C 
BRANCH   2   3
ATOM      3  C   UNL     1      35.766 -22.110 -18.371  0.00  0.00    +0.022 C 
BRANCH   3   4
ATOM      4  C   UNL     1      35.699 -21.276 -19.647  0.00  0.00    +0.097 C 
BRANCH   4   6
ATOM      5  O   UNL     1      32.901 -19.418 -21.105  0.00  0.00    -0.226 OA
ATOM      6  N   UNL     1      34.363 -20.852 -19.960  0.00  0.00    -0.244 N 
ATOM      7  C   UNL     1      33.268 -21.592 -19.324  0.00  0.00    +0.118 C 
ATOM      8  C   UNL     1      34.043 -19.787 -20.829  0.00  0.00    +0.409 C 
BRANCH   8   9
ATOM      9  O   UNL     1      35.191 -19.184 -21.352  0.00  0.00    -0.413 OA
BRANCH   9  11
ATOM     10  N   UNL     1      34.605 -16.301 -23.498  0.00  0.00    -0.298 N 
ATOM     11  C   UNL     1      34.963 -18.410 -22.494  0.00  0.00    +0.147 C 
ATOM     12  C   UNL     1      34.825 -17.033 -22.397  0.00  0.00    +0.156 C 
ATOM     13  C   UNL     1      34.870 -19.007 -23.748  0.00  0.00    +0.036 C 
ATOM     14  C   UNL     1      34.641 -18.222 -24.875  0.00  0.00    +0.019 C 
ATOM     15  C   UNL     1      34.510 -16.849 -24.717  0.00  0.00    +0.062 C 
ATOM     16  C   UNL     1      34.461 -14.854 -23.364  0.00  0.00    +0.113 C 
ENDBRANCH   9  11
ENDBRANCH   8   9
ENDBRANCH   4   6
ENDBRANCH   3   4
ENDBRANCH   2   3
ENDBRANCH   1   2
BRANCH   1  17
ATOM     17  C   UNL     1      37.683 -23.113 -15.461  0.00  0.00    +0.022 C 
BRANCH  17  18
ATOM     18  C   UNL     1      37.070 -24.273 -14.681  0.00  0.00    +0.097 C 
BRANCH  18  20
ATOM     19  O   UNL     1      34.528 -23.820 -12.086  0.00  0.00    -0.226 OA
ATOM     20  N   UNL     1      36.418 -23.845 -13.475  0.00  0.00    -0.244 N 
ATOM     21  C   UNL     1      37.201 -23.008 -12.560  0.00  0.00    +0.118 C 
ATOM     22  C   UNL     1      35.093 -24.179 -13.118  0.00  0.00    +0.409 C 
BRANCH  22  23
ATOM     23  O   UNL     1      34.483 -24.978 -14.089  0.00  0.00    -0.413 OA
BRANCH  23  25
ATOM     24  N   UNL     1      30.942 -24.418 -14.730  0.00  0.00    -0.298 N 
ATOM     25  C   UNL     1      33.303 -24.442 -14.614  0.00  0.00    +0.147 C 
ATOM     26  C   UNL     1      32.067 -24.937 -14.220  0.00  0.00    +0.156 C 
ATOM     27  C   UNL     1      33.344 -23.405 -15.541  0.00  0.00    +0.036 C 
ATOM     28  C   UNL     1      32.160 -22.885 -16.054  0.00  0.00    +0.019 C 
ATOM     29  C   UNL     1      30.954 -23.420 -15.624  0.00  0.00    +0.062 C 
ATOM     30  C   UNL     1      29.658 -24.962 -14.298  0.00  0.00    +0.113 C 
ENDBRANCH  23  25
ENDBRANCH  22  23
ENDBRANCH  18  20
ENDBRANCH  17  18
ENDBRANCH   1  17
TORSDOF 11
ENDMDL
