MODEL 1
REMARK VINA RESULT:      -6.5      0.000      0.000
REMARK  Name = 121396
REMARK  7 active torsions:
REMARK  status: ('A' for Active; 'I' for Inactive)
REMARK    1  A    between atoms: CA_1  and  N_3
REMARK    2  A    between atoms: CA_1  and  C_10
REMARK    3  A    between atoms: CA_1  and  CB_13
REMARK    4  A    between atoms: C_10  and  O_11
REMARK    5  A    between atoms: CB_13  and  CG_14
REMARK    6  A    between atoms: CG_14  and  CD_16
REMARK    7  A    between atoms: CD_16  and  OE1_17
REMARK                            x       y       z     vdW  Elec       q    Type
REMARK                         _______ _______ _______ _____ _____    ______ ____
ROOT
ATOM      1  CA  UNL     1      37.963 -24.820 -13.520  0.00  0.00    +0.173 C 
ENDROOT
BRANCH   1   3
ATOM      2  O   UNL     1      38.357 -23.111 -15.830  0.00  0.00    -0.253 OA
ATOM      3  N   UNL     1      36.956 -24.097 -14.255  0.00  0.00    -0.281 N 
ATOM      4  N   UNL     1      36.097 -22.714 -15.881  0.00  0.00    -0.313 N 
ATOM      5  C   ACE A   0      37.237 -23.296 -15.357  0.00  0.00    +0.298 C 
ATOM      6  H   UNL     1      36.020 -24.173 -13.962  0.00  0.00    +0.151 HD
ATOM      7  H   UNL     1      36.162 -22.123 -16.664  0.00  0.00    +0.146 HD
ATOM      8  H   UNL     1      35.220 -22.890 -15.468  0.00  0.00    +0.146 HD
ENDBRANCH   1   3
BRANCH   1  10
ATOM      9  OXT UNL     1      38.450 -26.916 -14.660  0.00  0.00    -0.248 OA
ATOM     10  C   UNL     1      37.794 -26.291 -13.839  0.00  0.00    +0.332 C 
BRANCH  10  11
ATOM     11  O   UNL     1      36.834 -26.869 -13.068  0.00  0.00    -0.479 OA
ATOM     12  H   UNL     1      35.954 -26.931 -13.384  0.00  0.00    +0.295 HD
ENDBRANCH  10  11
ENDBRANCH   1  10
BRANCH   1  13
ATOM     13  CB  UNL     1      37.943 -24.505 -12.021  0.00  0.00    +0.043 C 
BRANCH  13  14
ATOM     14  CG  UNL     1      36.790 -23.614 -11.540  0.00  0.00    +0.112 C 
BRANCH  14  16
ATOM     15  OE2 UNL     1      35.399 -24.511  -9.752  0.00  0.00    -0.250 OA
ATOM     16  CD  UNL     1      35.630 -24.383 -10.946  0.00  0.00    +0.314 C 
BRANCH  16  17
ATOM     17  OE1 UNL     1      34.873 -24.970 -11.911  0.00  0.00    -0.480 OA
ATOM     18  HE1 UNL     1      34.034 -25.324 -11.697  0.00  0.00    +0.295 HD
ENDBRANCH  16  17
ENDBRANCH  14  16
ENDBRANCH  13  14
ENDBRANCH   1  13
TORSDOF 7
ENDMDL
MODEL 2
REMARK VINA RESULT:      -6.5      2.740      3.565
REMARK  Name = 121396
REMARK  7 active torsions:
REMARK  status: ('A' for Active; 'I' for Inactive)
REMARK    1  A    between atoms: CA_1  and  N_3
REMARK    2  A    between atoms: CA_1  and  C_10
REMARK    3  A    between atoms: CA_1  and  CB_13
REMARK    4  A    between atoms: C_10  and  O_11
REMARK    5  A    between atoms: CB_13  and  CG_14
REMARK    6  A    between atoms: CG_14  and  CD_16
REMARK    7  A    between atoms: CD_16  and  OE1_17
REMARK                            x       y       z     vdW  Elec       q    Type
REMARK                         _______ _______ _______ _____ _____    ______ ____
ROOT
ATOM      1  CA  UNL     1      39.106 -25.047 -14.291  0.00  0.00    +0.173 C 
ENDROOT
BRANCH   1   3
ATOM      2  O   UNL     1      37.494 -22.636 -14.304  0.00  0.00    -0.253 OA
ATOM      3  N   UNL     1      38.587 -24.348 -15.440  0.00  0.00    -0.281 N 
ATOM      4  N   UNL     1      37.445 -22.720 -16.597  0.00  0.00    -0.313 N 
ATOM      5  C   ACE A   0      37.818 -23.193 -15.352  0.00  0.00    +0.298 C 
ATOM      6  H   UNL     1      38.787 -24.708 -16.334  0.00  0.00    +0.151 HD
ATOM      7  H   UNL     1      36.898 -21.906 -16.671  0.00  0.00    +0.146 HD
ATOM      8  H   UNL     1      37.728 -23.199 -17.410  0.00  0.00    +0.146 HD
ENDBRANCH   1   3
BRANCH   1  10
ATOM      9  OXT UNL     1      41.001 -26.557 -14.037  0.00  0.00    -0.248 OA
ATOM     10  C   UNL     1      40.260 -25.908 -14.764  0.00  0.00    +0.332 C 
BRANCH  10  11
ATOM     11  O   UNL     1      40.366 -25.915 -16.120  0.00  0.00    -0.479 OA
ATOM     12  H   UNL     1      41.184 -25.707 -16.526  0.00  0.00    +0.295 HD
ENDBRANCH  10  11
ENDBRANCH   1  10
BRANCH   1  13
ATOM     13  CB  UNL     1      38.025 -25.823 -13.531  0.00  0.00    +0.043 C 
BRANCH  13  14
ATOM     14  CG  UNL     1      37.441 -27.041 -14.258  0.00  0.00    +0.112 C 
BRANCH  14  16
ATOM     15  OE2 UNL     1      35.715 -25.830 -15.479  0.00  0.00    -0.250 OA
ATOM     16  CD  UNL     1      36.588 -26.686 -15.457  0.00  0.00    +0.314 C 
BRANCH  16  17
ATOM     17  OE1 UNL     1      36.877 -27.473 -16.527  0.00  0.00    -0.480 OA
ATOM     18  HE1 UNL     1      36.193 -27.748 -17.104  0.00  0.00    +0.295 HD
ENDBRANCH  16  17
ENDBRANCH  14  16
ENDBRANCH  13  14
ENDBRANCH   1  13
TORSDOF 7
ENDMDL
MODEL 3
REMARK VINA RESULT:      -6.4      1.896      2.825
REMARK  Name = 121396
REMARK  7 active torsions:
REMARK  status: ('A' for Active; 'I' for Inactive)
REMARK    1  A    between atoms: CA_1  and  N_3
REMARK    2  A    between atoms: CA_1  and  C_10
REMARK    3  A    between atoms: CA_1  and  CB_13
REMARK    4  A    between atoms: C_10  and  O_11
REMARK    5  A    between atoms: CB_13  and  CG_14
REMARK    6  A    between atoms: CG_14  and  CD_16
REMARK    7  A    between atoms: CD_16  and  OE1_17
REMARK                            x       y       z     vdW  Elec       q    Type
REMARK                         _______ _______ _______ _____ _____    ______ ____
ROOT
ATOM      1  CA  UNL     1      39.001 -25.032 -14.410  0.00  0.00    +0.173 C 
ENDROOT
BRANCH   1   3
ATOM      2  O   UNL     1      37.301 -27.258 -13.658  0.00  0.00    -0.253 OA
ATOM      3  N   UNL     1      37.899 -25.584 -15.159  0.00  0.00    -0.281 N 
ATOM      4  N   UNL     1      36.141 -26.993 -15.620  0.00  0.00    -0.313 N 
ATOM      5  C   ACE A   0      37.135 -26.658 -14.719  0.00  0.00    +0.298 C 
ATOM      6  H   UNL     1      37.677 -25.179 -16.027  0.00  0.00    +0.151 HD
ATOM      7  H   UNL     1      35.530 -27.739 -15.426  0.00  0.00    +0.146 HD
ATOM      8  H   UNL     1      36.046 -26.485 -16.459  0.00  0.00    +0.146 HD
ENDBRANCH   1   3
BRANCH   1  10
ATOM      9  OXT UNL     1      40.932 -26.428 -13.901  0.00  0.00    -0.248 OA
ATOM     10  C   UNL     1      40.229 -25.862 -14.727  0.00  0.00    +0.332 C 
BRANCH  10  11
ATOM     11  O   UNL     1      40.454 -25.944 -16.066  0.00  0.00    -0.479 OA
ATOM     12  H   UNL     1      40.970 -26.645 -16.412  0.00  0.00    +0.295 HD
ENDBRANCH  10  11
ENDBRANCH   1  10
BRANCH   1  13
ATOM     13  CB  UNL     1      38.702 -24.918 -12.912  0.00  0.00    +0.043 C 
BRANCH  13  14
ATOM     14  CG  UNL     1      37.672 -23.853 -12.515  0.00  0.00    +0.112 C 
BRANCH  14  16
ATOM     15  OE2 UNL     1      36.603 -23.926 -10.326  0.00  0.00    -0.250 OA
ATOM     16  CD  UNL     1      36.673 -24.325 -11.480  0.00  0.00    +0.314 C 
BRANCH  16  17
ATOM     17  OE1 UNL     1      35.864 -25.300 -11.974  0.00  0.00    -0.480 OA
ATOM     18  HE1 UNL     1      35.823 -25.450 -12.897  0.00  0.00    +0.295 HD
ENDBRANCH  16  17
ENDBRANCH  14  16
ENDBRANCH  13  14
ENDBRANCH   1  13
TORSDOF 7
ENDMDL
MODEL 4
REMARK VINA RESULT:      -6.3      2.269      4.495
REMARK  Name = 121396
REMARK  7 active torsions:
REMARK  status: ('A' for Active; 'I' for Inactive)
REMARK    1  A    between atoms: CA_1  and  N_3
REMARK    2  A    between atoms: CA_1  and  C_10
REMARK    3  A    between atoms: CA_1  and  CB_13
REMARK    4  A    between atoms: C_10  and  O_11
REMARK    5  A    between atoms: CB_13  and  CG_14
REMARK    6  A    between atoms: CG_14  and  CD_16
REMARK    7  A    between atoms: CD_16  and  OE1_17
REMARK                            x       y       z     vdW  Elec       q    Type
REMARK                         _______ _______ _______ _____ _____    ______ ____
ROOT
ATOM      1  CA  UNL     1      37.200 -24.607 -12.496  0.00  0.00    +0.173 C 
ENDROOT
BRANCH   1   3
ATOM      2  O   UNL     1      34.310 -24.382 -12.418  0.00  0.00    -0.253 OA
ATOM      3  N   UNL     1      36.341 -24.021 -13.494  0.00  0.00    -0.281 N 
ATOM      4  N   UNL     1      34.368 -23.346 -14.466  0.00  0.00    -0.313 N 
ATOM      5  C   ACE A   0      34.958 -23.956 -13.373  0.00  0.00    +0.298 C 
ATOM      6  H   UNL     1      36.756 -23.647 -14.304  0.00  0.00    +0.151 HD
ATOM      7  H   UNL     1      33.391 -23.239 -14.502  0.00  0.00    +0.146 HD
ATOM      8  H   UNL     1      34.927 -23.020 -15.209  0.00  0.00    +0.146 HD
ENDBRANCH   1   3
BRANCH   1  10
ATOM      9  OXT UNL     1      37.187 -22.699 -10.983  0.00  0.00    -0.248 OA
ATOM     10  C   UNL     1      37.810 -23.475 -11.695  0.00  0.00    +0.332 C 
BRANCH  10  11
ATOM     11  O   UNL     1      39.163 -23.433 -11.825  0.00  0.00    -0.479 OA
ATOM     12  H   UNL     1      39.595 -22.614 -11.967  0.00  0.00    +0.295 HD
ENDBRANCH  10  11
ENDBRANCH   1  10
BRANCH   1  13
ATOM     13  CB  UNL     1      38.233 -25.568 -13.094  0.00  0.00    +0.043 C 
BRANCH  13  14
ATOM     14  CG  UNL     1      38.565 -25.355 -14.576  0.00  0.00    +0.112 C 
BRANCH  14  16
ATOM     15  OE2 UNL     1      40.879 -24.698 -14.188  0.00  0.00    -0.250 OA
ATOM     16  CD  UNL     1      40.049 -25.288 -14.866  0.00  0.00    +0.314 C 
BRANCH  16  17
ATOM     17  OE1 UNL     1      40.364 -25.939 -16.017  0.00  0.00    -0.480 OA
ATOM     18  HE1 UNL     1      39.696 -26.126 -16.646  0.00  0.00    +0.295 HD
ENDBRANCH  16  17
ENDBRANCH  14  16
ENDBRANCH  13  14
ENDBRANCH   1  13
TORSDOF 7
ENDMDL
MODEL 5
REMARK VINA RESULT:      -6.3      2.067      4.242
REMARK  Name = 121396
REMARK  7 active torsions:
REMARK  status: ('A' for Active; 'I' for Inactive)
REMARK    1  A    between atoms: CA_1  and  N_3
REMARK    2  A    between atoms: CA_1  and  C_10
REMARK    3  A    between atoms: CA_1  and  CB_13
REMARK    4  A    between atoms: C_10  and  O_11
REMARK    5  A    between atoms: CB_13  and  CG_14
REMARK    6  A    between atoms: CG_14  and  CD_16
REMARK    7  A    between atoms: CD_16  and  OE1_17
REMARK                            x       y       z     vdW  Elec       q    Type
REMARK                         _______ _______ _______ _____ _____    ______ ____
ROOT
ATOM      1  CA  UNL     1      37.380 -24.483 -13.087  0.00  0.00    +0.173 C 
ENDROOT
BRANCH   1   3
ATOM      2  O   UNL     1      36.105 -24.380 -15.690  0.00  0.00    -0.253 OA
ATOM      3  N   UNL     1      37.453 -23.418 -14.056  0.00  0.00    -0.281 N 
ATOM      4  N   UNL     1      37.038 -22.311 -16.030  0.00  0.00    -0.313 N 
ATOM      5  C   ACE A   0      36.807 -23.454 -15.286  0.00  0.00    +0.298 C 
ATOM      6  H   UNL     1      37.991 -22.624 -13.836  0.00  0.00    +0.151 HD
ATOM      7  H   UNL     1      36.635 -22.213 -16.922  0.00  0.00    +0.146 HD
ATOM      8  H   UNL     1      37.608 -21.594 -15.666  0.00  0.00    +0.146 HD
ENDBRANCH   1   3
BRANCH   1  10
ATOM      9  OXT UNL     1      36.830 -24.249 -10.726  0.00  0.00    -0.248 OA
ATOM     10  C   UNL     1      37.438 -23.852 -11.711  0.00  0.00    +0.332 C 
BRANCH  10  11
ATOM     11  O   UNL     1      38.289 -22.792 -11.674  0.00  0.00    -0.479 OA
ATOM     12  H   UNL     1      38.970 -22.760 -11.032  0.00  0.00    +0.295 HD
ENDBRANCH  10  11
ENDBRANCH   1  10
BRANCH   1  13
ATOM     13  CB  UNL     1      38.438 -25.567 -13.316  0.00  0.00    +0.043 C 
BRANCH  13  14
ATOM     14  CG  UNL     1      39.809 -25.073 -13.794  0.00  0.00    +0.112 C 
BRANCH  14  16
ATOM     15  OE2 UNL     1      41.315 -26.956 -14.151  0.00  0.00    -0.250 OA
ATOM     16  CD  UNL     1      40.576 -26.094 -14.607  0.00  0.00    +0.314 C 
BRANCH  16  17
ATOM     17  OE1 UNL     1      40.383 -25.918 -15.941  0.00  0.00    -0.480 OA
ATOM     18  HE1 UNL     1      40.036 -26.616 -16.460  0.00  0.00    +0.295 HD
ENDBRANCH  16  17
ENDBRANCH  14  16
ENDBRANCH  13  14
ENDBRANCH   1  13
TORSDOF 7
ENDMDL
MODEL 6
REMARK VINA RESULT:      -6.1      2.515      4.659
REMARK  Name = 121396
REMARK  7 active torsions:
REMARK  status: ('A' for Active; 'I' for Inactive)
REMARK    1  A    between atoms: CA_1  and  N_3
REMARK    2  A    between atoms: CA_1  and  C_10
REMARK    3  A    between atoms: CA_1  and  CB_13
REMARK    4  A    between atoms: C_10  and  O_11
REMARK    5  A    between atoms: CB_13  and  CG_14
REMARK    6  A    between atoms: CG_14  and  CD_16
REMARK    7  A    between atoms: CD_16  and  OE1_17
REMARK                            x       y       z     vdW  Elec       q    Type
REMARK                         _______ _______ _______ _____ _____    ______ ____
ROOT
ATOM      1  CA  UNL     1      37.366 -23.898 -14.245  0.00  0.00    +0.173 C 
ENDROOT
BRANCH   1   3
ATOM      2  O   UNL     1      38.697 -23.117 -11.789  0.00  0.00    -0.253 OA
ATOM      3  N   UNL     1      36.803 -23.861 -12.918  0.00  0.00    -0.281 N 
ATOM      4  N   UNL     1      36.750 -23.524 -10.643  0.00  0.00    -0.313 N 
ATOM      5  C   ACE A   0      37.519 -23.471 -11.792  0.00  0.00    +0.298 C 
ATOM      6  H   UNL     1      35.862 -24.126 -12.804  0.00  0.00    +0.151 HD
ATOM      7  H   UNL     1      37.141 -23.272  -9.776  0.00  0.00    +0.146 HD
ATOM      8  H   UNL     1      35.810 -23.815 -10.693  0.00  0.00    +0.146 HD
ENDBRANCH   1   3
BRANCH   1  10
ATOM      9  OXT UNL     1      36.558 -23.036 -16.375  0.00  0.00    -0.248 OA
ATOM     10  C   UNL     1      36.416 -23.161 -15.166  0.00  0.00    +0.332 C 
BRANCH  10  11
ATOM     11  O   UNL     1      35.339 -22.670 -14.495  0.00  0.00    -0.479 OA
ATOM     12  H   UNL     1      34.947 -21.863 -14.766  0.00  0.00    +0.295 HD
ENDBRANCH  10  11
ENDBRANCH   1  10
BRANCH   1  13
ATOM     13  CB  UNL     1      37.698 -25.321 -14.708  0.00  0.00    +0.043 C 
BRANCH  13  14
ATOM     14  CG  UNL     1      38.995 -25.920 -14.150  0.00  0.00    +0.112 C 
BRANCH  14  16
ATOM     15  OE2 UNL     1      41.001 -24.553 -14.365  0.00  0.00    -0.250 OA
ATOM     16  CD  UNL     1      40.247 -25.400 -14.823  0.00  0.00    +0.314 C 
BRANCH  16  17
ATOM     17  OE1 UNL     1      40.427 -25.964 -16.047  0.00  0.00    -0.480 OA
ATOM     18  HE1 UNL     1      40.458 -25.424 -16.811  0.00  0.00    +0.295 HD
ENDBRANCH  16  17
ENDBRANCH  14  16
ENDBRANCH  13  14
ENDBRANCH   1  13
TORSDOF 7
ENDMDL
MODEL 7
REMARK VINA RESULT:      -6.1      2.448      4.222
REMARK  Name = 121396
REMARK  7 active torsions:
REMARK  status: ('A' for Active; 'I' for Inactive)
REMARK    1  A    between atoms: CA_1  and  N_3
REMARK    2  A    between atoms: CA_1  and  C_10
REMARK    3  A    between atoms: CA_1  and  CB_13
REMARK    4  A    between atoms: C_10  and  O_11
REMARK    5  A    between atoms: CB_13  and  CG_14
REMARK    6  A    between atoms: CG_14  and  CD_16
REMARK    7  A    between atoms: CD_16  and  OE1_17
REMARK                            x       y       z     vdW  Elec       q    Type
REMARK                         _______ _______ _______ _____ _____    ______ ____
ROOT
ATOM      1  CA  UNL     1      37.829 -24.369 -13.167  0.00  0.00    +0.173 C 
ENDROOT
BRANCH   1   3
ATOM      2  O   UNL     1      40.062 -24.569 -15.007  0.00  0.00    -0.253 OA
ATOM      3  N   UNL     1      38.856 -25.382 -13.191  0.00  0.00    -0.281 N 
ATOM      4  N   UNL     1      40.743 -26.474 -13.923  0.00  0.00    -0.313 N 
ATOM      5  C   ACE A   0      39.894 -25.399 -14.115  0.00  0.00    +0.298 C 
ATOM      6  H   UNL     1      38.819 -26.099 -12.518  0.00  0.00    +0.151 HD
ATOM      7  H   UNL     1      41.520 -26.600 -14.513  0.00  0.00    +0.146 HD
ATOM      8  H   UNL     1      40.569 -27.115 -13.195  0.00  0.00    +0.146 HD
ENDBRANCH   1   3
BRANCH   1  10
ATOM      9  OXT UNL     1      37.134 -24.157 -10.842  0.00  0.00    -0.248 OA
ATOM     10  C   UNL     1      37.817 -23.764 -11.778  0.00  0.00    +0.332 C 
BRANCH  10  11
ATOM     11  O   UNL     1      38.697 -22.733 -11.667  0.00  0.00    -0.479 OA
ATOM     12  H   UNL     1      38.383 -21.863 -11.519  0.00  0.00    +0.295 HD
ENDBRANCH  10  11
ENDBRANCH   1  10
BRANCH   1  13
ATOM     13  CB  UNL     1      36.466 -24.898 -13.624  0.00  0.00    +0.043 C 
BRANCH  13  14
ATOM     14  CG  UNL     1      36.399 -25.422 -15.064  0.00  0.00    +0.112 C 
BRANCH  14  16
ATOM     15  OE2 UNL     1      37.224 -27.585 -14.303  0.00  0.00    -0.250 OA
ATOM     16  CD  UNL     1      36.797 -26.876 -15.203  0.00  0.00    +0.314 C 
BRANCH  16  17
ATOM     17  OE1 UNL     1      36.664 -27.309 -16.485  0.00  0.00    -0.480 OA
ATOM     18  HE1 UNL     1      36.566 -26.691 -17.181  0.00  0.00    +0.295 HD
ENDBRANCH  16  17
ENDBRANCH  14  16
ENDBRANCH  13  14
ENDBRANCH   1  13
TORSDOF 7
ENDMDL
MODEL 8
REMARK VINA RESULT:      -6.0      1.680      4.327
REMARK  Name = 121396
REMARK  7 active torsions:
REMARK  status: ('A' for Active; 'I' for Inactive)
REMARK    1  A    between atoms: CA_1  and  N_3
REMARK    2  A    between atoms: CA_1  and  C_10
REMARK    3  A    between atoms: CA_1  and  CB_13
REMARK    4  A    between atoms: C_10  and  O_11
REMARK    5  A    between atoms: CB_13  and  CG_14
REMARK    6  A    between atoms: CG_14  and  CD_16
REMARK    7  A    between atoms: CD_16  and  OE1_17
REMARK                            x       y       z     vdW  Elec       q    Type
REMARK                         _______ _______ _______ _____ _____    ______ ____
ROOT
ATOM      1  CA  UNL     1      36.478 -25.506 -14.392  0.00  0.00    +0.173 C 
ENDROOT
BRANCH   1   3
ATOM      2  O   UNL     1      36.248 -25.400 -11.503  0.00  0.00    -0.253 OA
ATOM      3  N   UNL     1      37.328 -24.792 -13.472  0.00  0.00    -0.281 N 
ATOM      4  N   UNL     1      38.092 -24.034 -11.439  0.00  0.00    -0.313 N 
ATOM      5  C   ACE A   0      37.143 -24.797 -12.095  0.00  0.00    +0.298 C 
ATOM      6  H   UNL     1      38.080 -24.273 -13.839  0.00  0.00    +0.151 HD
ATOM      7  H   UNL     1      38.071 -23.956 -10.459  0.00  0.00    +0.146 HD
ATOM      8  H   UNL     1      38.790 -23.568 -11.955  0.00  0.00    +0.146 HD
ENDBRANCH   1   3
BRANCH   1  10
ATOM      9  OXT UNL     1      38.398 -26.984 -14.643  0.00  0.00    -0.248 OA
ATOM     10  C   UNL     1      37.320 -26.578 -15.054  0.00  0.00    +0.332 C 
BRANCH  10  11
ATOM     11  O   UNL     1      36.717 -27.082 -16.164  0.00  0.00    -0.479 OA
ATOM     12  H   UNL     1      36.233 -27.882 -16.112  0.00  0.00    +0.295 HD
ENDBRANCH  10  11
ENDBRANCH   1  10
BRANCH   1  13
ATOM     13  CB  UNL     1      35.766 -24.579 -15.382  0.00  0.00    +0.043 C 
BRANCH  13  14
ATOM     14  CG  UNL     1      36.112 -23.088 -15.270  0.00  0.00    +0.112 C 
BRANCH  14  16
ATOM     15  OE2 UNL     1      37.031 -21.881 -17.176  0.00  0.00    -0.250 OA
ATOM     16  CD  UNL     1      37.192 -22.639 -16.230  0.00  0.00    +0.314 C 
BRANCH  16  17
ATOM     17  OE1 UNL     1      38.388 -23.218 -15.944  0.00  0.00    -0.480 OA
ATOM     18  HE1 UNL     1      39.002 -22.776 -15.393  0.00  0.00    +0.295 HD
ENDBRANCH  16  17
ENDBRANCH  14  16
ENDBRANCH  13  14
ENDBRANCH   1  13
TORSDOF 7
ENDMDL
MODEL 9
REMARK VINA RESULT:      -6.0      1.524      4.225
REMARK  Name = 121396
REMARK  7 active torsions:
REMARK  status: ('A' for Active; 'I' for Inactive)
REMARK    1  A    between atoms: CA_1  and  N_3
REMARK    2  A    between atoms: CA_1  and  C_10
REMARK    3  A    between atoms: CA_1  and  CB_13
REMARK    4  A    between atoms: C_10  and  O_11
REMARK    5  A    between atoms: CB_13  and  CG_14
REMARK    6  A    between atoms: CG_14  and  CD_16
REMARK    7  A    between atoms: CD_16  and  OE1_17
REMARK                            x       y       z     vdW  Elec       q    Type
REMARK                         _______ _______ _______ _____ _____    ______ ____
ROOT
ATOM      1  CA  UNL     1      36.980 -24.796 -12.708  0.00  0.00    +0.173 C 
ENDROOT
BRANCH   1   3
ATOM      2  O   UNL     1      38.324 -26.611 -14.526  0.00  0.00    -0.253 OA
ATOM      3  N   UNL     1      36.371 -25.684 -13.667  0.00  0.00    -0.281 N 
ATOM      4  N   UNL     1      36.278 -27.271 -15.329  0.00  0.00    -0.313 N 
ATOM      5  C   ACE A   0      37.097 -26.523 -14.503  0.00  0.00    +0.298 C 
ATOM      6  H   UNL     1      35.389 -25.695 -13.734  0.00  0.00    +0.151 HD
ATOM      7  H   UNL     1      36.671 -27.906 -15.970  0.00  0.00    +0.146 HD
ATOM      8  H   UNL     1      35.299 -27.167 -15.276  0.00  0.00    +0.146 HD
ENDBRANCH   1   3
BRANCH   1  10
ATOM      9  OXT UNL     1      36.343 -24.301 -10.409  0.00  0.00    -0.248 OA
ATOM     10  C   UNL     1      36.031 -24.674 -11.533  0.00  0.00    +0.332 C 
BRANCH  10  11
ATOM     11  O   UNL     1      34.755 -24.994 -11.876  0.00  0.00    -0.479 OA
ATOM     12  H   UNL     1      34.590 -25.731 -12.429  0.00  0.00    +0.295 HD
ENDBRANCH  10  11
ENDBRANCH   1  10
BRANCH   1  13
ATOM     13  CB  UNL     1      37.384 -23.450 -13.319  0.00  0.00    +0.043 C 
BRANCH  13  14
ATOM     14  CG  UNL     1      36.650 -23.053 -14.606  0.00  0.00    +0.112 C 
BRANCH  14  16
ATOM     15  OE2 UNL     1      37.339 -22.181 -16.775  0.00  0.00    -0.250 OA
ATOM     16  CD  UNL     1      37.561 -22.891 -15.804  0.00  0.00    +0.314 C 
BRANCH  16  17
ATOM     17  OE1 UNL     1      38.667 -23.674 -15.700  0.00  0.00    -0.480 OA
ATOM     18  HE1 UNL     1      39.517 -23.304 -15.829  0.00  0.00    +0.295 HD
ENDBRANCH  16  17
ENDBRANCH  14  16
ENDBRANCH  13  14
ENDBRANCH   1  13
TORSDOF 7
ENDMDL
