MODEL 1
REMARK VINA RESULT:     -12.2      0.000      0.000
REMARK  Name = 11488320
REMARK  6 active torsions:
REMARK  status: ('A' for Active; 'I' for Inactive)
REMARK    1  A    between atoms: N_2  and  C_15
REMARK    2  A    between atoms: C_4  and  O_23
REMARK    3  A    between atoms: C_6  and  O_21
REMARK    4  A    between atoms: O_23  and  C_25
REMARK    5  A    between atoms: N_24  and  C_31
REMARK    6  A    between atoms: C_31  and  C_34
REMARK                            x       y       z     vdW  Elec       q    Type
REMARK                         _______ _______ _______ _____ _____    ______ ____
ROOT
ATOM      1  N   UNL     1      38.048 -23.340 -14.586  0.00  0.00    -0.248 NA
ATOM      2  N   UNL     1      35.223 -22.710 -17.544  0.00  0.00    -0.296 N 
ATOM      3  N   UNL     1      37.466 -22.696 -16.834  0.00  0.00    -0.230 NA
ATOM      4  C   UNL     1      34.046 -24.043 -13.698  0.00  0.00    +0.168 C 
ATOM      5  C   UNL     1      34.398 -23.607 -14.967  0.00  0.00    +0.044 C 
ATOM      6  C   UNL     1      35.021 -24.242 -12.734  0.00  0.00    +0.156 C 
ATOM      7  C   UNL     1      35.750 -23.368 -15.271  0.00  0.00    +0.048 C 
ATOM      8  C   UNL     1      36.363 -24.003 -13.043  0.00  0.00    +0.112 C 
ATOM      9  C   UNL     1      36.752 -23.565 -14.307  0.00  0.00    +0.066 C 
ATOM     10  C   UNL     1      36.178 -22.931 -16.521  0.00  0.00    +0.131 C 
ATOM     11  C   UNL     1      38.335 -22.919 -15.835  0.00  0.00    +0.252 C 
ATOM     12  H   UNL     1      34.429 -23.288 -17.478  0.00  0.00    +0.154 HD
ENDROOT
BRANCH   2  15
ATOM     13 CL   UNL     1      32.435 -20.023 -20.920  0.00  0.00    -0.080 Cl
ATOM     14  F   UNL     1      32.823 -21.864 -18.640  0.00  0.00    -0.202 F 
ATOM     15  C   UNL     1      35.190 -21.826 -18.635  0.00  0.00    +0.078 C 
ATOM     16  C   UNL     1      33.968 -21.412 -19.174  0.00  0.00    +0.164 C 
ATOM     17  C   UNL     1      36.383 -21.353 -19.190  0.00  0.00    +0.017 C 
ATOM     18  C   UNL     1      33.939 -20.535 -20.256  0.00  0.00    +0.086 C 
ATOM     19  C   UNL     1      36.354 -20.475 -20.273  0.00  0.00    +0.002 C 
ATOM     20  C   UNL     1      35.132 -20.066 -20.807  0.00  0.00    +0.014 C 
ENDBRANCH   2  15
BRANCH   6  21
ATOM     21  O   UNL     1      34.690 -24.670 -11.483  0.00  0.00    -0.472 OA
ATOM     22  C   UNL     1      35.663 -24.484 -10.457  0.00  0.00    +0.252 C 
ENDBRANCH   6  21
BRANCH   4  23
ATOM     23  O   UNL     1      32.726 -24.271 -13.408  0.00  0.00    -0.477 OA
BRANCH  23  25
ATOM     24  N   UNL     1      29.251 -23.740 -15.678  0.00  0.00    +0.393 N 
ATOM     25  C   UNL     1      31.843 -24.417 -14.512  0.00  0.00    +0.162 C 
ATOM     26  C   UNL     1      31.550 -23.040 -15.099  0.00  0.00    +0.021 C 
ATOM     27  C   UNL     1      30.547 -25.085 -14.060  0.00  0.00    +0.021 C 
ATOM     28  C   UNL     1      30.479 -23.116 -16.188  0.00  0.00    -0.073 C 
ATOM     29  C   UNL     1      29.510 -25.099 -15.181  0.00  0.00    -0.073 C 
ATOM     30  H   UNL     1      28.915 -23.178 -14.896  0.00  0.00    -0.079 HD
BRANCH  24  31
ATOM     31  C   UNL     1      28.220 -23.763 -16.717  0.00  0.00    +0.010 C 
BRANCH  31  34
ATOM     32  O   UNL     1      27.176 -21.966 -15.484  0.00  0.00    -0.277 OA
ATOM     33  N   UNL     1      26.794 -22.137 -17.769  0.00  0.00    -0.304 N 
ATOM     34  C   UNL     1      27.344 -22.537 -16.559  0.00  0.00    +0.201 C 
ATOM     35  C   UNL     1      25.941 -20.977 -17.907  0.00  0.00    +0.111 C 
ATOM     36  H   UNL     1      26.994 -22.668 -18.572  0.00  0.00    +0.149 HD
ENDBRANCH  31  34
ENDBRANCH  24  31
ENDBRANCH  23  25
ENDBRANCH   4  23
TORSDOF 6
ENDMDL
MODEL 2
REMARK VINA RESULT:     -12.0      7.672     11.157
REMARK  Name = 11488320
REMARK  6 active torsions:
REMARK  status: ('A' for Active; 'I' for Inactive)
REMARK    1  A    between atoms: N_2  and  C_15
REMARK    2  A    between atoms: C_4  and  O_23
REMARK    3  A    between atoms: C_6  and  O_21
REMARK    4  A    between atoms: O_23  and  C_25
REMARK    5  A    between atoms: N_24  and  C_31
REMARK    6  A    between atoms: C_31  and  C_34
REMARK                            x       y       z     vdW  Elec       q    Type
REMARK                         _______ _______ _______ _____ _____    ______ ____
ROOT
ATOM      1  N   UNL     1      33.569 -15.474 -26.582  0.00  0.00    -0.248 NA
ATOM      2  N   UNL     1      32.735 -13.260 -23.186  0.00  0.00    -0.296 N 
ATOM      3  N   UNL     1      32.684 -13.497 -25.526  0.00  0.00    -0.230 NA
ATOM      4  C   UNL     1      34.598 -17.053 -22.874  0.00  0.00    +0.168 C 
ATOM      5  C   UNL     1      33.989 -15.809 -22.942  0.00  0.00    +0.044 C 
ATOM      6  C   UNL     1      34.861 -17.765 -24.033  0.00  0.00    +0.156 C 
ATOM      7  C   UNL     1      33.640 -15.272 -24.194  0.00  0.00    +0.048 C 
ATOM      8  C   UNL     1      34.510 -17.224 -25.275  0.00  0.00    +0.112 C 
ATOM      9  C   UNL     1      33.899 -15.978 -25.380  0.00  0.00    +0.066 C 
ATOM     10  C   UNL     1      33.027 -14.030 -24.339  0.00  0.00    +0.131 C 
ATOM     11  C   UNL     1      32.978 -14.261 -26.590  0.00  0.00    +0.252 C 
ATOM     12  H   UNL     1      32.553 -13.800 -22.383  0.00  0.00    +0.154 HD
ENDROOT
BRANCH   2  15
ATOM     13 CL   UNL     1      34.602  -8.565 -24.113  0.00  0.00    -0.080 Cl
ATOM     14  F   UNL     1      34.518 -11.507 -24.381  0.00  0.00    -0.202 F 
ATOM     15  C   UNL     1      32.654 -11.876 -22.967  0.00  0.00    +0.078 C 
ATOM     16  C   UNL     1      33.564 -11.008 -23.579  0.00  0.00    +0.164 C 
ATOM     17  C   UNL     1      31.660 -11.354 -22.133  0.00  0.00    +0.017 C 
ATOM     18  C   UNL     1      33.482  -9.634 -23.359  0.00  0.00    +0.086 C 
ATOM     19  C   UNL     1      31.578  -9.980 -21.913  0.00  0.00    +0.002 C 
ATOM     20  C   UNL     1      32.489  -9.119 -22.526  0.00  0.00    +0.014 C 
ENDBRANCH   2  15
BRANCH   6  21
ATOM     21  O   UNL     1      35.459 -18.988 -23.983  0.00  0.00    -0.472 OA
ATOM     22  C   UNL     1      34.934 -20.001 -24.838  0.00  0.00    +0.252 C 
ENDBRANCH   6  21
BRANCH   4  23
ATOM     23  O   UNL     1      34.937 -17.569 -21.651  0.00  0.00    -0.477 OA
BRANCH  23  25
ATOM     24  N   UNL     1      34.378 -21.191 -19.629  0.00  0.00    +0.393 N 
ATOM     25  C   UNL     1      34.798 -18.974 -21.486  0.00  0.00    +0.162 C 
ATOM     26  C   UNL     1      33.436 -19.268 -20.864  0.00  0.00    +0.021 C 
ATOM     27  C   UNL     1      35.912 -19.509 -20.593  0.00  0.00    +0.021 C 
ATOM     28  C   UNL     1      33.292 -20.749 -20.514  0.00  0.00    -0.073 C 
ATOM     29  C   UNL     1      35.693 -20.982 -20.253  0.00  0.00    -0.073 C 
ATOM     30  H   UNL     1      34.340 -20.625 -18.780  0.00  0.00    -0.079 HD
BRANCH  24  31
ATOM     31  C   UNL     1      34.202 -22.597 -19.264  0.00  0.00    +0.010 C 
BRANCH  31  34
ATOM     32  O   UNL     1      32.140 -22.389 -18.023  0.00  0.00    -0.277 OA
ATOM     33  N   UNL     1      34.049 -23.122 -16.922  0.00  0.00    -0.304 N 
ATOM     34  C   UNL     1      33.335 -22.672 -18.024  0.00  0.00    +0.201 C 
ATOM     35  C   UNL     1      33.455 -23.313 -15.618  0.00  0.00    +0.111 C 
ATOM     36  H   UNL     1      35.006 -23.320 -17.034  0.00  0.00    +0.149 HD
ENDBRANCH  31  34
ENDBRANCH  24  31
ENDBRANCH  23  25
ENDBRANCH   4  23
TORSDOF 6
ENDMDL
MODEL 3
REMARK VINA RESULT:     -10.7      4.131      7.643
REMARK  Name = 11488320
REMARK  6 active torsions:
REMARK  status: ('A' for Active; 'I' for Inactive)
REMARK    1  A    between atoms: N_2  and  C_15
REMARK    2  A    between atoms: C_4  and  O_23
REMARK    3  A    between atoms: C_6  and  O_21
REMARK    4  A    between atoms: O_23  and  C_25
REMARK    5  A    between atoms: N_24  and  C_31
REMARK    6  A    between atoms: C_31  and  C_34
REMARK                            x       y       z     vdW  Elec       q    Type
REMARK                         _______ _______ _______ _____ _____    ______ ____
ROOT
ATOM      1  N   UNL     1      31.805 -23.721 -13.168  0.00  0.00    -0.248 NA
ATOM      2  N   UNL     1      35.560 -24.563 -14.691  0.00  0.00    -0.296 N 
ATOM      3  N   UNL     1      34.067 -24.500 -12.875  0.00  0.00    -0.230 NA
ATOM      4  C   UNL     1      32.512 -23.037 -17.210  0.00  0.00    +0.168 C 
ATOM      5  C   UNL     1      33.530 -23.538 -16.412  0.00  0.00    +0.044 C 
ATOM      6  C   UNL     1      31.268 -22.768 -16.663  0.00  0.00    +0.156 C 
ATOM      7  C   UNL     1      33.295 -23.770 -15.045  0.00  0.00    +0.048 C 
ATOM      8  C   UNL     1      31.041 -23.001 -15.303  0.00  0.00    +0.112 C 
ATOM      9  C   UNL     1      32.041 -23.502 -14.473  0.00  0.00    +0.066 C 
ATOM     10  C   UNL     1      34.269 -24.270 -14.185  0.00  0.00    +0.131 C 
ATOM     11  C   UNL     1      32.830 -24.208 -12.439  0.00  0.00    +0.252 C 
ATOM     12  H   UNL     1      35.563 -24.834 -15.638  0.00  0.00    +0.154 HD
ENDROOT
BRANCH   2  15
ATOM     13 CL   UNL     1      40.408 -26.260 -14.691  0.00  0.00    -0.080 Cl
ATOM     14  F   UNL     1      37.636 -26.093 -15.703  0.00  0.00    -0.202 F 
ATOM     15  C   UNL     1      36.834 -24.542 -14.104  0.00  0.00    +0.078 C 
ATOM     16  C   UNL     1      37.869 -25.322 -14.629  0.00  0.00    +0.164 C 
ATOM     17  C   UNL     1      37.079 -23.738 -12.986  0.00  0.00    +0.017 C 
ATOM     18  C   UNL     1      39.133 -25.300 -14.044  0.00  0.00    +0.086 C 
ATOM     19  C   UNL     1      38.344 -23.715 -12.400  0.00  0.00    +0.002 C 
ATOM     20  C   UNL     1      39.372 -24.496 -12.929  0.00  0.00    +0.014 C 
ENDBRANCH   2  15
BRANCH   6  21
ATOM     21  O   UNL     1      30.257 -22.276 -17.433  0.00  0.00    -0.472 OA
ATOM     22  C   UNL     1      28.925 -22.501 -16.975  0.00  0.00    +0.252 C 
ENDBRANCH   6  21
BRANCH   4  23
ATOM     23  O   UNL     1      32.749 -22.811 -18.540  0.00  0.00    -0.477 OA
BRANCH  23  25
ATOM     24  N   UNL     1      34.954 -20.192 -20.946  0.00  0.00    +0.393 N 
ATOM     25  C   UNL     1      33.523 -21.666 -18.868  0.00  0.00    +0.162 C 
ATOM     26  C   UNL     1      32.797 -20.867 -19.946  0.00  0.00    +0.021 C 
ATOM     27  C   UNL     1      34.902 -22.091 -19.365  0.00  0.00    +0.021 C 
ATOM     28  C   UNL     1      33.656 -19.710 -20.455  0.00  0.00    -0.073 C 
ATOM     29  C   UNL     1      35.696 -20.897 -19.891  0.00  0.00    -0.073 C 
ATOM     30  H   UNL     1      34.777 -20.855 -21.702  0.00  0.00    -0.079 HD
BRANCH  24  31
ATOM     31  C   UNL     1      35.746 -19.081 -21.474  0.00  0.00    +0.010 C 
BRANCH  31  34
ATOM     32  O   UNL     1      34.925 -19.609 -23.683  0.00  0.00    -0.277 OA
ATOM     33  N   UNL     1      35.196 -17.382 -23.085  0.00  0.00    -0.304 N 
ATOM     34  C   UNL     1      35.254 -18.751 -22.868  0.00  0.00    +0.201 C 
ATOM     35  C   UNL     1      34.733 -16.794 -24.322  0.00  0.00    +0.111 C 
ATOM     36  H   UNL     1      35.485 -16.781 -22.361  0.00  0.00    +0.149 HD
ENDBRANCH  31  34
ENDBRANCH  24  31
ENDBRANCH  23  25
ENDBRANCH   4  23
TORSDOF 6
ENDMDL
MODEL 4
REMARK VINA RESULT:      -9.9     14.472     17.884
REMARK  Name = 11488320
REMARK  6 active torsions:
REMARK  status: ('A' for Active; 'I' for Inactive)
REMARK    1  A    between atoms: N_2  and  C_15
REMARK    2  A    between atoms: C_4  and  O_23
REMARK    3  A    between atoms: C_6  and  O_21
REMARK    4  A    between atoms: O_23  and  C_25
REMARK    5  A    between atoms: N_24  and  C_31
REMARK    6  A    between atoms: C_31  and  C_34
REMARK                            x       y       z     vdW  Elec       q    Type
REMARK                         _______ _______ _______ _____ _____    ______ ____
ROOT
ATOM      1  N   UNL     1      30.816  -4.899 -23.176  0.00  0.00    -0.248 NA
ATOM      2  N   UNL     1      33.749  -5.378 -26.056  0.00  0.00    -0.296 N 
ATOM      3  N   UNL     1      32.050  -4.079 -25.077  0.00  0.00    -0.230 NA
ATOM      4  C   UNL     1      33.022  -8.425 -23.203  0.00  0.00    +0.168 C 
ATOM      5  C   UNL     1      33.285  -7.447 -24.150  0.00  0.00    +0.044 C 
ATOM      6  C   UNL     1      32.032  -8.228 -22.254  0.00  0.00    +0.156 C 
ATOM      7  C   UNL     1      32.541  -6.254 -24.145  0.00  0.00    +0.048 C 
ATOM      8  C   UNL     1      31.296  -7.039 -22.254  0.00  0.00    +0.112 C 
ATOM      9  C   UNL     1      31.533  -6.036 -23.191  0.00  0.00    +0.066 C 
ATOM     10  C   UNL     1      32.749  -5.229 -25.064  0.00  0.00    +0.131 C 
ATOM     11  C   UNL     1      31.114  -3.982 -24.119  0.00  0.00    +0.252 C 
ATOM     12  H   UNL     1      34.508  -5.939 -25.775  0.00  0.00    +0.154 HD
ENDROOT
BRANCH   2  15
ATOM     13 CL   UNL     1      36.778  -3.617 -29.813  0.00  0.00    -0.080 Cl
ATOM     14  F   UNL     1      36.214  -4.684 -27.115  0.00  0.00    -0.202 F 
ATOM     15  C   UNL     1      33.868  -4.880 -27.363  0.00  0.00    +0.078 C 
ATOM     16  C   UNL     1      35.121  -4.535 -27.879  0.00  0.00    +0.164 C 
ATOM     17  C   UNL     1      32.729  -4.726 -28.161  0.00  0.00    +0.017 C 
ATOM     18  C   UNL     1      35.235  -4.041 -29.177  0.00  0.00    +0.086 C 
ATOM     19  C   UNL     1      32.843  -4.232 -29.460  0.00  0.00    +0.002 C 
ATOM     20  C   UNL     1      34.096  -3.889 -29.969  0.00  0.00    +0.014 C 
ENDBRANCH   2  15
BRANCH   6  21
ATOM     21  O   UNL     1      31.762  -9.180 -21.317  0.00  0.00    -0.472 OA
ATOM     22  C   UNL     1      32.179  -8.910 -19.981  0.00  0.00    +0.252 C 
ENDBRANCH   6  21
BRANCH   4  23
ATOM     23  O   UNL     1      33.749  -9.587 -23.216  0.00  0.00    -0.477 OA
BRANCH  23  25
ATOM     24  N   UNL     1      33.493 -13.467 -24.763  0.00  0.00    +0.393 N 
ATOM     25  C   UNL     1      33.214 -10.670 -23.964  0.00  0.00    +0.162 C 
ATOM     26  C   UNL     1      32.901 -11.822 -23.015  0.00  0.00    +0.021 C 
ATOM     27  C   UNL     1      34.214 -11.117 -25.026  0.00  0.00    +0.021 C 
ATOM     28  C   UNL     1      32.473 -13.074 -23.781  0.00  0.00    -0.073 C 
ATOM     29  C   UNL     1      33.745 -12.389 -25.731  0.00  0.00    -0.073 C 
ATOM     30  H   UNL     1      34.362 -13.646 -24.259  0.00  0.00    -0.079 HD
BRANCH  24  31
ATOM     31  C   UNL     1      33.092 -14.692 -25.455  0.00  0.00    +0.010 C 
BRANCH  31  34
ATOM     32  O   UNL     1      34.592 -16.536 -25.882  0.00  0.00    -0.277 OA
ATOM     33  N   UNL     1      34.225 -15.868 -23.689  0.00  0.00    -0.304 N 
ATOM     34  C   UNL     1      34.041 -15.805 -25.063  0.00  0.00    +0.201 C 
ATOM     35  C   UNL     1      35.104 -16.820 -23.049  0.00  0.00    +0.111 C 
ATOM     36  H   UNL     1      33.732 -15.232 -23.122  0.00  0.00    +0.149 HD
ENDBRANCH  31  34
ENDBRANCH  24  31
ENDBRANCH  23  25
ENDBRANCH   4  23
TORSDOF 6
ENDMDL
MODEL 5
REMARK VINA RESULT:      -9.3     12.091     15.330
REMARK  Name = 11488320
REMARK  6 active torsions:
REMARK  status: ('A' for Active; 'I' for Inactive)
REMARK    1  A    between atoms: N_2  and  C_15
REMARK    2  A    between atoms: C_4  and  O_23
REMARK    3  A    between atoms: C_6  and  O_21
REMARK    4  A    between atoms: O_23  and  C_25
REMARK    5  A    between atoms: N_24  and  C_31
REMARK    6  A    between atoms: C_31  and  C_34
REMARK                            x       y       z     vdW  Elec       q    Type
REMARK                         _______ _______ _______ _____ _____    ______ ____
ROOT
ATOM      1  N   UNL     1      32.258  -8.065 -19.604  0.00  0.00    -0.248 NA
ATOM      2  N   UNL     1      32.711  -7.428 -23.669  0.00  0.00    -0.296 N 
ATOM      3  N   UNL     1      32.712  -6.603 -21.466  0.00  0.00    -0.230 NA
ATOM      4  C   UNL     1      31.781 -11.289 -22.190  0.00  0.00    +0.168 C 
ATOM      5  C   UNL     1      32.086 -10.037 -22.706  0.00  0.00    +0.044 C 
ATOM      6  C   UNL     1      31.637 -11.462 -20.823  0.00  0.00    +0.156 C 
ATOM      7  C   UNL     1      32.247  -8.945 -21.835  0.00  0.00    +0.048 C 
ATOM      8  C   UNL     1      31.800 -10.372 -19.963  0.00  0.00    +0.112 C 
ATOM      9  C   UNL     1      32.105  -9.102 -20.447  0.00  0.00    +0.066 C 
ATOM     10  C   UNL     1      32.553  -7.663 -22.280  0.00  0.00    +0.131 C 
ATOM     11  C   UNL     1      32.554  -6.872 -20.160  0.00  0.00    +0.252 C 
ATOM     12  H   UNL     1      33.046  -8.207 -24.168  0.00  0.00    +0.154 HD
ENDROOT
BRANCH   2  15
ATOM     13 CL   UNL     1      34.434  -4.187 -27.263  0.00  0.00    -0.080 Cl
ATOM     14  F   UNL     1      34.624  -6.518 -25.455  0.00  0.00    -0.202 F 
ATOM     15  C   UNL     1      32.482  -6.299 -24.471  0.00  0.00    +0.078 C 
ATOM     16  C   UNL     1      33.460  -5.855 -25.365  0.00  0.00    +0.164 C 
ATOM     17  C   UNL     1      31.269  -5.608 -24.379  0.00  0.00    +0.017 C 
ATOM     18  C   UNL     1      33.230  -4.733 -26.159  0.00  0.00    +0.086 C 
ATOM     19  C   UNL     1      31.038  -4.486 -25.174  0.00  0.00    +0.002 C 
ATOM     20  C   UNL     1      32.019  -4.048 -26.064  0.00  0.00    +0.014 C 
ENDBRANCH   2  15
BRANCH   6  21
ATOM     21  O   UNL     1      31.338 -12.685 -20.301  0.00  0.00    -0.472 OA
ATOM     22  C   UNL     1      32.423 -13.450 -19.781  0.00  0.00    +0.252 C 
ENDBRANCH   6  21
BRANCH   4  23
ATOM     23  O   UNL     1      31.623 -12.348 -23.045  0.00  0.00    -0.477 OA
BRANCH  23  25
ATOM     24  N   UNL     1      33.891 -15.606 -24.369  0.00  0.00    +0.393 N 
ATOM     25  C   UNL     1      32.790 -13.090 -23.370  0.00  0.00    +0.162 C 
ATOM     26  C   UNL     1      32.742 -13.470 -24.846  0.00  0.00    +0.021 C 
ATOM     27  C   UNL     1      32.869 -14.345 -22.504  0.00  0.00    +0.021 C 
ATOM     28  C   UNL     1      33.891 -14.407 -25.218  0.00  0.00    -0.073 C 
ATOM     29  C   UNL     1      34.015 -15.253 -22.947  0.00  0.00    -0.073 C 
ATOM     30  H   UNL     1      32.997 -16.081 -24.497  0.00  0.00    -0.079 HD
BRANCH  24  31
ATOM     31  C   UNL     1      34.966 -16.515 -24.766  0.00  0.00    +0.010 C 
BRANCH  31  34
ATOM     32  O   UNL     1      33.968 -18.697 -25.044  0.00  0.00    -0.277 OA
ATOM     33  N   UNL     1      35.091 -18.214 -23.069  0.00  0.00    -0.304 N 
ATOM     34  C   UNL     1      34.601 -17.919 -24.333  0.00  0.00    +0.201 C 
ATOM     35  C   UNL     1      34.909 -19.497 -22.427  0.00  0.00    +0.111 C 
ATOM     36  H   UNL     1      35.586 -17.515 -22.584  0.00  0.00    +0.149 HD
ENDBRANCH  31  34
ENDBRANCH  24  31
ENDBRANCH  23  25
ENDBRANCH   4  23
TORSDOF 6
ENDMDL
