MODEL 1
REMARK VINA RESULT:      -9.9      0.000      0.000
REMARK  Name = 44141864
REMARK  5 active torsions:
REMARK  status: ('A' for Active; 'I' for Inactive)
REMARK    1  A    between atoms: C_2  and  C_11
REMARK    2  A    between atoms: C_7  and  C_18
REMARK    3  A    between atoms: C_8  and  O_14
REMARK    4  A    between atoms: C_10  and  O_16
REMARK    5  A    between atoms: C_18  and  C_23
REMARK                            x       y       z     vdW  Elec       q    Type
REMARK                         _______ _______ _______ _____ _____    ______ ____
ROOT
ATOM      1  O   UNL     1      31.182 -22.577 -17.000  0.00  0.00    -0.471 OA
ATOM      2  C   UNL     1      30.305 -22.979 -15.927  0.00  0.00    +0.117 C 
ATOM      3  C   UNL     1      30.968 -23.234 -14.598  0.00  0.00    +0.032 C 
ATOM      4  C   UNL     1      32.527 -22.763 -16.846  0.00  0.00    +0.246 C 
ATOM      5  C   UNL     1      32.294 -23.300 -14.452  0.00  0.00    +0.002 C 
ATOM      6  C   UNL     1      33.122 -23.114 -15.632  0.00  0.00    +0.021 C 
ATOM      7  C   UNL     1      34.512 -23.264 -15.563  0.00  0.00    -0.015 C 
ATOM      8  C   UNL     1      33.316 -22.555 -17.981  0.00  0.00    +0.194 C 
ATOM      9  C   UNL     1      35.297 -23.064 -16.699  0.00  0.00    +0.036 C 
ATOM     10  C   UNL     1      34.700 -22.710 -17.907  0.00  0.00    +0.172 C 
ENDROOT
BRANCH   2  11
ATOM     11  C   UNL     1      29.473 -24.135 -16.417  0.00  0.00    +0.057 C 
ATOM     12  C   UNL     1      28.173 -23.860 -17.112  0.00  0.00    +0.008 C 
ATOM     13  C   UNL     1      28.175 -24.446 -15.731  0.00  0.00    +0.008 C 
ENDBRANCH   2  11
BRANCH   8  14
ATOM     14  O   UNL     1      32.738 -22.204 -19.165  0.00  0.00    -0.469 OA
ATOM     15  C   UNL     1      32.934 -20.863 -19.607  0.00  0.00    +0.252 C 
ENDBRANCH   8  14
BRANCH  10  16
ATOM     16  O   UNL     1      35.479 -22.515 -19.006  0.00  0.00    -0.469 OA
ATOM     17  C   UNL     1      36.482 -21.504 -18.919  0.00  0.00    +0.253 C 
ENDBRANCH  10  16
BRANCH   7  18
ATOM     18  C   UNL     1      35.211 -23.642 -14.294  0.00  0.00    +0.058 C 
BRANCH  18  23
ATOM     19  N   UNL     1      37.875 -26.239 -15.090  0.00  0.00    -0.323 NA
ATOM     20  N   UNL     1      38.950 -24.163 -14.507  0.00  0.00    -0.170 NA
ATOM     21  N   UNL     1      35.508 -26.398 -15.096  0.00  0.00    -0.332 N 
ATOM     22  N   UNL     1      40.214 -26.058 -15.073  0.00  0.00    -0.293 N 
ATOM     23  C   UNL     1      36.548 -24.315 -14.512  0.00  0.00    +0.047 C 
ATOM     24  C   UNL     1      36.685 -25.633 -14.895  0.00  0.00    +0.188 C 
ATOM     25  C   UNL     1      37.727 -23.621 -14.331  0.00  0.00    +0.112 C 
ATOM     26  C   UNL     1      38.951 -25.456 -14.881  0.00  0.00    +0.143 C 
ATOM     27  H   UNL     1      35.575 -27.341 -15.370  0.00  0.00    +0.145 HD
ATOM     28  H   UNL     1      34.625 -25.986 -14.963  0.00  0.00    +0.145 HD
ATOM     29  H   UNL     1      40.274 -27.001 -15.346  0.00  0.00    +0.155 HD
ATOM     30  H   UNL     1      41.035 -25.532 -14.933  0.00  0.00    +0.155 HD
ENDBRANCH  18  23
ENDBRANCH   7  18
TORSDOF 5
ENDMDL
MODEL 2
REMARK VINA RESULT:      -9.7      3.869      6.965
REMARK  Name = 44141864
REMARK  5 active torsions:
REMARK  status: ('A' for Active; 'I' for Inactive)
REMARK    1  A    between atoms: C_2  and  C_11
REMARK    2  A    between atoms: C_7  and  C_18
REMARK    3  A    between atoms: C_8  and  O_14
REMARK    4  A    between atoms: C_10  and  O_16
REMARK    5  A    between atoms: C_18  and  C_23
REMARK                            x       y       z     vdW  Elec       q    Type
REMARK                         _______ _______ _______ _____ _____    ______ ____
ROOT
ATOM      1  O   UNL     1      35.234 -22.894 -14.368  0.00  0.00    -0.471 OA
ATOM      2  C   UNL     1      36.669 -22.834 -14.502  0.00  0.00    +0.117 C 
ATOM      3  C   UNL     1      37.187 -22.522 -15.882  0.00  0.00    +0.032 C 
ATOM      4  C   UNL     1      34.477 -22.988 -15.502  0.00  0.00    +0.246 C 
ATOM      5  C   UNL     1      36.404 -22.509 -16.963  0.00  0.00    +0.002 C 
ATOM      6  C   UNL     1      34.993 -22.810 -16.788  0.00  0.00    +0.021 C 
ATOM      7  C   UNL     1      34.139 -22.905 -17.893  0.00  0.00    -0.015 C 
ATOM      8  C   UNL     1      33.117 -23.252 -15.320  0.00  0.00    +0.194 C 
ATOM      9  C   UNL     1      32.782 -23.176 -17.710  0.00  0.00    +0.036 C 
ATOM     10  C   UNL     1      32.271 -23.349 -16.425  0.00  0.00    +0.172 C 
ENDROOT
BRANCH   2  11
ATOM     11  C   UNL     1      37.242 -24.097 -13.916  0.00  0.00    +0.057 C 
ATOM     12  C   UNL     1      36.511 -24.788 -12.803  0.00  0.00    +0.008 C 
ATOM     13  C   UNL     1      37.800 -24.072 -12.522  0.00  0.00    +0.008 C 
ENDBRANCH   2  11
BRANCH   8  14
ATOM     14  O   UNL     1      32.611 -23.417 -14.065  0.00  0.00    -0.469 OA
ATOM     15  C   UNL     1      32.426 -24.757 -13.615  0.00  0.00    +0.252 C 
ENDBRANCH   8  14
BRANCH  10  16
ATOM     16  O   UNL     1      30.945 -23.609 -16.261  0.00  0.00    -0.469 OA
ATOM     17  C   UNL     1      30.037 -22.543 -16.529  0.00  0.00    +0.253 C 
ENDBRANCH  10  16
BRANCH   7  18
ATOM     18  C   UNL     1      34.627 -22.728 -19.297  0.00  0.00    +0.058 C 
BRANCH  18  23
ATOM     19  N   UNL     1      35.296 -19.241 -20.664  0.00  0.00    -0.323 NA
ATOM     20  N   UNL     1      32.916 -19.579 -20.502  0.00  0.00    -0.170 NA
ATOM     21  N   UNL     1      36.794 -20.961 -20.012  0.00  0.00    -0.332 N 
ATOM     22  N   UNL     1      33.794 -17.554 -21.298  0.00  0.00    -0.293 N 
ATOM     23  C   UNL     1      34.428 -21.330 -19.840  0.00  0.00    +0.047 C 
ATOM     24  C   UNL     1      35.468 -20.489 -20.180  0.00  0.00    +0.188 C 
ATOM     25  C   UNL     1      33.161 -20.817 -20.023  0.00  0.00    +0.112 C 
ATOM     26  C   UNL     1      34.012 -18.856 -20.797  0.00  0.00    +0.143 C 
ATOM     27  H   UNL     1      37.555 -20.383 -20.247  0.00  0.00    +0.145 HD
ATOM     28  H   UNL     1      36.954 -21.867 -19.662  0.00  0.00    +0.145 HD
ATOM     29  H   UNL     1      34.560 -16.982 -21.531  0.00  0.00    +0.155 HD
ATOM     30  H   UNL     1      32.875 -17.220 -21.416  0.00  0.00    +0.155 HD
ENDBRANCH  18  23
ENDBRANCH   7  18
TORSDOF 5
ENDMDL
MODEL 3
REMARK VINA RESULT:      -9.7     14.246     17.466
REMARK  Name = 44141864
REMARK  5 active torsions:
REMARK  status: ('A' for Active; 'I' for Inactive)
REMARK    1  A    between atoms: C_2  and  C_11
REMARK    2  A    between atoms: C_7  and  C_18
REMARK    3  A    between atoms: C_8  and  O_14
REMARK    4  A    between atoms: C_10  and  O_16
REMARK    5  A    between atoms: C_18  and  C_23
REMARK                            x       y       z     vdW  Elec       q    Type
REMARK                         _______ _______ _______ _____ _____    ______ ____
ROOT
ATOM      1  O   UNL     1      33.465 -12.173 -24.159  0.00  0.00    -0.471 OA
ATOM      2  C   UNL     1      34.297 -11.896 -25.305  0.00  0.00    +0.117 C 
ATOM      3  C   UNL     1      34.973 -10.550 -25.315  0.00  0.00    +0.032 C 
ATOM      4  C   UNL     1      33.092 -11.130 -23.357  0.00  0.00    +0.246 C 
ATOM      5  C   UNL     1      34.671  -9.582 -24.446  0.00  0.00    +0.002 C 
ATOM      6  C   UNL     1      33.645  -9.851 -23.452  0.00  0.00    +0.021 C 
ATOM      7  C   UNL     1      33.217  -8.848 -22.575  0.00  0.00    -0.015 C 
ATOM      8  C   UNL     1      32.124 -11.408 -22.388  0.00  0.00    +0.194 C 
ATOM      9  C   UNL     1      32.245  -9.125 -21.613  0.00  0.00    +0.036 C 
ATOM     10  C   UNL     1      31.699 -10.404 -21.519  0.00  0.00    +0.172 C 
ENDROOT
BRANCH   2  11
ATOM     11  C   UNL     1      33.486 -12.172 -26.544  0.00  0.00    +0.057 C 
ATOM     12  C   UNL     1      32.742 -13.469 -26.660  0.00  0.00    +0.008 C 
ATOM     13  C   UNL     1      33.956 -13.223 -27.508  0.00  0.00    +0.008 C 
ENDBRANCH   2  11
BRANCH   8  14
ATOM     14  O   UNL     1      31.590 -12.658 -22.289  0.00  0.00    -0.469 OA
ATOM     15  C   UNL     1      32.319 -13.613 -21.520  0.00  0.00    +0.252 C 
ENDBRANCH   8  14
BRANCH  10  16
ATOM     16  O   UNL     1      30.754 -10.660 -20.573  0.00  0.00    -0.469 OA
ATOM     17  C   UNL     1      31.203 -10.783 -19.225  0.00  0.00    +0.253 C 
ENDBRANCH  10  16
BRANCH   7  18
ATOM     18  C   UNL     1      33.766  -7.457 -22.625  0.00  0.00    +0.058 C 
BRANCH  18  23
ATOM     19  N   UNL     1      31.118  -4.746 -22.970  0.00  0.00    -0.323 NA
ATOM     20  N   UNL     1      31.885  -5.379 -25.165  0.00  0.00    -0.170 NA
ATOM     21  N   UNL     1      32.021  -5.791 -21.041  0.00  0.00    -0.332 N 
ATOM     22  N   UNL     1      30.238  -3.730 -24.893  0.00  0.00    -0.293 N 
ATOM     23  C   UNL     1      32.807  -6.444 -23.213  0.00  0.00    +0.047 C 
ATOM     24  C   UNL     1      31.975  -5.650 -22.451  0.00  0.00    +0.188 C 
ATOM     25  C   UNL     1      32.719  -6.264 -24.578  0.00  0.00    +0.112 C 
ATOM     26  C   UNL     1      31.125  -4.665 -24.315  0.00  0.00    +0.143 C 
ATOM     27  H   UNL     1      31.438  -5.237 -20.472  0.00  0.00    +0.145 HD
ATOM     28  H   UNL     1      32.635  -6.441 -20.631  0.00  0.00    +0.145 HD
ATOM     29  H   UNL     1      29.658  -3.181 -24.319  0.00  0.00    +0.155 HD
ATOM     30  H   UNL     1      30.201  -3.629 -25.872  0.00  0.00    +0.155 HD
ENDBRANCH  18  23
ENDBRANCH   7  18
TORSDOF 5
ENDMDL
MODEL 4
REMARK VINA RESULT:      -9.4     11.132     14.099
REMARK  Name = 44141864
REMARK  5 active torsions:
REMARK  status: ('A' for Active; 'I' for Inactive)
REMARK    1  A    between atoms: C_2  and  C_11
REMARK    2  A    between atoms: C_7  and  C_18
REMARK    3  A    between atoms: C_8  and  O_14
REMARK    4  A    between atoms: C_10  and  O_16
REMARK    5  A    between atoms: C_18  and  C_23
REMARK                            x       y       z     vdW  Elec       q    Type
REMARK                         _______ _______ _______ _____ _____    ______ ____
ROOT
ATOM      1  O   UNL     1      33.541 -15.628 -22.949  0.00  0.00    -0.471 OA
ATOM      2  C   UNL     1      33.408 -16.356 -21.711  0.00  0.00    +0.117 C 
ATOM      3  C   UNL     1      32.602 -15.678 -20.634  0.00  0.00    +0.032 C 
ATOM      4  C   UNL     1      33.228 -14.297 -22.959  0.00  0.00    +0.246 C 
ATOM      5  C   UNL     1      32.210 -14.405 -20.717  0.00  0.00    +0.002 C 
ATOM      6  C   UNL     1      32.582 -13.651 -21.903  0.00  0.00    +0.021 C 
ATOM      7  C   UNL     1      32.283 -12.288 -22.008  0.00  0.00    -0.015 C 
ATOM      8  C   UNL     1      33.567 -13.589 -24.116  0.00  0.00    +0.194 C 
ATOM      9  C   UNL     1      32.629 -11.580 -23.160  0.00  0.00    +0.036 C 
ATOM     10  C   UNL     1      33.270 -12.230 -24.213  0.00  0.00    +0.172 C 
ENDROOT
BRANCH   2  11
ATOM     11  C   UNL     1      34.787 -16.766 -21.264  0.00  0.00    +0.057 C 
ATOM     12  C   UNL     1      35.674 -17.516 -22.213  0.00  0.00    +0.008 C 
ATOM     13  C   UNL     1      35.080 -18.218 -21.028  0.00  0.00    +0.008 C 
ENDBRANCH   2  11
BRANCH   8  14
ATOM     14  O   UNL     1      34.190 -14.221 -25.150  0.00  0.00    -0.469 OA
ATOM     15  C   UNL     1      33.355 -14.805 -26.148  0.00  0.00    +0.252 C 
ENDBRANCH   8  14
BRANCH  10  16
ATOM     16  O   UNL     1      33.598 -11.528 -25.332  0.00  0.00    -0.469 OA
ATOM     17  C   UNL     1      34.792 -10.750 -25.283  0.00  0.00    +0.253 C 
ENDBRANCH  10  16
BRANCH   7  18
ATOM     18  C   UNL     1      31.595 -11.535 -20.913  0.00  0.00    +0.058 C 
BRANCH  18  23
ATOM     19  N   UNL     1      32.352  -7.912 -20.031  0.00  0.00    -0.323 NA
ATOM     20  N   UNL     1      31.611  -8.026 -22.321  0.00  0.00    -0.170 NA
ATOM     21  N   UNL     1      32.505  -9.886 -18.726  0.00  0.00    -0.332 N 
ATOM     22  N   UNL     1      32.188  -5.973 -21.342  0.00  0.00    -0.293 N 
ATOM     23  C   UNL     1      31.765 -10.034 -21.004  0.00  0.00    +0.047 C 
ATOM     24  C   UNL     1      32.200  -9.251 -19.955  0.00  0.00    +0.188 C 
ATOM     25  C   UNL     1      31.482  -9.361 -22.175  0.00  0.00    +0.112 C 
ATOM     26  C   UNL     1      32.044  -7.373 -21.227  0.00  0.00    +0.143 C 
ATOM     27  H   UNL     1      32.818  -9.352 -17.960  0.00  0.00    +0.145 HD
ATOM     28  H   UNL     1      32.406 -10.861 -18.637  0.00  0.00    +0.145 HD
ATOM     29  H   UNL     1      32.502  -5.445 -20.573  0.00  0.00    +0.155 HD
ATOM     30  H   UNL     1      31.976  -5.526 -22.193  0.00  0.00    +0.155 HD
ENDBRANCH  18  23
ENDBRANCH   7  18
TORSDOF 5
ENDMDL
MODEL 5
REMARK VINA RESULT:      -9.3      1.778      4.329
REMARK  Name = 44141864
REMARK  5 active torsions:
REMARK  status: ('A' for Active; 'I' for Inactive)
REMARK    1  A    between atoms: C_2  and  C_11
REMARK    2  A    between atoms: C_7  and  C_18
REMARK    3  A    between atoms: C_8  and  O_14
REMARK    4  A    between atoms: C_10  and  O_16
REMARK    5  A    between atoms: C_18  and  C_23
REMARK                            x       y       z     vdW  Elec       q    Type
REMARK                         _______ _______ _______ _____ _____    ______ ____
ROOT
ATOM      1  O   UNL     1      34.240 -22.744 -18.334  0.00  0.00    -0.471 OA
ATOM      2  C   UNL     1      35.210 -21.957 -19.056  0.00  0.00    +0.117 C 
ATOM      3  C   UNL     1      36.535 -21.755 -18.367  0.00  0.00    +0.032 C 
ATOM      4  C   UNL     1      34.444 -22.968 -17.002  0.00  0.00    +0.246 C 
ATOM      5  C   UNL     1      36.745 -22.087 -17.091  0.00  0.00    +0.002 C 
ATOM      6  C   UNL     1      35.640 -22.669 -16.345  0.00  0.00    +0.021 C 
ATOM      7  C   UNL     1      35.767 -22.951 -14.981  0.00  0.00    -0.015 C 
ATOM      8  C   UNL     1      33.385 -23.552 -16.301  0.00  0.00    +0.194 C 
ATOM      9  C   UNL     1      34.706 -23.526 -14.281  0.00  0.00    +0.036 C 
ATOM     10  C   UNL     1      33.516 -23.827 -14.941  0.00  0.00    +0.172 C 
ENDROOT
BRANCH   2  11
ATOM     11  C   UNL     1      34.546 -20.671 -19.473  0.00  0.00    +0.057 C 
ATOM     12  C   UNL     1      33.246 -20.725 -20.218  0.00  0.00    +0.008 C 
ATOM     13  C   UNL     1      34.500 -20.309 -20.929  0.00  0.00    +0.008 C 
ENDBRANCH   2  11
BRANCH   8  14
ATOM     14  O   UNL     1      32.220 -23.852 -16.942  0.00  0.00    -0.469 OA
ATOM     15  C   UNL     1      31.167 -22.895 -16.851  0.00  0.00    +0.252 C 
ENDBRANCH   8  14
BRANCH  10  16
ATOM     16  O   UNL     1      32.491 -24.392 -14.246  0.00  0.00    -0.469 OA
ATOM     17  C   UNL     1      31.704 -23.525 -13.431  0.00  0.00    +0.253 C 
ENDBRANCH  10  16
BRANCH   7  18
ATOM     18  C   UNL     1      37.020 -22.653 -14.218  0.00  0.00    +0.058 C 
BRANCH  18  23
ATOM     19  N   UNL     1      39.010 -25.737 -13.213  0.00  0.00    -0.323 NA
ATOM     20  N   UNL     1      39.830 -24.927 -15.328  0.00  0.00    -0.170 NA
ATOM     21  N   UNL     1      37.228 -24.619 -12.115  0.00  0.00    -0.332 N 
ATOM     22  N   UNL     1      40.772 -26.822 -14.316  0.00  0.00    -0.293 N 
ATOM     23  C   UNL     1      38.022 -23.787 -14.222  0.00  0.00    +0.047 C 
ATOM     24  C   UNL     1      38.117 -24.724 -13.214  0.00  0.00    +0.188 C 
ATOM     25  C   UNL     1      38.913 -23.939 -15.265  0.00  0.00    +0.112 C 
ATOM     26  C   UNL     1      39.823 -25.777 -14.285  0.00  0.00    +0.143 C 
ATOM     27  H   UNL     1      37.274 -25.273 -11.381  0.00  0.00    +0.145 HD
ATOM     28  H   UNL     1      36.566 -23.892 -12.085  0.00  0.00    +0.145 HD
ATOM     29  H   UNL     1      40.812 -27.473 -13.580  0.00  0.00    +0.155 HD
ATOM     30  H   UNL     1      41.393 -26.899 -15.076  0.00  0.00    +0.155 HD
ENDBRANCH  18  23
ENDBRANCH   7  18
TORSDOF 5
ENDMDL
MODEL 6
REMARK VINA RESULT:      -9.3     14.320     17.540
REMARK  Name = 44141864
REMARK  5 active torsions:
REMARK  status: ('A' for Active; 'I' for Inactive)
REMARK    1  A    between atoms: C_2  and  C_11
REMARK    2  A    between atoms: C_7  and  C_18
REMARK    3  A    between atoms: C_8  and  O_14
REMARK    4  A    between atoms: C_10  and  O_16
REMARK    5  A    between atoms: C_18  and  C_23
REMARK                            x       y       z     vdW  Elec       q    Type
REMARK                         _______ _______ _______ _____ _____    ______ ____
ROOT
ATOM      1  O   UNL     1      33.442 -12.213 -24.140  0.00  0.00    -0.471 OA
ATOM      2  C   UNL     1      34.242 -11.998 -25.321  0.00  0.00    +0.117 C 
ATOM      3  C   UNL     1      34.928 -10.660 -25.414  0.00  0.00    +0.032 C 
ATOM      4  C   UNL     1      33.102 -11.131 -23.377  0.00  0.00    +0.246 C 
ATOM      5  C   UNL     1      34.660  -9.650 -24.583  0.00  0.00    +0.002 C 
ATOM      6  C   UNL     1      33.662  -9.863 -23.548  0.00  0.00    +0.021 C 
ATOM      7  C   UNL     1      33.268  -8.816 -22.706  0.00  0.00    -0.015 C 
ATOM      8  C   UNL     1      32.161 -11.354 -22.368  0.00  0.00    +0.194 C 
ATOM      9  C   UNL     1      32.323  -9.038 -21.705  0.00  0.00    +0.036 C 
ATOM     10  C   UNL     1      31.770 -10.306 -21.535  0.00  0.00    +0.172 C 
ENDROOT
BRANCH   2  11
ATOM     11  C   UNL     1      33.393 -12.324 -26.521  0.00  0.00    +0.057 C 
ATOM     12  C   UNL     1      32.743 -13.672 -26.616  0.00  0.00    +0.008 C 
ATOM     13  C   UNL     1      33.890 -13.328 -27.520  0.00  0.00    +0.008 C 
ENDBRANCH   2  11
BRANCH   8  14
ATOM     14  O   UNL     1      31.620 -12.593 -22.195  0.00  0.00    -0.469 OA
ATOM     15  C   UNL     1      32.348 -13.508 -21.379  0.00  0.00    +0.252 C 
ENDBRANCH   8  14
BRANCH  10  16
ATOM     16  O   UNL     1      30.851 -10.509 -20.551  0.00  0.00    -0.469 OA
ATOM     17  C   UNL     1      31.338 -10.567 -19.212  0.00  0.00    +0.253 C 
ENDBRANCH  10  16
BRANCH   7  18
ATOM     18  C   UNL     1      33.827  -7.433 -22.838  0.00  0.00    +0.058 C 
BRANCH  18  23
ATOM     19  N   UNL     1      32.187  -5.002 -25.263  0.00  0.00    -0.323 NA
ATOM     20  N   UNL     1      30.837  -5.159 -23.273  0.00  0.00    -0.170 NA
ATOM     21  N   UNL     1      34.187  -6.264 -25.452  0.00  0.00    -0.332 N 
ATOM     22  N   UNL     1      30.207  -3.762 -25.050  0.00  0.00    -0.293 N 
ATOM     23  C   UNL     1      32.865  -6.443 -23.457  0.00  0.00    +0.047 C 
ATOM     24  C   UNL     1      33.042  -5.887 -24.707  0.00  0.00    +0.188 C 
ATOM     25  C   UNL     1      31.733  -6.038 -22.778  0.00  0.00    +0.112 C 
ATOM     26  C   UNL     1      31.122  -4.687 -24.501  0.00  0.00    +0.143 C 
ATOM     27  H   UNL     1      34.339  -5.883 -26.347  0.00  0.00    +0.145 HD
ATOM     28  H   UNL     1      34.830  -6.907 -25.075  0.00  0.00    +0.145 HD
ATOM     29  H   UNL     1      30.365  -3.385 -25.945  0.00  0.00    +0.155 HD
ATOM     30  H   UNL     1      29.411  -3.495 -24.537  0.00  0.00    +0.155 HD
ENDBRANCH  18  23
ENDBRANCH   7  18
TORSDOF 5
ENDMDL
MODEL 7
REMARK VINA RESULT:      -9.1     12.341     15.096
REMARK  Name = 44141864
REMARK  5 active torsions:
REMARK  status: ('A' for Active; 'I' for Inactive)
REMARK    1  A    between atoms: C_2  and  C_11
REMARK    2  A    between atoms: C_7  and  C_18
REMARK    3  A    between atoms: C_8  and  O_14
REMARK    4  A    between atoms: C_10  and  O_16
REMARK    5  A    between atoms: C_18  and  C_23
REMARK                            x       y       z     vdW  Elec       q    Type
REMARK                         _______ _______ _______ _____ _____    ______ ____
ROOT
ATOM      1  O   UNL     1      33.368  -8.145 -22.277  0.00  0.00    -0.471 OA
ATOM      2  C   UNL     1      32.229  -8.126 -21.393  0.00  0.00    +0.117 C 
ATOM      3  C   UNL     1      31.554  -9.453 -21.162  0.00  0.00    +0.032 C 
ATOM      4  C   UNL     1      33.558  -9.241 -23.072  0.00  0.00    +0.246 C 
ATOM      5  C   UNL     1      31.838 -10.543 -21.879  0.00  0.00    +0.002 C 
ATOM      6  C   UNL     1      32.844 -10.432 -22.923  0.00  0.00    +0.021 C 
ATOM      7  C   UNL     1      33.118 -11.511 -23.771  0.00  0.00    -0.015 C 
ATOM      8  C   UNL     1      34.545  -9.131 -24.055  0.00  0.00    +0.194 C 
ATOM      9  C   UNL     1      34.099 -11.397 -24.757  0.00  0.00    +0.036 C 
ATOM     10  C   UNL     1      34.812 -10.208 -24.899  0.00  0.00    +0.172 C 
ENDROOT
BRANCH   2  11
ATOM     11  C   UNL     1      31.291  -7.048 -21.869  0.00  0.00    +0.057 C 
ATOM     12  C   UNL     1      31.844  -5.868 -22.611  0.00  0.00    +0.008 C 
ATOM     13  C   UNL     1      31.329  -5.700 -21.212  0.00  0.00    +0.008 C 
ENDBRANCH   2  11
BRANCH   8  14
ATOM     14  O   UNL     1      35.249  -7.972 -24.196  0.00  0.00    -0.469 OA
ATOM     15  C   UNL     1      34.588  -6.890 -24.848  0.00  0.00    +0.252 C 
ENDBRANCH   8  14
BRANCH  10  16
ATOM     16  O   UNL     1      35.769 -10.113 -25.863  0.00  0.00    -0.469 OA
ATOM     17  C   UNL     1      35.595 -10.915 -27.030  0.00  0.00    +0.253 C 
ENDBRANCH  10  16
BRANCH   7  18
ATOM     18  C   UNL     1      32.388 -12.813 -23.667  0.00  0.00    +0.058 C 
BRANCH  18  23
ATOM     19  N   UNL     1      34.192 -15.988 -24.739  0.00  0.00    -0.323 NA
ATOM     20  N   UNL     1      34.927 -15.373 -22.528  0.00  0.00    -0.170 NA
ATOM     21  N   UNL     1      32.583 -14.664 -25.873  0.00  0.00    -0.332 N 
ATOM     22  N   UNL     1      35.779 -17.282 -23.594  0.00  0.00    -0.293 N 
ATOM     23  C   UNL     1      33.295 -14.024 -23.672  0.00  0.00    +0.047 C 
ATOM     24  C   UNL     1      33.384 -14.906 -24.730  0.00  0.00    +0.188 C 
ATOM     25  C   UNL     1      34.097 -14.310 -22.587  0.00  0.00    +0.112 C 
ATOM     26  C   UNL     1      34.924 -16.158 -23.621  0.00  0.00    +0.143 C 
ATOM     27  H   UNL     1      32.626 -15.276 -26.643  0.00  0.00    +0.145 HD
ATOM     28  H   UNL     1      31.984 -13.884 -25.899  0.00  0.00    +0.145 HD
ATOM     29  H   UNL     1      35.817 -17.890 -24.367  0.00  0.00    +0.155 HD
ATOM     30  H   UNL     1      36.336 -17.456 -22.802  0.00  0.00    +0.155 HD
ENDBRANCH  18  23
ENDBRANCH   7  18
TORSDOF 5
ENDMDL
MODEL 8
REMARK VINA RESULT:      -9.1     12.189     15.137
REMARK  Name = 44141864
REMARK  5 active torsions:
REMARK  status: ('A' for Active; 'I' for Inactive)
REMARK    1  A    between atoms: C_2  and  C_11
REMARK    2  A    between atoms: C_7  and  C_18
REMARK    3  A    between atoms: C_8  and  O_14
REMARK    4  A    between atoms: C_10  and  O_16
REMARK    5  A    between atoms: C_18  and  C_23
REMARK                            x       y       z     vdW  Elec       q    Type
REMARK                         _______ _______ _______ _____ _____    ______ ____
ROOT
ATOM      1  O   UNL     1      33.059 -14.815 -22.882  0.00  0.00    -0.471 OA
ATOM      2  C   UNL     1      32.768 -15.349 -21.574  0.00  0.00    +0.117 C 
ATOM      3  C   UNL     1      32.120 -14.395 -20.605  0.00  0.00    +0.032 C 
ATOM      4  C   UNL     1      33.037 -13.459 -23.052  0.00  0.00    +0.246 C 
ATOM      5  C   UNL     1      32.008 -13.086 -20.843  0.00  0.00    +0.002 C 
ATOM      6  C   UNL     1      32.538 -12.572 -22.095  0.00  0.00    +0.021 C 
ATOM      7  C   UNL     1      32.537 -11.198 -22.363  0.00  0.00    -0.015 C 
ATOM      8  C   UNL     1      33.524 -12.979 -24.270  0.00  0.00    +0.194 C 
ATOM      9  C   UNL     1      33.031 -10.719 -23.577  0.00  0.00    +0.036 C 
ATOM     10  C   UNL     1      33.524 -11.609 -24.530  0.00  0.00    +0.172 C 
ENDROOT
BRANCH   2  11
ATOM     11  C   UNL     1      34.026 -15.985 -21.043  0.00  0.00    +0.057 C 
ATOM     12  C   UNL     1      35.043 -16.519 -22.008  0.00  0.00    +0.008 C 
ATOM     13  C   UNL     1      34.216 -17.467 -21.189  0.00  0.00    +0.008 C 
ENDBRANCH   2  11
BRANCH   8  14
ATOM     14  O   UNL     1      34.003 -13.844 -25.208  0.00  0.00    -0.469 OA
ATOM     15  C   UNL     1      33.069 -14.351 -26.158  0.00  0.00    +0.252 C 
ENDBRANCH   8  14
BRANCH  10  16
ATOM     16  O   UNL     1      33.999 -11.127 -25.711  0.00  0.00    -0.469 OA
ATOM     17  C   UNL     1      35.247 -10.437 -25.676  0.00  0.00    +0.253 C 
ENDBRANCH  10  16
BRANCH   7  18
ATOM     18  C   UNL     1      32.020 -10.194 -21.381  0.00  0.00    +0.058 C 
BRANCH  18  23
ATOM     19  N   UNL     1      32.277  -6.423 -21.819  0.00  0.00    -0.323 NA
ATOM     20  N   UNL     1      31.107  -7.357 -23.708  0.00  0.00    -0.170 NA
ATOM     21  N   UNL     1      33.054  -7.835 -20.078  0.00  0.00    -0.332 N 
ATOM     22  N   UNL     1      31.495  -5.048 -23.552  0.00  0.00    -0.293 N 
ATOM     23  C   UNL     1      31.893  -8.797 -21.946  0.00  0.00    +0.047 C 
ATOM     24  C   UNL     1      32.388  -7.672 -21.319  0.00  0.00    +0.188 C 
ATOM     25  C   UNL     1      31.255  -8.577 -23.150  0.00  0.00    +0.112 C 
ATOM     26  C   UNL     1      31.633  -6.341 -23.000  0.00  0.00    +0.143 C 
ATOM     27  H   UNL     1      33.418  -7.051 -19.608  0.00  0.00    +0.145 HD
ATOM     28  H   UNL     1      33.152  -8.732 -19.687  0.00  0.00    +0.145 HD
ATOM     29  H   UNL     1      31.862  -4.268 -23.077  0.00  0.00    +0.155 HD
ATOM     30  H   UNL     1      31.033  -4.929 -24.413  0.00  0.00    +0.155 HD
ENDBRANCH  18  23
ENDBRANCH   7  18
TORSDOF 5
ENDMDL
MODEL 9
REMARK VINA RESULT:      -8.9      6.184      9.123
REMARK  Name = 44141864
REMARK  5 active torsions:
REMARK  status: ('A' for Active; 'I' for Inactive)
REMARK    1  A    between atoms: C_2  and  C_11
REMARK    2  A    between atoms: C_7  and  C_18
REMARK    3  A    between atoms: C_8  and  O_14
REMARK    4  A    between atoms: C_10  and  O_16
REMARK    5  A    between atoms: C_18  and  C_23
REMARK                            x       y       z     vdW  Elec       q    Type
REMARK                         _______ _______ _______ _____ _____    ______ ____
ROOT
ATOM      1  O   UNL     1      33.870 -14.880 -22.994  0.00  0.00    -0.471 OA
ATOM      2  C   UNL     1      33.840 -14.233 -21.705  0.00  0.00    +0.117 C 
ATOM      3  C   UNL     1      34.610 -14.921 -20.608  0.00  0.00    +0.032 C 
ATOM      4  C   UNL     1      34.293 -16.178 -23.062  0.00  0.00    +0.246 C 
ATOM      5  C   UNL     1      35.114 -16.150 -20.738  0.00  0.00    +0.002 C 
ATOM      6  C   UNL     1      34.904 -16.845 -21.998  0.00  0.00    +0.021 C 
ATOM      7  C   UNL     1      35.324 -18.169 -22.164  0.00  0.00    -0.015 C 
ATOM      8  C   UNL     1      34.111 -16.827 -24.287  0.00  0.00    +0.194 C 
ATOM      9  C   UNL     1      35.134 -18.818 -23.384  0.00  0.00    +0.036 C 
ATOM     10  C   UNL     1      34.528 -18.148 -24.445  0.00  0.00    +0.172 C 
ENDROOT
BRANCH   2  11
ATOM     11  C   UNL     1      32.400 -13.966 -21.354  0.00  0.00    +0.057 C 
ATOM     12  C   UNL     1      31.727 -12.740 -21.896  0.00  0.00    +0.008 C 
ATOM     13  C   UNL     1      32.068 -12.825 -20.437  0.00  0.00    +0.008 C 
ENDBRANCH   2  11
BRANCH   8  14
ATOM     14  O   UNL     1      33.523 -16.174 -25.329  0.00  0.00    -0.469 OA
ATOM     15  C   UNL     1      34.267 -15.119 -25.934  0.00  0.00    +0.252 C 
ENDBRANCH   8  14
BRANCH  10  16
ATOM     16  O   UNL     1      34.352 -18.793 -25.631  0.00  0.00    -0.469 OA
ATOM     17  C   UNL     1      34.588 -20.199 -25.646  0.00  0.00    +0.253 C 
ENDBRANCH  10  16
BRANCH   7  18
ATOM     18  C   UNL     1      35.982 -18.942 -21.063  0.00  0.00    +0.058 C 
BRANCH  18  23
ATOM     19  N   UNL     1      34.728 -21.950 -19.099  0.00  0.00    -0.323 NA
ATOM     20  N   UNL     1      32.837 -20.700 -19.915  0.00  0.00    -0.170 NA
ATOM     21  N   UNL     1      36.935 -21.222 -19.573  0.00  0.00    -0.332 N 
ATOM     22  N   UNL     1      32.535 -22.650 -18.646  0.00  0.00    -0.293 N 
ATOM     23  C   UNL     1      35.073 -19.954 -20.401  0.00  0.00    +0.047 C 
ATOM     24  C   UNL     1      35.534 -21.043 -19.690  0.00  0.00    +0.188 C 
ATOM     25  C   UNL     1      33.701 -19.832 -20.482  0.00  0.00    +0.112 C 
ATOM     26  C   UNL     1      33.409 -21.719 -19.250  0.00  0.00    +0.143 C 
ATOM     27  H   UNL     1      37.293 -21.990 -19.072  0.00  0.00    +0.145 HD
ATOM     28  H   UNL     1      37.551 -20.579 -19.992  0.00  0.00    +0.145 HD
ATOM     29  H   UNL     1      32.899 -23.415 -18.146  0.00  0.00    +0.155 HD
ATOM     30  H   UNL     1      31.561 -22.531 -18.725  0.00  0.00    +0.155 HD
ENDBRANCH  18  23
ENDBRANCH   7  18
TORSDOF 5
ENDMDL
