MODEL 1
REMARK VINA RESULT:     -12.3      0.000      0.000
REMARK  Name = 9799284
REMARK  5 active torsions:
REMARK  status: ('A' for Active; 'I' for Inactive)
REMARK    1  A    between atoms: N_1  and  C_19
REMARK    2  A    between atoms: C_2  and  C_8
REMARK    3  A    between atoms: C_8  and  N_10
REMARK    4  A    between atoms: C_19  and  C_21
REMARK    5  A    between atoms: C_21  and  C_23
REMARK                            x       y       z     vdW  Elec       q    Type
REMARK                         _______ _______ _______ _____ _____    ______ ____
ROOT
ATOM      1  N   UNL     1      34.372 -16.703 -21.851  0.00  0.00    +0.392 N 
ATOM      2  C   UNL     1      33.390 -14.033 -22.561  0.00  0.00    +0.016 C 
ATOM      3  C   UNL     1      33.925 -15.018 -23.607  0.00  0.00    -0.021 C 
ATOM      4  C   UNL     1      32.871 -14.803 -21.342  0.00  0.00    -0.021 C 
ATOM      5  C   UNL     1      34.944 -15.980 -22.995  0.00  0.00    -0.077 C 
ATOM      6  C   UNL     1      33.926 -15.773 -20.805  0.00  0.00    -0.077 C 
ATOM      7  H   UNL     1      33.556 -17.219 -22.181  0.00  0.00    -0.079 HD
ENDROOT
BRANCH   2   8
ATOM      8  C   UNL     1      32.301 -13.142 -23.151  0.00  0.00    +0.094 C 
BRANCH   8  10
ATOM      9  O   UNL     1      31.182 -10.704 -21.766  0.00  0.00    -0.270 OA
ATOM     10  N   UNL     1      32.727 -11.776 -23.203  0.00  0.00    -0.272 N 
ATOM     11  C   UNL     1      33.874 -11.351 -24.011  0.00  0.00    +0.121 C 
ATOM     12  C   UNL     1      32.139 -10.706 -22.518  0.00  0.00    +0.249 C 
ATOM     13  C   UNL     1      33.928  -9.885 -23.748  0.00  0.00    +0.002 C 
ATOM     14  C   UNL     1      32.910  -9.510 -22.871  0.00  0.00    +0.051 C 
ATOM     15  C   UNL     1      34.809  -8.941 -24.240  0.00  0.00    -0.002 C 
ATOM     16  C   UNL     1      32.727  -8.205 -22.456  0.00  0.00    +0.004 C 
ATOM     17  C   UNL     1      34.646  -7.613 -23.835  0.00  0.00    -0.000 C 
ATOM     18  C   UNL     1      33.615  -7.248 -22.950  0.00  0.00    +0.000 C 
ENDBRANCH   8  10
ENDBRANCH   2   8
BRANCH   1  19
ATOM     19  C   UNL     1      35.340 -17.656 -21.310  0.00  0.00    -0.006 C 
BRANCH  19  21
ATOM     20  O   UNL     1      34.868 -19.342 -22.971  0.00  0.00    -0.294 OA
ATOM     21  C   UNL     1      34.979 -19.053 -21.782  0.00  0.00    +0.152 C 
BRANCH  21  23
ATOM     22  F   UNL     1      34.131 -23.013 -17.938  0.00  0.00    -0.204 F 
ATOM     23  C   UNL     1      34.752 -20.113 -20.754  0.00  0.00    +0.033 C 
ATOM     24  C   UNL     1      35.846 -20.750 -20.213  0.00  0.00    +0.005 C 
ATOM     25  C   UNL     1      33.460 -20.410 -20.388  0.00  0.00    +0.005 C 
ATOM     26  C   UNL     1      35.634 -21.739 -19.252  0.00  0.00    +0.030 C 
ATOM     27  C   UNL     1      33.248 -21.398 -19.428  0.00  0.00    +0.030 C 
ATOM     28  C   UNL     1      34.335 -22.063 -18.860  0.00  0.00    +0.140 C 
ENDBRANCH  21  23
ENDBRANCH  19  21
ENDBRANCH   1  19
TORSDOF 5
ENDMDL
MODEL 2
REMARK VINA RESULT:     -12.2      0.909      1.727
REMARK  Name = 9799284
REMARK  5 active torsions:
REMARK  status: ('A' for Active; 'I' for Inactive)
REMARK    1  A    between atoms: N_1  and  C_19
REMARK    2  A    between atoms: C_2  and  C_8
REMARK    3  A    between atoms: C_8  and  N_10
REMARK    4  A    between atoms: C_19  and  C_21
REMARK    5  A    between atoms: C_21  and  C_23
REMARK                            x       y       z     vdW  Elec       q    Type
REMARK                         _______ _______ _______ _____ _____    ______ ____
ROOT
ATOM      1  N   UNL     1      34.342 -16.667 -21.872  0.00  0.00    +0.392 N 
ATOM      2  C   UNL     1      33.408 -14.006 -22.675  0.00  0.00    +0.016 C 
ATOM      3  C   UNL     1      33.951 -15.026 -23.682  0.00  0.00    -0.021 C 
ATOM      4  C   UNL     1      32.854 -14.736 -21.446  0.00  0.00    -0.021 C 
ATOM      5  C   UNL     1      34.946 -15.982 -23.023  0.00  0.00    -0.077 C 
ATOM      6  C   UNL     1      33.886 -15.703 -20.861  0.00  0.00    -0.077 C 
ATOM      7  H   UNL     1      33.527 -17.182 -22.205  0.00  0.00    -0.079 HD
ENDROOT
BRANCH   2   8
ATOM      8  C   UNL     1      32.342 -13.119 -23.312  0.00  0.00    +0.094 C 
BRANCH   8  10
ATOM      9  O   UNL     1      34.424 -11.638 -24.920  0.00  0.00    -0.270 OA
ATOM     10  N   UNL     1      32.730 -11.741 -23.271  0.00  0.00    -0.272 N 
ATOM     11  C   UNL     1      32.100 -10.785 -22.355  0.00  0.00    +0.121 C 
ATOM     12  C   UNL     1      33.715 -11.142 -24.064  0.00  0.00    +0.249 C 
ATOM     13  C   UNL     1      32.814  -9.516 -22.673  0.00  0.00    +0.002 C 
ATOM     14  C   UNL     1      33.761  -9.728 -23.676  0.00  0.00    +0.051 C 
ATOM     15  C   UNL     1      32.648  -8.259 -22.124  0.00  0.00    -0.002 C 
ATOM     16  C   UNL     1      34.567  -8.719 -24.165  0.00  0.00    +0.004 C 
ATOM     17  C   UNL     1      33.452  -7.219 -22.602  0.00  0.00    -0.000 C 
ATOM     18  C   UNL     1      34.403  -7.447 -23.614  0.00  0.00    +0.000 C 
ENDBRANCH   8  10
ENDBRANCH   2   8
BRANCH   1  19
ATOM     19  C   UNL     1      35.287 -17.616 -21.285  0.00  0.00    -0.006 C 
BRANCH  19  21
ATOM     20  O   UNL     1      34.925 -19.291 -22.984  0.00  0.00    -0.294 OA
ATOM     21  C   UNL     1      34.967 -19.011 -21.788  0.00  0.00    +0.152 C 
BRANCH  21  23
ATOM     22  F   UNL     1      33.943 -23.019 -18.038  0.00  0.00    -0.204 F 
ATOM     23  C   UNL     1      34.693 -20.083 -20.784  0.00  0.00    +0.033 C 
ATOM     24  C   UNL     1      33.391 -20.309 -20.401  0.00  0.00    +0.005 C 
ATOM     25  C   UNL     1      35.753 -20.803 -20.284  0.00  0.00    +0.005 C 
ATOM     26  C   UNL     1      33.134 -21.311 -19.465  0.00  0.00    +0.030 C 
ATOM     27  C   UNL     1      35.497 -21.804 -19.348  0.00  0.00    +0.030 C 
ATOM     28  C   UNL     1      34.188 -22.058 -18.938  0.00  0.00    +0.140 C 
ENDBRANCH  21  23
ENDBRANCH  19  21
ENDBRANCH   1  19
TORSDOF 5
ENDMDL
MODEL 3
REMARK VINA RESULT:     -11.9      3.622     10.377
REMARK  Name = 9799284
REMARK  5 active torsions:
REMARK  status: ('A' for Active; 'I' for Inactive)
REMARK    1  A    between atoms: N_1  and  C_19
REMARK    2  A    between atoms: C_2  and  C_8
REMARK    3  A    between atoms: C_8  and  N_10
REMARK    4  A    between atoms: C_19  and  C_21
REMARK    5  A    between atoms: C_21  and  C_23
REMARK                            x       y       z     vdW  Elec       q    Type
REMARK                         _______ _______ _______ _____ _____    ______ ____
ROOT
ATOM      1  N   UNL     1      33.879 -13.804 -23.341  0.00  0.00    +0.392 N 
ATOM      2  C   UNL     1      34.649 -16.582 -22.806  0.00  0.00    +0.016 C 
ATOM      3  C   UNL     1      34.552 -16.014 -24.226  0.00  0.00    -0.021 C 
ATOM      4  C   UNL     1      34.919 -15.447 -21.812  0.00  0.00    -0.021 C 
ATOM      5  C   UNL     1      33.544 -14.866 -24.299  0.00  0.00    -0.077 C 
ATOM      6  C   UNL     1      33.899 -14.318 -21.965  0.00  0.00    -0.077 C 
ATOM      7  H   UNL     1      34.815 -13.464 -23.563  0.00  0.00    -0.079 HD
ENDROOT
BRANCH   2   8
ATOM      8  C   UNL     1      35.727 -17.658 -22.717  0.00  0.00    +0.094 C 
BRANCH   8  10
ATOM      9  O   UNL     1      37.422 -19.372 -20.899  0.00  0.00    -0.270 OA
ATOM     10  N   UNL     1      35.344 -18.695 -21.807  0.00  0.00    -0.272 N 
ATOM     11  C   UNL     1      33.943 -19.089 -21.626  0.00  0.00    +0.121 C 
ATOM     12  C   UNL     1      36.211 -19.440 -20.998  0.00  0.00    +0.249 C 
ATOM     13  C   UNL     1      34.043 -20.171 -20.606  0.00  0.00    +0.002 C 
ATOM     14  C   UNL     1      35.374 -20.375 -20.240  0.00  0.00    +0.051 C 
ATOM     15  C   UNL     1      33.038 -20.928 -20.034  0.00  0.00    -0.002 C 
ATOM     16  C   UNL     1      35.754 -21.321 -19.309  0.00  0.00    +0.004 C 
ATOM     17  C   UNL     1      33.396 -21.894 -19.088  0.00  0.00    -0.000 C 
ATOM     18  C   UNL     1      34.743 -22.089 -18.728  0.00  0.00    +0.000 C 
ENDBRANCH   8  10
ENDBRANCH   2   8
BRANCH   1  19
ATOM     19  C   UNL     1      32.938 -12.691 -23.458  0.00  0.00    -0.006 C 
BRANCH  19  21
ATOM     20  O   UNL     1      34.317 -11.680 -25.161  0.00  0.00    -0.294 OA
ATOM     21  C   UNL     1      33.624 -11.531 -24.157  0.00  0.00    +0.152 C 
BRANCH  21  23
ATOM     22  F   UNL     1      32.955  -6.398 -22.067  0.00  0.00    -0.204 F 
ATOM     23  C   UNL     1      33.445 -10.158 -23.597  0.00  0.00    +0.033 C 
ATOM     24  C   UNL     1      34.382  -9.197 -23.900  0.00  0.00    +0.005 C 
ATOM     25  C   UNL     1      32.351  -9.908 -22.802  0.00  0.00    +0.005 C 
ATOM     26  C   UNL     1      34.215  -7.914 -23.379  0.00  0.00    +0.030 C 
ATOM     27  C   UNL     1      32.183  -8.626 -22.281  0.00  0.00    +0.030 C 
ATOM     28  C   UNL     1      33.115  -7.629 -22.568  0.00  0.00    +0.140 C 
ENDBRANCH  21  23
ENDBRANCH  19  21
ENDBRANCH   1  19
TORSDOF 5
ENDMDL
MODEL 4
REMARK VINA RESULT:     -11.5      4.108      6.686
REMARK  Name = 9799284
REMARK  5 active torsions:
REMARK  status: ('A' for Active; 'I' for Inactive)
REMARK    1  A    between atoms: N_1  and  C_19
REMARK    2  A    between atoms: C_2  and  C_8
REMARK    3  A    between atoms: C_8  and  N_10
REMARK    4  A    between atoms: C_19  and  C_21
REMARK    5  A    between atoms: C_21  and  C_23
REMARK                            x       y       z     vdW  Elec       q    Type
REMARK                         _______ _______ _______ _____ _____    ______ ____
ROOT
ATOM      1  N   UNL     1      34.197 -21.604 -19.040  0.00  0.00    +0.392 N 
ATOM      2  C   UNL     1      35.618 -19.952 -21.001  0.00  0.00    +0.016 C 
ATOM      3  C   UNL     1      34.217 -19.599 -20.490  0.00  0.00    -0.021 C 
ATOM      4  C   UNL     1      36.350 -20.804 -19.959  0.00  0.00    -0.021 C 
ATOM      5  C   UNL     1      33.452 -20.851 -20.058  0.00  0.00    -0.077 C 
ATOM      6  C   UNL     1      35.514 -22.016 -19.545  0.00  0.00    -0.077 C 
ATOM      7  H   UNL     1      34.345 -20.989 -18.240  0.00  0.00    -0.079 HD
ENDROOT
BRANCH   2   8
ATOM      8  C   UNL     1      36.414 -18.693 -21.337  0.00  0.00    +0.094 C 
BRANCH   8  10
ATOM      9  O   UNL     1      35.034 -16.055 -20.834  0.00  0.00    -0.270 OA
ATOM     10  N   UNL     1      35.685 -17.849 -22.234  0.00  0.00    -0.272 N 
ATOM     11  C   UNL     1      35.502 -18.194 -23.647  0.00  0.00    +0.121 C 
ATOM     12  C   UNL     1      35.075 -16.632 -21.905  0.00  0.00    +0.249 C 
ATOM     13  C   UNL     1      34.704 -17.044 -24.159  0.00  0.00    +0.002 C 
ATOM     14  C   UNL     1      34.455 -16.130 -23.135  0.00  0.00    +0.051 C 
ATOM     15  C   UNL     1      34.226 -16.810 -25.435  0.00  0.00    -0.002 C 
ATOM     16  C   UNL     1      33.734 -14.968 -23.331  0.00  0.00    +0.004 C 
ATOM     17  C   UNL     1      33.493 -15.641 -25.661  0.00  0.00    -0.000 C 
ATOM     18  C   UNL     1      33.250 -14.727 -24.618  0.00  0.00    +0.000 C 
ENDBRANCH   8  10
ENDBRANCH   2   8
BRANCH   1  19
ATOM     19  C   UNL     1      33.430 -22.768 -18.600  0.00  0.00    -0.006 C 
BRANCH  19  21
ATOM     20  O   UNL     1      35.048 -23.269 -16.881  0.00  0.00    -0.294 OA
ATOM     21  C   UNL     1      33.867 -23.149 -17.197  0.00  0.00    +0.152 C 
BRANCH  21  23
ATOM     22  F   UNL     1      29.930 -24.033 -13.338  0.00  0.00    -0.204 F 
ATOM     23  C   UNL     1      32.814 -23.384 -16.164  0.00  0.00    +0.033 C 
ATOM     24  C   UNL     1      31.505 -23.105 -16.484  0.00  0.00    +0.005 C 
ATOM     25  C   UNL     1      33.193 -23.872 -14.936  0.00  0.00    +0.005 C 
ATOM     26  C   UNL     1      30.520 -23.327 -15.520  0.00  0.00    +0.030 C 
ATOM     27  C   UNL     1      32.211 -24.094 -13.972  0.00  0.00    +0.030 C 
ATOM     28  C   UNL     1      30.874 -23.821 -14.264  0.00  0.00    +0.140 C 
ENDBRANCH  21  23
ENDBRANCH  19  21
ENDBRANCH   1  19
TORSDOF 5
ENDMDL
MODEL 5
REMARK VINA RESULT:     -11.4      4.107      6.651
REMARK  Name = 9799284
REMARK  5 active torsions:
REMARK  status: ('A' for Active; 'I' for Inactive)
REMARK    1  A    between atoms: N_1  and  C_19
REMARK    2  A    between atoms: C_2  and  C_8
REMARK    3  A    between atoms: C_8  and  N_10
REMARK    4  A    between atoms: C_19  and  C_21
REMARK    5  A    between atoms: C_21  and  C_23
REMARK                            x       y       z     vdW  Elec       q    Type
REMARK                         _______ _______ _______ _____ _____    ______ ____
ROOT
ATOM      1  N   UNL     1      34.165 -21.816 -19.059  0.00  0.00    +0.392 N 
ATOM      2  C   UNL     1      35.611 -19.980 -20.830  0.00  0.00    +0.016 C 
ATOM      3  C   UNL     1      34.152 -19.751 -20.422  0.00  0.00    -0.021 C 
ATOM      4  C   UNL     1      36.320 -20.827 -19.767  0.00  0.00    -0.021 C 
ATOM      5  C   UNL     1      33.449 -21.071 -20.104  0.00  0.00    -0.077 C 
ATOM      6  C   UNL     1      35.545 -22.112 -19.471  0.00  0.00    -0.077 C 
ATOM      7  H   UNL     1      34.205 -21.229 -18.225  0.00  0.00    -0.079 HD
ENDROOT
BRANCH   2   8
ATOM      8  C   UNL     1      36.336 -18.655 -21.049  0.00  0.00    +0.094 C 
BRANCH   8  10
ATOM      9  O   UNL     1      34.991 -15.969 -20.744  0.00  0.00    -0.270 OA
ATOM     10  N   UNL     1      35.654 -17.851 -22.018  0.00  0.00    -0.272 N 
ATOM     11  C   UNL     1      35.512 -18.272 -23.415  0.00  0.00    +0.121 C 
ATOM     12  C   UNL     1      35.057 -16.607 -21.779  0.00  0.00    +0.249 C 
ATOM     13  C   UNL     1      34.754 -17.140 -24.017  0.00  0.00    +0.002 C 
ATOM     14  C   UNL     1      34.488 -16.165 -23.056  0.00  0.00    +0.051 C 
ATOM     15  C   UNL     1      34.323 -16.971 -25.320  0.00  0.00    -0.002 C 
ATOM     16  C   UNL     1      33.797 -15.003 -23.342  0.00  0.00    +0.004 C 
ATOM     17  C   UNL     1      33.621 -15.804 -25.637  0.00  0.00    -0.000 C 
ATOM     18  C   UNL     1      33.361 -14.828 -24.656  0.00  0.00    +0.000 C 
ENDBRANCH   8  10
ENDBRANCH   2   8
BRANCH   1  19
ATOM     19  C   UNL     1      33.454 -23.050 -18.730  0.00  0.00    -0.006 C 
BRANCH  19  21
ATOM     20  O   UNL     1      31.525 -22.270 -17.506  0.00  0.00    -0.294 OA
ATOM     21  C   UNL     1      32.622 -22.824 -17.480  0.00  0.00    +0.152 C 
BRANCH  21  23
ATOM     22  F   UNL     1      34.643 -24.599 -12.588  0.00  0.00    -0.204 F 
ATOM     23  C   UNL     1      33.163 -23.298 -16.171  0.00  0.00    +0.033 C 
ATOM     24  C   UNL     1      32.278 -23.568 -15.152  0.00  0.00    +0.005 C 
ATOM     25  C   UNL     1      34.523 -23.447 -16.036  0.00  0.00    +0.005 C 
ATOM     26  C   UNL     1      32.783 -24.012 -13.930  0.00  0.00    +0.030 C 
ATOM     27  C   UNL     1      35.029 -23.891 -14.815  0.00  0.00    +0.030 C 
ATOM     28  C   UNL     1      34.159 -24.173 -13.761  0.00  0.00    +0.140 C 
ENDBRANCH  21  23
ENDBRANCH  19  21
ENDBRANCH   1  19
TORSDOF 5
ENDMDL
MODEL 6
REMARK VINA RESULT:     -11.3      3.750     10.331
REMARK  Name = 9799284
REMARK  5 active torsions:
REMARK  status: ('A' for Active; 'I' for Inactive)
REMARK    1  A    between atoms: N_1  and  C_19
REMARK    2  A    between atoms: C_2  and  C_8
REMARK    3  A    between atoms: C_8  and  N_10
REMARK    4  A    between atoms: C_19  and  C_21
REMARK    5  A    between atoms: C_21  and  C_23
REMARK                            x       y       z     vdW  Elec       q    Type
REMARK                         _______ _______ _______ _____ _____    ______ ____
ROOT
ATOM      1  N   UNL     1      32.631 -13.182 -21.886  0.00  0.00    +0.392 N 
ATOM      2  C   UNL     1      33.914 -15.775 -22.358  0.00  0.00    +0.016 C 
ATOM      3  C   UNL     1      33.998 -14.621 -23.363  0.00  0.00    -0.021 C 
ATOM      4  C   UNL     1      33.676 -15.220 -20.950  0.00  0.00    -0.021 C 
ATOM      5  C   UNL     1      32.782 -13.699 -23.252  0.00  0.00    -0.077 C 
ATOM      6  C   UNL     1      32.471 -14.278 -20.919  0.00  0.00    -0.077 C 
ATOM      7  H   UNL     1      33.481 -12.673 -21.645  0.00  0.00    -0.079 HD
ENDROOT
BRANCH   2   8
ATOM      8  C   UNL     1      35.175 -16.635 -22.402  0.00  0.00    +0.094 C 
BRANCH   8  10
ATOM      9  O   UNL     1      37.184 -18.690 -21.476  0.00  0.00    -0.270 OA
ATOM     10  N   UNL     1      34.974 -17.876 -21.718  0.00  0.00    -0.272 N 
ATOM     11  C   UNL     1      33.638 -18.348 -21.344  0.00  0.00    +0.121 C 
ATOM     12  C   UNL     1      35.978 -18.770 -21.327  0.00  0.00    +0.249 C 
ATOM     13  C   UNL     1      33.931 -19.645 -20.671  0.00  0.00    +0.002 C 
ATOM     14  C   UNL     1      35.304 -19.890 -20.663  0.00  0.00    +0.051 C 
ATOM     15  C   UNL     1      33.056 -20.553 -20.104  0.00  0.00    -0.002 C 
ATOM     16  C   UNL     1      35.856 -21.025 -20.101  0.00  0.00    +0.004 C 
ATOM     17  C   UNL     1      33.589 -21.711 -19.528  0.00  0.00    -0.000 C 
ATOM     18  C   UNL     1      34.977 -21.945 -19.526  0.00  0.00    +0.000 C 
ENDBRANCH   8  10
ENDBRANCH   2   8
BRANCH   1  19
ATOM     19  C   UNL     1      31.497 -12.262 -21.808  0.00  0.00    -0.006 C 
BRANCH  19  21
ATOM     20  O   UNL     1      31.761 -11.629 -19.495  0.00  0.00    -0.294 OA
ATOM     21  C   UNL     1      31.729 -11.282 -20.673  0.00  0.00    +0.152 C 
BRANCH  21  23
ATOM     22  F   UNL     1      32.463  -5.891 -21.928  0.00  0.00    -0.204 F 
ATOM     23  C   UNL     1      31.926  -9.840 -21.009  0.00  0.00    +0.033 C 
ATOM     24  C   UNL     1      31.900  -9.463 -22.332  0.00  0.00    +0.005 C 
ATOM     25  C   UNL     1      32.126  -8.946 -19.983  0.00  0.00    +0.005 C 
ATOM     26  C   UNL     1      32.083  -8.116 -22.646  0.00  0.00    +0.030 C 
ATOM     27  C   UNL     1      32.308  -7.600 -20.295  0.00  0.00    +0.030 C 
ATOM     28  C   UNL     1      32.287  -7.184 -21.627  0.00  0.00    +0.140 C 
ENDBRANCH  21  23
ENDBRANCH  19  21
ENDBRANCH   1  19
TORSDOF 5
ENDMDL
MODEL 7
REMARK VINA RESULT:     -11.2      4.586     11.182
REMARK  Name = 9799284
REMARK  5 active torsions:
REMARK  status: ('A' for Active; 'I' for Inactive)
REMARK    1  A    between atoms: N_1  and  C_19
REMARK    2  A    between atoms: C_2  and  C_8
REMARK    3  A    between atoms: C_8  and  N_10
REMARK    4  A    between atoms: C_19  and  C_21
REMARK    5  A    between atoms: C_21  and  C_23
REMARK                            x       y       z     vdW  Elec       q    Type
REMARK                         _______ _______ _______ _____ _____    ______ ____
ROOT
ATOM      1  N   UNL     1      35.253 -19.534 -21.286  0.00  0.00    +0.392 N 
ATOM      2  C   UNL     1      34.374 -21.560 -19.357  0.00  0.00    +0.016 C 
ATOM      3  C   UNL     1      33.414 -20.903 -20.355  0.00  0.00    -0.021 C 
ATOM      4  C   UNL     1      35.804 -21.512 -19.906  0.00  0.00    -0.021 C 
ATOM      5  C   UNL     1      33.888 -19.501 -20.742  0.00  0.00    -0.077 C 
ATOM      6  C   UNL     1      36.199 -20.090 -20.309  0.00  0.00    -0.077 C 
ATOM      7  H   UNL     1      35.251 -20.143 -22.104  0.00  0.00    -0.079 HD
ENDROOT
BRANCH   2   8
ATOM      8  C   UNL     1      33.952 -22.994 -19.051  0.00  0.00    +0.094 C 
BRANCH   8  10
ATOM      9  O   UNL     1      35.291 -23.725 -16.445  0.00  0.00    -0.270 OA
ATOM     10  N   UNL     1      33.406 -23.097 -17.731  0.00  0.00    -0.272 N 
ATOM     11  C   UNL     1      31.991 -22.833 -17.455  0.00  0.00    +0.121 C 
ATOM     12  C   UNL     1      34.113 -23.446 -16.574  0.00  0.00    +0.249 C 
ATOM     13  C   UNL     1      31.902 -23.059 -15.984  0.00  0.00    +0.002 C 
ATOM     14  C   UNL     1      33.148 -23.419 -15.471  0.00  0.00    +0.051 C 
ATOM     15  C   UNL     1      30.805 -22.958 -15.149  0.00  0.00    -0.002 C 
ATOM     16  C   UNL     1      33.354 -23.688 -14.131  0.00  0.00    +0.004 C 
ATOM     17  C   UNL     1      30.986 -23.225 -13.788  0.00  0.00    -0.000 C 
ATOM     18  C   UNL     1      32.249 -23.587 -13.284  0.00  0.00    +0.000 C 
ENDBRANCH   8  10
ENDBRANCH   2   8
BRANCH   1  19
ATOM     19  C   UNL     1      35.672 -18.196 -21.700  0.00  0.00    -0.006 C 
BRANCH  19  21
ATOM     20  O   UNL     1      35.388 -18.836 -24.009  0.00  0.00    -0.294 OA
ATOM     21  C   UNL     1      35.263 -17.972 -23.145  0.00  0.00    +0.152 C 
BRANCH  21  23
ATOM     22  F   UNL     1      33.102 -13.022 -24.558  0.00  0.00    -0.204 F 
ATOM     23  C   UNL     1      34.686 -16.647 -23.523  0.00  0.00    +0.033 C 
ATOM     24  C   UNL     1      34.152 -16.498 -24.783  0.00  0.00    +0.005 C 
ATOM     25  C   UNL     1      34.709 -15.630 -22.598  0.00  0.00    +0.005 C 
ATOM     26  C   UNL     1      33.611 -15.261 -25.136  0.00  0.00    +0.030 C 
ATOM     27  C   UNL     1      34.169 -14.394 -22.950  0.00  0.00    +0.030 C 
ATOM     28  C   UNL     1      33.620 -14.209 -24.219  0.00  0.00    +0.140 C 
ENDBRANCH  21  23
ENDBRANCH  19  21
ENDBRANCH   1  19
TORSDOF 5
ENDMDL
MODEL 8
REMARK VINA RESULT:     -11.2      3.624      5.941
REMARK  Name = 9799284
REMARK  5 active torsions:
REMARK  status: ('A' for Active; 'I' for Inactive)
REMARK    1  A    between atoms: N_1  and  C_19
REMARK    2  A    between atoms: C_2  and  C_8
REMARK    3  A    between atoms: C_8  and  N_10
REMARK    4  A    between atoms: C_19  and  C_21
REMARK    5  A    between atoms: C_21  and  C_23
REMARK                            x       y       z     vdW  Elec       q    Type
REMARK                         _______ _______ _______ _____ _____    ______ ____
ROOT
ATOM      1  N   UNL     1      33.622 -21.167 -20.001  0.00  0.00    +0.392 N 
ATOM      2  C   UNL     1      35.081 -19.097 -21.478  0.00  0.00    +0.016 C 
ATOM      3  C   UNL     1      35.781 -20.309 -20.854  0.00  0.00    -0.021 C 
ATOM      4  C   UNL     1      33.616 -19.438 -21.771  0.00  0.00    -0.021 C 
ATOM      5  C   UNL     1      35.008 -20.834 -19.643  0.00  0.00    -0.077 C 
ATOM      6  C   UNL     1      32.915 -19.993 -20.529  0.00  0.00    -0.077 C 
ATOM      7  H   UNL     1      33.648 -21.875 -20.735  0.00  0.00    -0.079 HD
ENDROOT
BRANCH   2   8
ATOM      8  C   UNL     1      35.801 -18.639 -22.744  0.00  0.00    +0.094 C 
BRANCH   8  10
ATOM      9  O   UNL     1      34.542 -18.209 -25.454  0.00  0.00    -0.270 OA
ATOM     10  N   UNL     1      35.177 -17.474 -23.296  0.00  0.00    -0.272 N 
ATOM     11  C   UNL     1      35.059 -16.225 -22.538  0.00  0.00    +0.121 C 
ATOM     12  C   UNL     1      34.617 -17.371 -24.575  0.00  0.00    +0.249 C 
ATOM     13  C   UNL     1      34.357 -15.330 -23.501  0.00  0.00    +0.002 C 
ATOM     14  C   UNL     1      34.099 -16.004 -24.694  0.00  0.00    +0.051 C 
ATOM     15  C   UNL     1      33.969 -14.013 -23.345  0.00  0.00    -0.002 C 
ATOM     16  C   UNL     1      33.456 -15.410 -25.763  0.00  0.00    +0.004 C 
ATOM     17  C   UNL     1      33.316 -13.387 -24.412  0.00  0.00    -0.000 C 
ATOM     18  C   UNL     1      33.062 -14.080 -25.611  0.00  0.00    +0.000 C 
ENDBRANCH   8  10
ENDBRANCH   2   8
BRANCH   1  19
ATOM     19  C   UNL     1      32.913 -21.716 -18.846  0.00  0.00    -0.006 C 
BRANCH  19  21
ATOM     20  O   UNL     1      33.960 -23.863 -19.192  0.00  0.00    -0.294 OA
ATOM     21  C   UNL     1      33.602 -22.993 -18.401  0.00  0.00    +0.152 C 
BRANCH  21  23
ATOM     22  F   UNL     1      34.538 -23.747 -12.948  0.00  0.00    -0.204 F 
ATOM     23  C   UNL     1      33.852 -23.194 -16.942  0.00  0.00    +0.033 C 
ATOM     24  C   UNL     1      32.788 -23.510 -16.129  0.00  0.00    +0.005 C 
ATOM     25  C   UNL     1      35.136 -23.056 -16.469  0.00  0.00    +0.005 C 
ATOM     26  C   UNL     1      33.021 -23.699 -14.767  0.00  0.00    +0.030 C 
ATOM     27  C   UNL     1      35.371 -23.245 -15.108  0.00  0.00    +0.030 C 
ATOM     28  C   UNL     1      34.313 -23.566 -14.256  0.00  0.00    +0.140 C 
ENDBRANCH  21  23
ENDBRANCH  19  21
ENDBRANCH   1  19
TORSDOF 5
ENDMDL
MODEL 9
REMARK VINA RESULT:     -11.1      1.769      2.887
REMARK  Name = 9799284
REMARK  5 active torsions:
REMARK  status: ('A' for Active; 'I' for Inactive)
REMARK    1  A    between atoms: N_1  and  C_19
REMARK    2  A    between atoms: C_2  and  C_8
REMARK    3  A    between atoms: C_8  and  N_10
REMARK    4  A    between atoms: C_19  and  C_21
REMARK    5  A    between atoms: C_21  and  C_23
REMARK                            x       y       z     vdW  Elec       q    Type
REMARK                         _______ _______ _______ _____ _____    ______ ____
ROOT
ATOM      1  N   UNL     1      35.045 -17.433 -24.001  0.00  0.00    +0.392 N 
ATOM      2  C   UNL     1      33.566 -14.928 -24.367  0.00  0.00    +0.016 C 
ATOM      3  C   UNL     1      34.527 -15.152 -23.195  0.00  0.00    -0.021 C 
ATOM      4  C   UNL     1      33.963 -15.828 -25.543  0.00  0.00    -0.021 C 
ATOM      5  C   UNL     1      34.634 -16.635 -22.838  0.00  0.00    -0.077 C 
ATOM      6  C   UNL     1      34.089 -17.289 -25.107  0.00  0.00    -0.077 C 
ATOM      7  H   UNL     1      35.949 -17.082 -24.319  0.00  0.00    -0.079 HD
ENDROOT
BRANCH   2   8
ATOM      8  C   UNL     1      33.539 -13.460 -24.785  0.00  0.00    +0.094 C 
BRANCH   8  10
ATOM      9  O   UNL     1      33.730 -10.473 -24.391  0.00  0.00    -0.270 OA
ATOM     10  N   UNL     1      33.032 -12.636 -23.729  0.00  0.00    -0.272 N 
ATOM     11  C   UNL     1      32.283 -13.194 -22.600  0.00  0.00    +0.121 C 
ATOM     12  C   UNL     1      33.173 -11.246 -23.634  0.00  0.00    +0.249 C 
ATOM     13  C   UNL     1      31.973 -11.984 -21.789  0.00  0.00    +0.002 C 
ATOM     14  C   UNL     1      32.496 -10.842 -22.397  0.00  0.00    +0.051 C 
ATOM     15  C   UNL     1      31.280 -11.884 -20.597  0.00  0.00    -0.002 C 
ATOM     16  C   UNL     1      32.355  -9.578 -21.858  0.00  0.00    +0.004 C 
ATOM     17  C   UNL     1      31.123 -10.616 -20.029  0.00  0.00    -0.000 C 
ATOM     18  C   UNL     1      31.655  -9.473 -20.655  0.00  0.00    +0.000 C 
ENDBRANCH   8  10
ENDBRANCH   2   8
BRANCH   1  19
ATOM     19  C   UNL     1      35.193 -18.840 -23.631  0.00  0.00    -0.006 C 
BRANCH  19  21
ATOM     20  O   UNL     1      36.735 -18.336 -21.845  0.00  0.00    -0.294 OA
ATOM     21  C   UNL     1      35.722 -18.927 -22.211  0.00  0.00    +0.152 C 
BRANCH  21  23
ATOM     22  F   UNL     1      32.933 -22.062 -18.529  0.00  0.00    -0.204 F 
ATOM     23  C   UNL     1      34.976 -19.765 -21.225  0.00  0.00    +0.033 C 
ATOM     24  C   UNL     1      33.608 -19.632 -21.150  0.00  0.00    +0.005 C 
ATOM     25  C   UNL     1      35.685 -20.637 -20.433  0.00  0.00    +0.005 C 
ATOM     26  C   UNL     1      32.911 -20.416 -20.231  0.00  0.00    +0.030 C 
ATOM     27  C   UNL     1      34.989 -21.421 -19.514  0.00  0.00    +0.030 C 
ATOM     28  C   UNL     1      33.602 -21.310 -19.412  0.00  0.00    +0.140 C 
ENDBRANCH  21  23
ENDBRANCH  19  21
ENDBRANCH   1  19
TORSDOF 5
ENDMDL
