MODEL 1
REMARK VINA RESULT:      -7.8      0.000      0.000
REMARK  Name = 46937165
REMARK  8 active torsions:
REMARK  status: ('A' for Active; 'I' for Inactive)
REMARK    1  A    between atoms: C_1  and  N_2
REMARK    2  A    between atoms: C_1  and  C_7
REMARK    3  A    between atoms: C_1  and  C_17
REMARK    4  A    between atoms: C_7  and  C_10
REMARK    5  A    between atoms: C_17  and  C_18
REMARK    6  A    between atoms: C_18  and  C_19
REMARK    7  A    between atoms: C_19  and  N_20
REMARK    8  A    between atoms: N_20  and  C_23
REMARK                            x       y       z     vdW  Elec       q    Type
REMARK                         _______ _______ _______ _____ _____    ______ ____
ROOT
ATOM      1  C   UNL     1      34.213 -24.028 -13.972  0.00  0.00    +0.001 C 
ENDROOT
BRANCH   1   2
ATOM      2  N   UNL     1      33.023 -24.873 -13.892  0.00  0.00    +0.387 N 
ATOM      3  H   UNL     1      32.372 -24.481 -13.211  0.00  0.00    -0.089 HD
ATOM      4  H   UNL     1      33.293 -25.813 -13.602  0.00  0.00    -0.089 HD
ATOM      5  H   UNL     1      32.574 -24.916 -14.806  0.00  0.00    -0.089 HD
ENDBRANCH   1   2
BRANCH   1   7
ATOM      6  O   UNL     1      35.593 -25.475 -15.324  0.00  0.00    -0.290 OA
ATOM      7  C   UNL     1      34.939 -24.436 -15.251  0.00  0.00    +0.188 C 
BRANCH   7  10
ATOM      8  S   UNL     1      33.375 -23.324 -17.261  0.00  0.00    -0.069 S 
ATOM      9  N   UNL     1      35.901 -22.919 -16.935  0.00  0.00    -0.396 NA
ATOM     10  C   UNL     1      34.862 -23.554 -16.448  0.00  0.00    +0.190 C 
ATOM     11  C   UNL     1      34.161 -22.277 -18.382  0.00  0.00    +0.128 C 
ATOM     12  C   UNL     1      35.515 -22.181 -18.046  0.00  0.00    +0.124 C 
ATOM     13  C   UNL     1      33.620 -21.588 -19.480  0.00  0.00    -0.008 C 
ATOM     14  C   UNL     1      36.355 -21.368 -18.838  0.00  0.00    +0.029 C 
ATOM     15  C   UNL     1      34.472 -20.790 -20.247  0.00  0.00    -0.003 C 
ATOM     16  C   UNL     1      35.822 -20.680 -19.932  0.00  0.00    +0.002 C 
ENDBRANCH   7  10
ENDBRANCH   1   7
BRANCH   1  17
ATOM     17  C   UNL     1      35.090 -24.261 -12.731  0.00  0.00    -0.012 C 
BRANCH  17  18
ATOM     18  C   UNL     1      36.361 -23.399 -12.754  0.00  0.00    +0.025 C 
BRANCH  18  19
ATOM     19  C   UNL     1      37.540 -24.088 -12.075  0.00  0.00    +0.129 C 
BRANCH  19  20
ATOM     20  N   UNL     1      38.668 -24.173 -13.004  0.00  0.00    -0.240 NA
BRANCH  20  23
ATOM     21  N   UNL     1      38.653 -24.695 -15.350  0.00  0.00    -0.370 N 
ATOM     22  N   UNL     1      38.244 -26.311 -13.795  0.00  0.00    -0.370 N 
ATOM     23  C   UNL     1      38.535 -24.984 -14.008  0.00  0.00    +0.189 C 
ATOM     24  H   UNL     1      38.861 -23.778 -15.639  0.00  0.00    +0.159 HD
ATOM     25  H   UNL     1      38.529 -25.406 -16.019  0.00  0.00    +0.159 HD
ATOM     26  H   UNL     1      38.133 -26.649 -12.877  0.00  0.00    +0.159 HD
ATOM     27  H   UNL     1      38.145 -26.922 -14.560  0.00  0.00    +0.159 HD
ENDBRANCH  20  23
ENDBRANCH  19  20
ENDBRANCH  18  19
ENDBRANCH  17  18
ENDBRANCH   1  17
TORSDOF 8
ENDMDL
MODEL 2
REMARK VINA RESULT:      -7.8      4.251      6.364
REMARK  Name = 46937165
REMARK  8 active torsions:
REMARK  status: ('A' for Active; 'I' for Inactive)
REMARK    1  A    between atoms: C_1  and  N_2
REMARK    2  A    between atoms: C_1  and  C_7
REMARK    3  A    between atoms: C_1  and  C_17
REMARK    4  A    between atoms: C_7  and  C_10
REMARK    5  A    between atoms: C_17  and  C_18
REMARK    6  A    between atoms: C_18  and  C_19
REMARK    7  A    between atoms: C_19  and  N_20
REMARK    8  A    between atoms: N_20  and  C_23
REMARK                            x       y       z     vdW  Elec       q    Type
REMARK                         _______ _______ _______ _____ _____    ______ ____
ROOT
ATOM      1  C   UNL     1      33.817 -20.860 -19.616  0.00  0.00    +0.001 C 
ENDROOT
BRANCH   1   2
ATOM      2  N   UNL     1      32.766 -20.699 -20.620  0.00  0.00    +0.387 N 
ATOM      3  H   UNL     1      32.975 -21.284 -21.429  0.00  0.00    -0.089 HD
ATOM      4  H   UNL     1      32.721 -19.721 -20.910  0.00  0.00    -0.089 HD
ATOM      5  H   UNL     1      31.870 -20.976 -20.222  0.00  0.00    -0.089 HD
ENDBRANCH   1   2
BRANCH   1   7
ATOM      6  O   UNL     1      36.199 -20.512 -19.788  0.00  0.00    -0.290 OA
ATOM      7  C   UNL     1      35.078 -20.247 -20.219  0.00  0.00    +0.188 C 
BRANCH   7  10
ATOM      8  S   UNL     1      35.094 -17.612 -21.102  0.00  0.00    -0.069 S 
ATOM      9  N   UNL     1      34.740 -19.687 -22.593  0.00  0.00    -0.396 NA
ATOM     10  C   UNL     1      34.955 -19.298 -21.358  0.00  0.00    +0.190 C 
ATOM     11  C   UNL     1      34.847 -17.346 -22.788  0.00  0.00    +0.128 C 
ATOM     12  C   UNL     1      34.676 -18.578 -23.425  0.00  0.00    +0.124 C 
ATOM     13  C   UNL     1      34.809 -16.134 -23.496  0.00  0.00    -0.008 C 
ATOM     14  C   UNL     1      34.457 -18.596 -24.820  0.00  0.00    +0.029 C 
ATOM     15  C   UNL     1      34.591 -16.179 -24.875  0.00  0.00    -0.003 C 
ATOM     16  C   UNL     1      34.417 -17.393 -25.531  0.00  0.00    +0.002 C 
ENDBRANCH   7  10
ENDBRANCH   1   7
BRANCH   1  17
ATOM     17  C   UNL     1      34.010 -22.355 -19.315  0.00  0.00    -0.012 C 
BRANCH  17  18
ATOM     18  C   UNL     1      33.381 -22.758 -17.973  0.00  0.00    +0.025 C 
BRANCH  18  19
ATOM     19  C   UNL     1      34.427 -22.989 -16.888  0.00  0.00    +0.129 C 
BRANCH  19  20
ATOM     20  N   UNL     1      35.765 -22.735 -17.425  0.00  0.00    -0.240 NA
BRANCH  20  23
ATOM     21  N   UNL     1      37.089 -22.646 -15.422  0.00  0.00    -0.370 N 
ATOM     22  N   UNL     1      37.165 -20.951 -16.945  0.00  0.00    -0.370 N 
ATOM     23  C   UNL     1      36.617 -22.171 -16.626  0.00  0.00    +0.189 C 
ATOM     24  H   UNL     1      36.775 -23.512 -15.078  0.00  0.00    +0.159 HD
ATOM     25  H   UNL     1      37.741 -22.118 -14.907  0.00  0.00    +0.159 HD
ATOM     26  H   UNL     1      36.910 -20.501 -17.783  0.00  0.00    +0.159 HD
ATOM     27  H   UNL     1      37.812 -20.528 -16.336  0.00  0.00    +0.159 HD
ENDBRANCH  20  23
ENDBRANCH  19  20
ENDBRANCH  18  19
ENDBRANCH  17  18
ENDBRANCH   1  17
TORSDOF 8
ENDMDL
MODEL 3
REMARK VINA RESULT:      -7.8      8.956     12.147
REMARK  Name = 46937165
REMARK  8 active torsions:
REMARK  status: ('A' for Active; 'I' for Inactive)
REMARK    1  A    between atoms: C_1  and  N_2
REMARK    2  A    between atoms: C_1  and  C_7
REMARK    3  A    between atoms: C_1  and  C_17
REMARK    4  A    between atoms: C_7  and  C_10
REMARK    5  A    between atoms: C_17  and  C_18
REMARK    6  A    between atoms: C_18  and  C_19
REMARK    7  A    between atoms: C_19  and  N_20
REMARK    8  A    between atoms: N_20  and  C_23
REMARK                            x       y       z     vdW  Elec       q    Type
REMARK                         _______ _______ _______ _____ _____    ______ ____
ROOT
ATOM      1  C   UNL     1      33.763 -16.099 -24.790  0.00  0.00    +0.001 C 
ENDROOT
BRANCH   1   2
ATOM      2  N   UNL     1      33.469 -15.204 -25.909  0.00  0.00    +0.387 N 
ATOM      3  H   UNL     1      33.732 -14.251 -25.660  0.00  0.00    -0.089 HD
ATOM      4  H   UNL     1      32.471 -15.239 -26.118  0.00  0.00    -0.089 HD
ATOM      5  H   UNL     1      33.998 -15.500 -26.728  0.00  0.00    -0.089 HD
ENDBRANCH   1   2
BRANCH   1   7
ATOM      6  O   UNL     1      35.271 -15.560 -22.985  0.00  0.00    -0.290 OA
ATOM      7  C   UNL     1      34.312 -15.216 -23.673  0.00  0.00    +0.188 C 
BRANCH   7  10
ATOM      8  S   UNL     1      32.444 -13.763 -22.215  0.00  0.00    -0.069 S 
ATOM      9  N   UNL     1      34.000 -12.800 -24.033  0.00  0.00    -0.396 NA
ATOM     10  C   UNL     1      33.671 -13.901 -23.400  0.00  0.00    +0.190 C 
ATOM     11  C   UNL     1      32.318 -12.078 -22.557  0.00  0.00    +0.128 C 
ATOM     12  C   UNL     1      33.232 -11.745 -23.560  0.00  0.00    +0.124 C 
ATOM     13  C   UNL     1      31.471 -11.118 -21.978  0.00  0.00    -0.008 C 
ATOM     14  C   UNL     1      33.299 -10.404 -24.000  0.00  0.00    +0.029 C 
ATOM     15  C   UNL     1      31.557  -9.800 -22.431  0.00  0.00    -0.003 C 
ATOM     16  C   UNL     1      32.459  -9.445 -23.428  0.00  0.00    +0.002 C 
ENDBRANCH   7  10
ENDBRANCH   1   7
BRANCH   1  17
ATOM     17  C   UNL     1      34.795 -17.149 -25.233  0.00  0.00    -0.012 C 
BRANCH  17  18
ATOM     18  C   UNL     1      34.397 -18.567 -24.797  0.00  0.00    +0.025 C 
BRANCH  18  19
ATOM     19  C   UNL     1      35.219 -19.062 -23.612  0.00  0.00    +0.129 C 
BRANCH  19  20
ATOM     20  N   UNL     1      34.417 -18.999 -22.390  0.00  0.00    -0.240 NA
BRANCH  20  23
ATOM     21  N   UNL     1      35.584 -19.766 -20.434  0.00  0.00    -0.370 N 
ATOM     22  N   UNL     1      35.290 -17.537 -20.817  0.00  0.00    -0.370 N 
ATOM     23  C   UNL     1      35.060 -18.812 -21.279  0.00  0.00    +0.189 C 
ATOM     24  H   UNL     1      35.489 -20.721 -20.651  0.00  0.00    +0.159 HD
ATOM     25  H   UNL     1      36.055 -19.491 -19.615  0.00  0.00    +0.159 HD
ATOM     26  H   UNL     1      34.966 -16.762 -21.329  0.00  0.00    +0.159 HD
ATOM     27  H   UNL     1      35.779 -17.401 -19.973  0.00  0.00    +0.159 HD
ENDBRANCH  20  23
ENDBRANCH  19  20
ENDBRANCH  18  19
ENDBRANCH  17  18
ENDBRANCH   1  17
TORSDOF 8
ENDMDL
MODEL 4
REMARK VINA RESULT:      -7.8      1.775      2.174
REMARK  Name = 46937165
REMARK  8 active torsions:
REMARK  status: ('A' for Active; 'I' for Inactive)
REMARK    1  A    between atoms: C_1  and  N_2
REMARK    2  A    between atoms: C_1  and  C_7
REMARK    3  A    between atoms: C_1  and  C_17
REMARK    4  A    between atoms: C_7  and  C_10
REMARK    5  A    between atoms: C_17  and  C_18
REMARK    6  A    between atoms: C_18  and  C_19
REMARK    7  A    between atoms: C_19  and  N_20
REMARK    8  A    between atoms: N_20  and  C_23
REMARK                            x       y       z     vdW  Elec       q    Type
REMARK                         _______ _______ _______ _____ _____    ______ ____
ROOT
ATOM      1  C   UNL     1      35.567 -24.167 -13.903  0.00  0.00    +0.001 C 
ENDROOT
BRANCH   1   2
ATOM      2  N   UNL     1      35.499 -25.457 -14.590  0.00  0.00    +0.387 N 
ATOM      3  H   UNL     1      36.393 -25.648 -15.044  0.00  0.00    -0.089 HD
ATOM      4  H   UNL     1      34.760 -25.429 -15.293  0.00  0.00    -0.089 HD
ATOM      5  H   UNL     1      35.297 -26.192 -13.914  0.00  0.00    -0.089 HD
ENDBRANCH   1   2
BRANCH   1   7
ATOM      6  O   UNL     1      37.630 -22.992 -14.336  0.00  0.00    -0.290 OA
ATOM      7  C   UNL     1      36.506 -23.294 -14.731  0.00  0.00    +0.188 C 
BRANCH   7  10
ATOM      8  S   UNL     1      37.105 -21.860 -17.035  0.00  0.00    -0.069 S 
ATOM      9  N   UNL     1      34.854 -23.016 -16.536  0.00  0.00    -0.396 NA
ATOM     10  C   UNL     1      36.053 -22.787 -16.055  0.00  0.00    +0.190 C 
ATOM     11  C   UNL     1      35.866 -21.734 -18.228  0.00  0.00    +0.128 C 
ATOM     12  C   UNL     1      34.731 -22.418 -17.783  0.00  0.00    +0.124 C 
ATOM     13  C   UNL     1      35.897 -21.079 -19.470  0.00  0.00    -0.008 C 
ATOM     14  C   UNL     1      33.587 -22.444 -18.610  0.00  0.00    +0.029 C 
ATOM     15  C   UNL     1      34.751 -21.120 -20.269  0.00  0.00    -0.003 C 
ATOM     16  C   UNL     1      33.611 -21.794 -19.847  0.00  0.00    +0.002 C 
ENDBRANCH   7  10
ENDBRANCH   1   7
BRANCH   1  17
ATOM     17  C   UNL     1      36.106 -24.375 -12.479  0.00  0.00    -0.012 C 
BRANCH  17  18
ATOM     18  C   UNL     1      36.750 -25.758 -12.302  0.00  0.00    +0.025 C 
BRANCH  18  19
ATOM     19  C   UNL     1      38.247 -25.742 -12.591  0.00  0.00    +0.129 C 
BRANCH  19  20
ATOM     20  N   UNL     1      38.510 -26.365 -13.889  0.00  0.00    -0.240 NA
BRANCH  20  23
ATOM     21  N   UNL     1      39.661 -24.941 -15.445  0.00  0.00    -0.370 N 
ATOM     22  N   UNL     1      40.779 -26.576 -14.316  0.00  0.00    -0.370 N 
ATOM     23  C   UNL     1      39.566 -25.963 -14.526  0.00  0.00    +0.189 C 
ATOM     24  H   UNL     1      38.862 -24.419 -15.685  0.00  0.00    +0.159 HD
ATOM     25  H   UNL     1      40.529 -24.733 -15.860  0.00  0.00    +0.159 HD
ATOM     26  H   UNL     1      40.848 -27.325 -13.681  0.00  0.00    +0.159 HD
ATOM     27  H   UNL     1      41.577 -26.267 -14.802  0.00  0.00    +0.159 HD
ENDBRANCH  20  23
ENDBRANCH  19  20
ENDBRANCH  18  19
ENDBRANCH  17  18
ENDBRANCH   1  17
TORSDOF 8
ENDMDL
MODEL 5
REMARK VINA RESULT:      -7.7     11.373     14.454
REMARK  Name = 46937165
REMARK  8 active torsions:
REMARK  status: ('A' for Active; 'I' for Inactive)
REMARK    1  A    between atoms: C_1  and  N_2
REMARK    2  A    between atoms: C_1  and  C_7
REMARK    3  A    between atoms: C_1  and  C_17
REMARK    4  A    between atoms: C_7  and  C_10
REMARK    5  A    between atoms: C_17  and  C_18
REMARK    6  A    between atoms: C_18  and  C_19
REMARK    7  A    between atoms: C_19  and  N_20
REMARK    8  A    between atoms: N_20  and  C_23
REMARK                            x       y       z     vdW  Elec       q    Type
REMARK                         _______ _______ _______ _____ _____    ______ ____
ROOT
ATOM      1  C   UNL     1      33.757 -11.227 -23.960  0.00  0.00    +0.001 C 
ENDROOT
BRANCH   1   2
ATOM      2  N   UNL     1      33.837 -11.580 -25.376  0.00  0.00    +0.387 N 
ATOM      3  H   UNL     1      33.912 -12.593 -25.471  0.00  0.00    -0.089 HD
ATOM      4  H   UNL     1      34.658 -11.138 -25.791  0.00  0.00    -0.089 HD
ATOM      5  H   UNL     1      32.998 -11.255 -25.856  0.00  0.00    -0.089 HD
ENDBRANCH   1   2
BRANCH   1   7
ATOM      6  O   UNL     1      32.018 -12.191 -22.591  0.00  0.00    -0.290 OA
ATOM      7  C   UNL     1      33.023 -12.377 -23.276  0.00  0.00    +0.188 C 
BRANCH   7  10
ATOM      8  S   UNL     1      34.331 -14.550 -22.140  0.00  0.00    -0.069 S 
ATOM      9  N   UNL     1      33.404 -14.452 -24.545  0.00  0.00    -0.396 NA
ATOM     10  C   UNL     1      33.534 -13.766 -23.434  0.00  0.00    +0.190 C 
ATOM     11  C   UNL     1      34.539 -15.947 -23.128  0.00  0.00    +0.128 C 
ATOM     12  C   UNL     1      33.976 -15.706 -24.385  0.00  0.00    +0.124 C 
ATOM     13  C   UNL     1      35.154 -17.170 -22.813  0.00  0.00    -0.008 C 
ATOM     14  C   UNL     1      34.034 -16.726 -25.360  0.00  0.00    +0.029 C 
ATOM     15  C   UNL     1      35.198 -18.162 -23.796  0.00  0.00    -0.003 C 
ATOM     16  C   UNL     1      34.646 -17.945 -25.054  0.00  0.00    +0.002 C 
ENDBRANCH   7  10
ENDBRANCH   1   7
BRANCH   1  17
ATOM     17  C   UNL     1      32.991  -9.903 -23.806  0.00  0.00    -0.012 C 
BRANCH  17  18
ATOM     18  C   UNL     1      33.918  -8.744 -23.410  0.00  0.00    +0.025 C 
BRANCH  18  19
ATOM     19  C   UNL     1      33.312  -7.861 -22.325  0.00  0.00    +0.129 C 
BRANCH  19  20
ATOM     20  N   UNL     1      32.349  -8.631 -21.538  0.00  0.00    -0.240 NA
BRANCH  20  23
ATOM     21  N   UNL     1      32.183  -9.542 -19.321  0.00  0.00    -0.370 N 
ATOM     22  N   UNL     1      32.906  -7.405 -19.651  0.00  0.00    -0.370 N 
ATOM     23  C   UNL     1      32.461  -8.562 -20.247  0.00  0.00    +0.189 C 
ATOM     24  H   UNL     1      31.856 -10.422 -19.618  0.00  0.00    +0.159 HD
ATOM     25  H   UNL     1      32.312  -9.363 -18.362  0.00  0.00    +0.159 HD
ATOM     26  H   UNL     1      33.140  -6.625 -20.203  0.00  0.00    +0.159 HD
ATOM     27  H   UNL     1      32.990  -7.358 -18.671  0.00  0.00    +0.159 HD
ENDBRANCH  20  23
ENDBRANCH  19  20
ENDBRANCH  18  19
ENDBRANCH  17  18
ENDBRANCH   1  17
TORSDOF 8
ENDMDL
MODEL 6
REMARK VINA RESULT:      -7.6      6.849     10.466
REMARK  Name = 46937165
REMARK  8 active torsions:
REMARK  status: ('A' for Active; 'I' for Inactive)
REMARK    1  A    between atoms: C_1  and  N_2
REMARK    2  A    between atoms: C_1  and  C_7
REMARK    3  A    between atoms: C_1  and  C_17
REMARK    4  A    between atoms: C_7  and  C_10
REMARK    5  A    between atoms: C_17  and  C_18
REMARK    6  A    between atoms: C_18  and  C_19
REMARK    7  A    between atoms: C_19  and  N_20
REMARK    8  A    between atoms: N_20  and  C_23
REMARK                            x       y       z     vdW  Elec       q    Type
REMARK                         _______ _______ _______ _____ _____    ______ ____
ROOT
ATOM      1  C   UNL     1      35.179 -16.566 -22.446  0.00  0.00    +0.001 C 
ENDROOT
BRANCH   1   2
ATOM      2  N   UNL     1      34.454 -15.904 -23.529  0.00  0.00    +0.387 N 
ATOM      3  H   UNL     1      33.567 -15.546 -23.175  0.00  0.00    -0.089 HD
ATOM      4  H   UNL     1      34.275 -16.574 -24.278  0.00  0.00    -0.089 HD
ATOM      5  H   UNL     1      35.013 -15.132 -23.890  0.00  0.00    -0.089 HD
ENDBRANCH   1   2
BRANCH   1   7
ATOM      6  O   UNL     1      35.372 -18.414 -23.986  0.00  0.00    -0.290 OA
ATOM      7  C   UNL     1      35.246 -18.044 -22.820  0.00  0.00    +0.188 C 
BRANCH   7  10
ATOM      8  S   UNL     1      36.545 -19.553 -20.881  0.00  0.00    -0.069 S 
ATOM      9  N   UNL     1      34.024 -19.657 -21.417  0.00  0.00    -0.396 NA
ATOM     10  C   UNL     1      35.151 -19.074 -21.750  0.00  0.00    +0.190 C 
ATOM     11  C   UNL     1      35.583 -20.649 -19.962  0.00  0.00    +0.128 C 
ATOM     12  C   UNL     1      34.256 -20.564 -20.392  0.00  0.00    +0.124 C 
ATOM     13  C   UNL     1      35.974 -21.521 -18.933  0.00  0.00    -0.008 C 
ATOM     14  C   UNL     1      33.287 -21.383 -19.770  0.00  0.00    +0.029 C 
ATOM     15  C   UNL     1      34.997 -22.320 -18.334  0.00  0.00    -0.003 C 
ATOM     16  C   UNL     1      33.670 -22.253 -18.745  0.00  0.00    +0.002 C 
ENDBRANCH   7  10
ENDBRANCH   1   7
BRANCH   1  17
ATOM     17  C   UNL     1      34.425 -16.356 -21.123  0.00  0.00    -0.012 C 
BRANCH  17  18
ATOM     18  C   UNL     1      34.295 -14.868 -20.764  0.00  0.00    +0.025 C 
BRANCH  18  19
ATOM     19  C   UNL     1      32.840 -14.421 -20.666  0.00  0.00    +0.129 C 
BRANCH  19  20
ATOM     20  N   UNL     1      32.269 -14.291 -22.007  0.00  0.00    -0.240 NA
BRANCH  20  23
ATOM     21  N   UNL     1      33.117 -12.631 -23.523  0.00  0.00    -0.370 N 
ATOM     22  N   UNL     1      31.391 -12.149 -22.115  0.00  0.00    -0.370 N 
ATOM     23  C   UNL     1      32.284 -13.106 -22.535  0.00  0.00    +0.189 C 
ATOM     24  H   UNL     1      33.804 -13.219 -23.913  0.00  0.00    +0.159 HD
ATOM     25  H   UNL     1      33.025 -11.704 -23.841  0.00  0.00    +0.159 HD
ATOM     26  H   UNL     1      30.737 -12.360 -21.409  0.00  0.00    +0.159 HD
ATOM     27  H   UNL     1      31.406 -11.251 -22.519  0.00  0.00    +0.159 HD
ENDBRANCH  20  23
ENDBRANCH  19  20
ENDBRANCH  18  19
ENDBRANCH  17  18
ENDBRANCH   1  17
TORSDOF 8
ENDMDL
MODEL 7
REMARK VINA RESULT:      -7.6      6.038      8.649
REMARK  Name = 46937165
REMARK  8 active torsions:
REMARK  status: ('A' for Active; 'I' for Inactive)
REMARK    1  A    between atoms: C_1  and  N_2
REMARK    2  A    between atoms: C_1  and  C_7
REMARK    3  A    between atoms: C_1  and  C_17
REMARK    4  A    between atoms: C_7  and  C_10
REMARK    5  A    between atoms: C_17  and  C_18
REMARK    6  A    between atoms: C_18  and  C_19
REMARK    7  A    between atoms: C_19  and  N_20
REMARK    8  A    between atoms: N_20  and  C_23
REMARK                            x       y       z     vdW  Elec       q    Type
REMARK                         _______ _______ _______ _____ _____    ______ ____
ROOT
ATOM      1  C   UNL     1      35.251 -18.880 -20.940  0.00  0.00    +0.001 C 
ENDROOT
BRANCH   1   2
ATOM      2  N   UNL     1      33.830 -18.602 -21.144  0.00  0.00    +0.387 N 
ATOM      3  H   UNL     1      33.514 -17.919 -20.455  0.00  0.00    -0.089 HD
ATOM      4  H   UNL     1      33.296 -19.465 -21.035  0.00  0.00    -0.089 HD
ATOM      5  H   UNL     1      33.687 -18.230 -22.082  0.00  0.00    -0.089 HD
ENDBRANCH   1   2
BRANCH   1   7
ATOM      6  O   UNL     1      37.147 -18.522 -22.389  0.00  0.00    -0.290 OA
ATOM      7  C   UNL     1      35.982 -18.240 -22.117  0.00  0.00    +0.188 C 
BRANCH   7  10
ATOM      8  S   UNL     1      34.754 -17.652 -24.540  0.00  0.00    -0.069 S 
ATOM      9  N   UNL     1      35.006 -16.022 -22.557  0.00  0.00    -0.396 NA
ATOM     10  C   UNL     1      35.271 -17.242 -22.962  0.00  0.00    +0.190 C 
ATOM     11  C   UNL     1      34.108 -16.065 -24.730  0.00  0.00    +0.128 C 
ATOM     12  C   UNL     1      34.339 -15.334 -23.561  0.00  0.00    +0.124 C 
ATOM     13  C   UNL     1      33.444 -15.506 -25.835  0.00  0.00    -0.008 C 
ATOM     14  C   UNL     1      33.889 -13.997 -23.497  0.00  0.00    +0.029 C 
ATOM     15  C   UNL     1      33.010 -14.181 -25.745  0.00  0.00    -0.003 C 
ATOM     16  C   UNL     1      33.227 -13.435 -24.593  0.00  0.00    +0.002 C 
ENDBRANCH   7  10
ENDBRANCH   1   7
BRANCH   1  17
ATOM     17  C   UNL     1      35.474 -20.400 -20.902  0.00  0.00    -0.012 C 
BRANCH  17  18
ATOM     18  C   UNL     1      36.484 -20.808 -19.819  0.00  0.00    +0.025 C 
BRANCH  18  19
ATOM     19  C   UNL     1      35.861 -21.697 -18.749  0.00  0.00    +0.129 C 
BRANCH  19  20
ATOM     20  N   UNL     1      34.878 -22.593 -19.358  0.00  0.00    -0.240 NA
BRANCH  20  23
ATOM     21  N   UNL     1      33.268 -23.557 -17.857  0.00  0.00    -0.370 N 
ATOM     22  N   UNL     1      32.742 -21.727 -19.110  0.00  0.00    -0.370 N 
ATOM     23  C   UNL     1      33.711 -22.649 -18.793  0.00  0.00    +0.189 C 
ATOM     24  H   UNL     1      33.868 -24.272 -17.542  0.00  0.00    +0.159 HD
ATOM     25  H   UNL     1      32.352 -23.491 -17.502  0.00  0.00    +0.159 HD
ATOM     26  H   UNL     1      32.931 -21.021 -19.770  0.00  0.00    +0.159 HD
ATOM     27  H   UNL     1      31.858 -21.774 -18.679  0.00  0.00    +0.159 HD
ENDBRANCH  20  23
ENDBRANCH  19  20
ENDBRANCH  18  19
ENDBRANCH  17  18
ENDBRANCH   1  17
TORSDOF 8
ENDMDL
MODEL 8
REMARK VINA RESULT:      -7.6      2.322      3.302
REMARK  Name = 46937165
REMARK  8 active torsions:
REMARK  status: ('A' for Active; 'I' for Inactive)
REMARK    1  A    between atoms: C_1  and  N_2
REMARK    2  A    between atoms: C_1  and  C_7
REMARK    3  A    between atoms: C_1  and  C_17
REMARK    4  A    between atoms: C_7  and  C_10
REMARK    5  A    between atoms: C_17  and  C_18
REMARK    6  A    between atoms: C_18  and  C_19
REMARK    7  A    between atoms: C_19  and  N_20
REMARK    8  A    between atoms: N_20  and  C_23
REMARK                            x       y       z     vdW  Elec       q    Type
REMARK                         _______ _______ _______ _____ _____    ______ ____
ROOT
ATOM      1  C   UNL     1      33.314 -22.915 -16.873  0.00  0.00    +0.001 C 
ENDROOT
BRANCH   1   2
ATOM      2  N   UNL     1      31.898 -23.278 -16.810  0.00  0.00    +0.387 N 
ATOM      3  H   UNL     1      31.518 -23.008 -15.903  0.00  0.00    -0.089 HD
ATOM      4  H   UNL     1      31.799 -24.286 -16.934  0.00  0.00    -0.089 HD
ATOM      5  H   UNL     1      31.390 -22.794 -17.549  0.00  0.00    -0.089 HD
ENDBRANCH   1   2
BRANCH   1   7
ATOM      6  O   UNL     1      33.690 -24.263 -18.840  0.00  0.00    -0.290 OA
ATOM      7  C   UNL     1      33.749 -23.151 -18.316  0.00  0.00    +0.188 C 
BRANCH   7  10
ATOM      8  S   UNL     1      35.939 -21.664 -19.162  0.00  0.00    -0.069 S 
ATOM      9  N   UNL     1      33.485 -21.222 -19.824  0.00  0.00    -0.396 NA
ATOM     10  C   UNL     1      34.264 -22.009 -19.120  0.00  0.00    +0.190 C 
ATOM     11  C   UNL     1      35.628 -20.336 -20.217  0.00  0.00    +0.128 C 
ATOM     12  C   UNL     1      34.254 -20.257 -20.459  0.00  0.00    +0.124 C 
ATOM     13  C   UNL     1      36.535 -19.430 -20.790  0.00  0.00    -0.008 C 
ATOM     14  C   UNL     1      33.772 -19.232 -21.304  0.00  0.00    +0.029 C 
ATOM     15  C   UNL     1      36.033 -18.426 -21.622  0.00  0.00    -0.003 C 
ATOM     16  C   UNL     1      34.670 -18.327 -21.878  0.00  0.00    +0.002 C 
ENDBRANCH   7  10
ENDBRANCH   1   7
BRANCH   1  17
ATOM     17  C   UNL     1      34.110 -23.796 -15.896  0.00  0.00    -0.012 C 
BRANCH  17  18
ATOM     18  C   UNL     1      35.392 -23.103 -15.410  0.00  0.00    +0.025 C 
BRANCH  18  19
ATOM     19  C   UNL     1      36.221 -23.995 -14.493  0.00  0.00    +0.129 C 
BRANCH  19  20
ATOM     20  N   UNL     1      37.075 -24.873 -15.294  0.00  0.00    -0.240 NA
BRANCH  20  23
ATOM     21  N   UNL     1      38.120 -26.775 -14.261  0.00  0.00    -0.370 N 
ATOM     22  N   UNL     1      36.078 -26.965 -15.256  0.00  0.00    -0.370 N 
ATOM     23  C   UNL     1      37.118 -26.122 -14.945  0.00  0.00    +0.189 C 
ATOM     24  H   UNL     1      38.924 -26.283 -13.978  0.00  0.00    +0.159 HD
ATOM     25  H   UNL     1      38.031 -27.733 -14.055  0.00  0.00    +0.159 HD
ATOM     26  H   UNL     1      35.296 -26.623 -15.747  0.00  0.00    +0.159 HD
ATOM     27  H   UNL     1      36.115 -27.912 -14.989  0.00  0.00    +0.159 HD
ENDBRANCH  20  23
ENDBRANCH  19  20
ENDBRANCH  18  19
ENDBRANCH  17  18
ENDBRANCH   1  17
TORSDOF 8
ENDMDL
MODEL 9
REMARK VINA RESULT:      -7.6      7.998     11.700
REMARK  Name = 46937165
REMARK  8 active torsions:
REMARK  status: ('A' for Active; 'I' for Inactive)
REMARK    1  A    between atoms: C_1  and  N_2
REMARK    2  A    between atoms: C_1  and  C_7
REMARK    3  A    between atoms: C_1  and  C_17
REMARK    4  A    between atoms: C_7  and  C_10
REMARK    5  A    between atoms: C_17  and  C_18
REMARK    6  A    between atoms: C_18  and  C_19
REMARK    7  A    between atoms: C_19  and  N_20
REMARK    8  A    between atoms: N_20  and  C_23
REMARK                            x       y       z     vdW  Elec       q    Type
REMARK                         _______ _______ _______ _____ _____    ______ ____
ROOT
ATOM      1  C   UNL     1      34.075 -15.963 -22.209  0.00  0.00    +0.001 C 
ENDROOT
BRANCH   1   2
ATOM      2  N   UNL     1      34.505 -15.793 -20.821  0.00  0.00    +0.387 N 
ATOM      3  H   UNL     1      34.503 -16.698 -20.351  0.00  0.00    -0.089 HD
ATOM      4  H   UNL     1      33.865 -15.159 -20.342  0.00  0.00    -0.089 HD
ATOM      5  H   UNL     1      35.446 -15.402 -20.803  0.00  0.00    -0.089 HD
ENDBRANCH   1   2
BRANCH   1   7
ATOM      6  O   UNL     1      35.191 -17.350 -23.838  0.00  0.00    -0.290 OA
ATOM      7  C   UNL     1      34.732 -17.249 -22.702  0.00  0.00    +0.188 C 
BRANCH   7  10
ATOM      8  S   UNL     1      36.339 -18.986 -21.243  0.00  0.00    -0.069 S 
ATOM      9  N   UNL     1      33.764 -19.073 -21.360  0.00  0.00    -0.396 NA
ATOM     10  C   UNL     1      34.819 -18.422 -21.789  0.00  0.00    +0.190 C 
ATOM     11  C   UNL     1      35.545 -20.223 -20.342  0.00  0.00    +0.128 C 
ATOM     12  C   UNL     1      34.164 -20.110 -20.529  0.00  0.00    +0.124 C 
ATOM     13  C   UNL     1      36.103 -21.222 -19.528  0.00  0.00    -0.008 C 
ATOM     14  C   UNL     1      33.314 -21.031 -19.878  0.00  0.00    +0.029 C 
ATOM     15  C   UNL     1      35.240 -22.120 -18.895  0.00  0.00    -0.003 C 
ATOM     16  C   UNL     1      33.864 -22.027 -19.066  0.00  0.00    +0.002 C 
ENDBRANCH   7  10
ENDBRANCH   1   7
BRANCH   1  17
ATOM     17  C   UNL     1      34.527 -14.750 -23.037  0.00  0.00    -0.012 C 
BRANCH  17  18
ATOM     18  C   UNL     1      33.374 -14.146 -23.852  0.00  0.00    +0.025 C 
BRANCH  18  19
ATOM     19  C   UNL     1      33.149 -12.671 -23.535  0.00  0.00    +0.129 C 
BRANCH  19  20
ATOM     20  N   UNL     1      33.760 -11.842 -24.573  0.00  0.00    -0.240 NA
BRANCH  20  23
ATOM     21  N   UNL     1      35.276  -9.979 -24.471  0.00  0.00    -0.370 N 
ATOM     22  N   UNL     1      33.189  -9.835 -23.564  0.00  0.00    -0.370 N 
ATOM     23  C   UNL     1      34.085 -10.631 -24.237  0.00  0.00    +0.189 C 
ATOM     24  H   UNL     1      36.004 -10.440 -24.946  0.00  0.00    +0.159 HD
ATOM     25  H   UNL     1      35.397  -9.053 -24.162  0.00  0.00    +0.159 HD
ATOM     26  H   UNL     1      32.297 -10.182 -23.334  0.00  0.00    +0.159 HD
ATOM     27  H   UNL     1      33.440  -8.917 -23.311  0.00  0.00    +0.159 HD
ENDBRANCH  20  23
ENDBRANCH  19  20
ENDBRANCH  18  19
ENDBRANCH  17  18
ENDBRANCH   1  17
TORSDOF 8
ENDMDL
