MODEL 1
REMARK VINA RESULT:     -10.0      0.000      0.000
REMARK  Name = 446165
REMARK  11 active torsions:
REMARK  status: ('A' for Active; 'I' for Inactive)
REMARK    1  A    between atoms: S_1  and  C_4
REMARK    2  A    between atoms: S_1  and  N_18
REMARK    3  A    between atoms: C_5  and  C_10
REMARK    4  A    between atoms: C_15  and  O_16
REMARK    5  A    between atoms: N_18  and  C_20
REMARK    6  A    between atoms: C_20  and  C_22
REMARK    7  A    between atoms: C_20  and  C_25
REMARK    8  A    between atoms: C_22  and  O_23
REMARK    9  A    between atoms: C_25  and  C_26
REMARK   10  A    between atoms: C_27  and  C_28
REMARK   11  A    between atoms: C_28  and  O_29
REMARK                            x       y       z     vdW  Elec       q    Type
REMARK                         _______ _______ _______ _____ _____    ______ ____
ROOT
ATOM      1  S   UNL     1      33.685 -23.083 -17.860  0.00  0.00    +0.061 S 
ATOM      2  O   UNL     1      32.495 -22.780 -17.089  0.00  0.00    -0.153 OA
ATOM      3  O   UNL     1      33.797 -24.346 -18.563  0.00  0.00    -0.153 OA
ENDROOT
BRANCH   1   4
ATOM      4  C   UNL     1      33.898 -21.804 -19.061  0.00  0.00    +0.122 C 
ATOM      5  C   UNL     1      34.231 -19.800 -20.942  0.00  0.00    +0.000 C 
ATOM      6  C   UNL     1      32.783 -21.148 -19.554  0.00  0.00    +0.020 C 
ATOM      7  C   UNL     1      35.175 -21.481 -19.486  0.00  0.00    +0.020 C 
ATOM      8  C   UNL     1      32.951 -20.139 -20.503  0.00  0.00    +0.001 C 
ATOM      9  C   UNL     1      35.343 -20.471 -20.434  0.00  0.00    +0.001 C 
BRANCH   5  10
ATOM     10  C   UNL     1      34.404 -18.753 -21.926  0.00  0.00    +0.000 C 
ATOM     11  C   UNL     1      34.637 -19.083 -23.261  0.00  0.00    +0.003 C 
ATOM     12  C   UNL     1      34.339 -17.415 -21.538  0.00  0.00    +0.003 C 
ATOM     13  C   UNL     1      34.804 -18.073 -24.209  0.00  0.00    +0.037 C 
ATOM     14  C   UNL     1      34.505 -16.406 -22.487  0.00  0.00    +0.037 C 
ATOM     15  C   UNL     1      34.738 -16.735 -23.822  0.00  0.00    +0.139 C 
BRANCH  15  16
ATOM     16  O   UNL     1      34.900 -15.750 -24.748  0.00  0.00    -0.471 OA
ATOM     17  C   UNL     1      33.806 -15.503 -25.631  0.00  0.00    +0.252 C 
ENDBRANCH  15  16
ENDBRANCH   5  10
ENDBRANCH   1   4
BRANCH   1  18
ATOM     18  N   UNL     1      35.059 -22.878 -16.883  0.00  0.00    -0.169 NA
ATOM     19  H   UNL     1      35.044 -21.912 -16.553  0.00  0.00    +0.149 HD
BRANCH  18  20
ATOM     20  C   UNL     1      35.250 -23.736 -15.689  0.00  0.00    +0.186 C 
BRANCH  20  22
ATOM     21  O   UNL     1      37.488 -22.901 -15.208  0.00  0.00    -0.249 OA
ATOM     22  C   UNL     1      36.743 -23.837 -15.467  0.00  0.00    +0.331 C 
BRANCH  22  23
ATOM     23  O   UNL     1      37.186 -25.117 -15.583  0.00  0.00    -0.479 OA
ATOM     24  H   UNL     1      38.047 -25.343 -15.291  0.00  0.00    +0.295 HD
ENDBRANCH  22  23
ENDBRANCH  20  22
BRANCH  20  25
ATOM     25  C   UNL     1      34.556 -23.113 -14.478  0.00  0.00    +0.105 C 
BRANCH  25  26
ATOM     26  C   UNL     1      33.299 -23.804 -14.153  0.00  0.00    -0.087 C 
ATOM     27  C   UNL     1      32.273 -24.369 -13.890  0.00  0.00    -0.058 C 
BRANCH  27  28
ATOM     28  C   UNL     1      31.023 -25.056 -13.566  0.00  0.00    +0.218 C 
BRANCH  28  29
ATOM     29  O   UNL     1      30.519 -25.703 -14.726  0.00  0.00    -0.337 OA
ATOM     30  C   UNL     1      29.909 -24.778 -15.615  0.00  0.00    +0.176 C 
ENDBRANCH  28  29
ENDBRANCH  27  28
ENDBRANCH  25  26
ENDBRANCH  20  25
ENDBRANCH  18  20
ENDBRANCH   1  18
TORSDOF 11
ENDMDL
MODEL 2
REMARK VINA RESULT:      -9.9      1.494      2.566
REMARK  Name = 446165
REMARK  11 active torsions:
REMARK  status: ('A' for Active; 'I' for Inactive)
REMARK    1  A    between atoms: S_1  and  C_4
REMARK    2  A    between atoms: S_1  and  N_18
REMARK    3  A    between atoms: C_5  and  C_10
REMARK    4  A    between atoms: C_15  and  O_16
REMARK    5  A    between atoms: N_18  and  C_20
REMARK    6  A    between atoms: C_20  and  C_22
REMARK    7  A    between atoms: C_20  and  C_25
REMARK    8  A    between atoms: C_22  and  O_23
REMARK    9  A    between atoms: C_25  and  C_26
REMARK   10  A    between atoms: C_27  and  C_28
REMARK   11  A    between atoms: C_28  and  O_29
REMARK                            x       y       z     vdW  Elec       q    Type
REMARK                         _______ _______ _______ _____ _____    ______ ____
ROOT
ATOM      1  S   UNL     1      33.564 -23.058 -17.982  0.00  0.00    +0.061 S 
ATOM      2  O   UNL     1      32.362 -22.761 -17.227  0.00  0.00    -0.153 OA
ATOM      3  O   UNL     1      33.683 -24.313 -18.698  0.00  0.00    -0.153 OA
ENDROOT
BRANCH   1   4
ATOM      4  C   UNL     1      33.799 -21.765 -19.164  0.00  0.00    +0.122 C 
ATOM      5  C   UNL     1      34.168 -19.741 -21.016  0.00  0.00    +0.000 C 
ATOM      6  C   UNL     1      32.698 -21.068 -19.630  0.00  0.00    +0.020 C 
ATOM      7  C   UNL     1      35.080 -21.474 -19.602  0.00  0.00    +0.020 C 
ATOM      8  C   UNL     1      32.884 -20.048 -20.564  0.00  0.00    +0.001 C 
ATOM      9  C   UNL     1      35.266 -20.454 -20.535  0.00  0.00    +0.001 C 
BRANCH   5  10
ATOM     10  C   UNL     1      34.360 -18.683 -21.984  0.00  0.00    +0.000 C 
ATOM     11  C   UNL     1      34.621 -18.998 -23.317  0.00  0.00    +0.003 C 
ATOM     12  C   UNL     1      34.283 -17.349 -21.584  0.00  0.00    +0.003 C 
ATOM     13  C   UNL     1      34.807 -17.978 -24.251  0.00  0.00    +0.037 C 
ATOM     14  C   UNL     1      34.468 -16.329 -22.517  0.00  0.00    +0.037 C 
ATOM     15  C   UNL     1      34.730 -16.644 -23.851  0.00  0.00    +0.139 C 
BRANCH  15  16
ATOM     16  O   UNL     1      34.909 -15.649 -24.762  0.00  0.00    -0.471 OA
ATOM     17  C   UNL     1      33.800 -15.330 -25.602  0.00  0.00    +0.252 C 
ENDBRANCH  15  16
ENDBRANCH   5  10
ENDBRANCH   1   4
BRANCH   1  18
ATOM     18  N   UNL     1      34.922 -22.868 -16.980  0.00  0.00    -0.169 NA
ATOM     19  H   UNL     1      34.879 -21.921 -16.601  0.00  0.00    +0.149 HD
BRANCH  18  20
ATOM     20  C   UNL     1      35.124 -23.782 -15.830  0.00  0.00    +0.186 C 
BRANCH  20  22
ATOM     21  O   UNL     1      37.209 -22.690 -15.198  0.00  0.00    -0.249 OA
ATOM     22  C   UNL     1      36.594 -23.711 -15.478  0.00  0.00    +0.331 C 
BRANCH  22  23
ATOM     23  O   UNL     1      37.179 -24.938 -15.500  0.00  0.00    -0.479 OA
ATOM     24  H   UNL     1      38.025 -25.060 -15.116  0.00  0.00    +0.295 HD
ENDBRANCH  22  23
ENDBRANCH  20  22
BRANCH  20  25
ATOM     25  C   UNL     1      34.256 -23.343 -14.651  0.00  0.00    +0.105 C 
BRANCH  25  26
ATOM     26  C   UNL     1      34.806 -23.802 -13.367  0.00  0.00    -0.087 C 
ATOM     27  C   UNL     1      35.254 -24.178 -12.318  0.00  0.00    -0.058 C 
BRANCH  27  28
ATOM     28  C   UNL     1      35.802 -24.636 -11.042  0.00  0.00    +0.218 C 
BRANCH  28  29
ATOM     29  O   UNL     1      37.081 -24.051 -10.833  0.00  0.00    -0.337 OA
ATOM     30  C   UNL     1      37.970 -24.349 -11.901  0.00  0.00    +0.176 C 
ENDBRANCH  28  29
ENDBRANCH  27  28
ENDBRANCH  25  26
ENDBRANCH  20  25
ENDBRANCH  18  20
ENDBRANCH   1  18
TORSDOF 11
ENDMDL
MODEL 3
REMARK VINA RESULT:      -9.7      1.997      3.418
REMARK  Name = 446165
REMARK  11 active torsions:
REMARK  status: ('A' for Active; 'I' for Inactive)
REMARK    1  A    between atoms: S_1  and  C_4
REMARK    2  A    between atoms: S_1  and  N_18
REMARK    3  A    between atoms: C_5  and  C_10
REMARK    4  A    between atoms: C_15  and  O_16
REMARK    5  A    between atoms: N_18  and  C_20
REMARK    6  A    between atoms: C_20  and  C_22
REMARK    7  A    between atoms: C_20  and  C_25
REMARK    8  A    between atoms: C_22  and  O_23
REMARK    9  A    between atoms: C_25  and  C_26
REMARK   10  A    between atoms: C_27  and  C_28
REMARK   11  A    between atoms: C_28  and  O_29
REMARK                            x       y       z     vdW  Elec       q    Type
REMARK                         _______ _______ _______ _____ _____    ______ ____
ROOT
ATOM      1  S   UNL     1      33.833 -23.022 -18.440  0.00  0.00    +0.061 S 
ATOM      2  O   UNL     1      32.733 -22.818 -17.517  0.00  0.00    -0.153 OA
ATOM      3  O   UNL     1      33.811 -24.139 -19.365  0.00  0.00    -0.153 OA
ENDROOT
BRANCH   1   4
ATOM      4  C   UNL     1      34.012 -21.554 -19.408  0.00  0.00    +0.122 C 
ATOM      5  C   UNL     1      34.293 -19.255 -20.925  0.00  0.00    +0.000 C 
ATOM      6  C   UNL     1      35.281 -21.129 -19.761  0.00  0.00    +0.020 C 
ATOM      7  C   UNL     1      32.881 -20.858 -19.796  0.00  0.00    +0.020 C 
ATOM      8  C   UNL     1      35.422 -19.970 -20.525  0.00  0.00    +0.001 C 
ATOM      9  C   UNL     1      33.022 -19.699 -20.561  0.00  0.00    +0.001 C 
BRANCH   5  10
ATOM     10  C   UNL     1      34.440 -18.053 -21.718  0.00  0.00    +0.000 C 
ATOM     11  C   UNL     1      34.707 -18.148 -23.083  0.00  0.00    +0.003 C 
ATOM     12  C   UNL     1      34.313 -16.802 -21.116  0.00  0.00    +0.003 C 
ATOM     13  C   UNL     1      34.849 -16.990 -23.848  0.00  0.00    +0.037 C 
ATOM     14  C   UNL     1      34.453 -15.644 -21.881  0.00  0.00    +0.037 C 
ATOM     15  C   UNL     1      34.722 -15.737 -23.246  0.00  0.00    +0.139 C 
BRANCH  15  16
ATOM     16  O   UNL     1      34.858 -14.607 -23.993  0.00  0.00    -0.471 OA
ATOM     17  C   UNL     1      33.904 -13.568 -23.778  0.00  0.00    +0.252 C 
ENDBRANCH  15  16
ENDBRANCH   5  10
ENDBRANCH   1   4
BRANCH   1  18
ATOM     18  N   UNL     1      35.295 -23.054 -17.577  0.00  0.00    -0.169 NA
ATOM     19  H   UNL     1      35.968 -22.509 -18.118  0.00  0.00    +0.149 HD
BRANCH  18  20
ATOM     20  C   UNL     1      35.344 -22.539 -16.188  0.00  0.00    +0.186 C 
BRANCH  20  22
ATOM     21  O   UNL     1      34.854 -24.853 -15.602  0.00  0.00    -0.249 OA
ATOM     22  C   UNL     1      34.877 -23.668 -15.295  0.00  0.00    +0.331 C 
BRANCH  22  23
ATOM     23  O   UNL     1      34.478 -23.217 -14.076  0.00  0.00    -0.479 OA
ATOM     24  H   UNL     1      34.970 -22.550 -13.640  0.00  0.00    +0.295 HD
ENDBRANCH  22  23
ENDBRANCH  20  22
BRANCH  20  25
ATOM     25  C   UNL     1      36.768 -22.114 -15.834  0.00  0.00    +0.105 C 
BRANCH  25  26
ATOM     26  C   UNL     1      37.596 -23.260 -15.431  0.00  0.00    -0.087 C 
ATOM     27  C   UNL     1      38.274 -24.196 -15.104  0.00  0.00    -0.058 C 
BRANCH  27  28
ATOM     28  C   UNL     1      39.098 -25.335 -14.701  0.00  0.00    +0.218 C 
BRANCH  28  29
ATOM     29  O   UNL     1      38.402 -26.546 -14.967  0.00  0.00    -0.337 OA
ATOM     30  C   UNL     1      37.333 -26.745 -14.052  0.00  0.00    +0.176 C 
ENDBRANCH  28  29
ENDBRANCH  27  28
ENDBRANCH  25  26
ENDBRANCH  20  25
ENDBRANCH  18  20
ENDBRANCH   1  18
TORSDOF 11
ENDMDL
MODEL 4
REMARK VINA RESULT:      -9.7      2.084      3.469
REMARK  Name = 446165
REMARK  11 active torsions:
REMARK  status: ('A' for Active; 'I' for Inactive)
REMARK    1  A    between atoms: S_1  and  C_4
REMARK    2  A    between atoms: S_1  and  N_18
REMARK    3  A    between atoms: C_5  and  C_10
REMARK    4  A    between atoms: C_15  and  O_16
REMARK    5  A    between atoms: N_18  and  C_20
REMARK    6  A    between atoms: C_20  and  C_22
REMARK    7  A    between atoms: C_20  and  C_25
REMARK    8  A    between atoms: C_22  and  O_23
REMARK    9  A    between atoms: C_25  and  C_26
REMARK   10  A    between atoms: C_27  and  C_28
REMARK   11  A    between atoms: C_28  and  O_29
REMARK                            x       y       z     vdW  Elec       q    Type
REMARK                         _______ _______ _______ _____ _____    ______ ____
ROOT
ATOM      1  S   UNL     1      35.654 -23.790 -15.400  0.00  0.00    +0.061 S 
ATOM      2  O   UNL     1      35.390 -25.154 -15.815  0.00  0.00    -0.153 OA
ATOM      3  O   UNL     1      36.870 -23.470 -14.678  0.00  0.00    -0.153 OA
ENDROOT
BRANCH   1   4
ATOM      4  C   UNL     1      35.624 -22.765 -16.840  0.00  0.00    +0.122 C 
ATOM      5  C   UNL     1      35.578 -21.161 -19.096  0.00  0.00    +0.000 C 
ATOM      6  C   UNL     1      34.486 -22.740 -17.627  0.00  0.00    +0.020 C 
ATOM      7  C   UNL     1      36.739 -22.008 -17.154  0.00  0.00    +0.020 C 
ATOM      8  C   UNL     1      34.463 -21.931 -18.764  0.00  0.00    +0.001 C 
ATOM      9  C   UNL     1      36.717 -21.199 -18.291  0.00  0.00    +0.001 C 
BRANCH   5  10
ATOM     10  C   UNL     1      35.554 -20.323 -20.275  0.00  0.00    +0.000 C 
ATOM     11  C   UNL     1      34.372 -20.176 -21.001  0.00  0.00    +0.003 C 
ATOM     12  C   UNL     1      36.712 -19.662 -20.684  0.00  0.00    +0.003 C 
ATOM     13  C   UNL     1      34.349 -19.367 -22.138  0.00  0.00    +0.037 C 
ATOM     14  C   UNL     1      36.688 -18.853 -21.820  0.00  0.00    +0.037 C 
ATOM     15  C   UNL     1      35.506 -18.706 -22.547  0.00  0.00    +0.139 C 
BRANCH  15  16
ATOM     16  O   UNL     1      35.483 -17.916 -23.656  0.00  0.00    -0.471 OA
ATOM     17  C   UNL     1      34.769 -16.684 -23.559  0.00  0.00    +0.252 C 
ENDBRANCH  15  16
ENDBRANCH   5  10
ENDBRANCH   1   4
BRANCH   1  18
ATOM     18  N   UNL     1      34.325 -23.200 -14.523  0.00  0.00    -0.169 NA
ATOM     19  H   UNL     1      34.222 -22.215 -14.771  0.00  0.00    +0.149 HD
BRANCH  18  20
ATOM     20  C   UNL     1      32.993 -23.827 -14.691  0.00  0.00    +0.186 C 
BRANCH  20  22
ATOM     21  O   UNL     1      31.699 -25.222 -13.169  0.00  0.00    -0.249 OA
ATOM     22  C   UNL     1      32.744 -24.649 -13.445  0.00  0.00    +0.331 C 
BRANCH  22  23
ATOM     23  O   UNL     1      33.840 -24.691 -12.640  0.00  0.00    -0.479 OA
ATOM     24  H   UNL     1      33.762 -25.002 -11.760  0.00  0.00    +0.295 HD
ENDBRANCH  22  23
ENDBRANCH  20  22
BRANCH  20  25
ATOM     25  C   UNL     1      31.922 -22.749 -14.859  0.00  0.00    +0.105 C 
BRANCH  25  26
ATOM     26  C   UNL     1      30.716 -23.276 -15.515  0.00  0.00    -0.087 C 
ATOM     27  C   UNL     1      29.731 -23.707 -16.050  0.00  0.00    -0.058 C 
BRANCH  27  28
ATOM     28  C   UNL     1      28.531 -24.229 -16.702  0.00  0.00    +0.218 C 
BRANCH  28  29
ATOM     29  O   UNL     1      28.105 -23.326 -17.714  0.00  0.00    -0.337 OA
ATOM     30  C   UNL     1      27.338 -22.259 -17.172  0.00  0.00    +0.176 C 
ENDBRANCH  28  29
ENDBRANCH  27  28
ENDBRANCH  25  26
ENDBRANCH  20  25
ENDBRANCH  18  20
ENDBRANCH   1  18
TORSDOF 11
ENDMDL
MODEL 5
REMARK VINA RESULT:      -9.4      3.950      6.710
REMARK  Name = 446165
REMARK  11 active torsions:
REMARK  status: ('A' for Active; 'I' for Inactive)
REMARK    1  A    between atoms: S_1  and  C_4
REMARK    2  A    between atoms: S_1  and  N_18
REMARK    3  A    between atoms: C_5  and  C_10
REMARK    4  A    between atoms: C_15  and  O_16
REMARK    5  A    between atoms: N_18  and  C_20
REMARK    6  A    between atoms: C_20  and  C_22
REMARK    7  A    between atoms: C_20  and  C_25
REMARK    8  A    between atoms: C_22  and  O_23
REMARK    9  A    between atoms: C_25  and  C_26
REMARK   10  A    between atoms: C_27  and  C_28
REMARK   11  A    between atoms: C_28  and  O_29
REMARK                            x       y       z     vdW  Elec       q    Type
REMARK                         _______ _______ _______ _____ _____    ______ ____
ROOT
ATOM      1  S   UNL     1      35.475 -18.610 -22.407  0.00  0.00    +0.061 S 
ATOM      2  O   UNL     1      35.673 -19.042 -23.777  0.00  0.00    -0.153 OA
ATOM      3  O   UNL     1      36.598 -18.552 -21.491  0.00  0.00    -0.153 OA
ENDROOT
BRANCH   1   4
ATOM      4  C   UNL     1      34.754 -16.996 -22.441  0.00  0.00    +0.122 C 
ATOM      5  C   UNL     1      33.625 -14.470 -22.496  0.00  0.00    +0.000 C 
ATOM      6  C   UNL     1      34.527 -16.332 -21.248  0.00  0.00    +0.020 C 
ATOM      7  C   UNL     1      34.430 -16.427 -23.660  0.00  0.00    +0.020 C 
ATOM      8  C   UNL     1      33.958 -15.059 -21.276  0.00  0.00    +0.001 C 
ATOM      9  C   UNL     1      33.861 -15.153 -23.689  0.00  0.00    +0.001 C 
BRANCH   5  10
ATOM     10  C   UNL     1      33.035 -13.148 -22.525  0.00  0.00    +0.000 C 
ATOM     11  C   UNL     1      32.004 -12.827 -21.642  0.00  0.00    +0.003 C 
ATOM     12  C   UNL     1      33.498 -12.197 -23.433  0.00  0.00    +0.003 C 
ATOM     13  C   UNL     1      31.434 -11.554 -21.669  0.00  0.00    +0.037 C 
ATOM     14  C   UNL     1      32.930 -10.924 -23.459  0.00  0.00    +0.037 C 
ATOM     15  C   UNL     1      31.897 -10.602 -22.578  0.00  0.00    +0.139 C 
BRANCH  15  16
ATOM     16  O   UNL     1      31.343  -9.359 -22.603  0.00  0.00    -0.471 OA
ATOM     17  C   UNL     1      31.945  -8.363 -21.777  0.00  0.00    +0.252 C 
ENDBRANCH  15  16
ENDBRANCH   5  10
ENDBRANCH   1   4
BRANCH   1  18
ATOM     18  N   UNL     1      34.238 -19.532 -21.697  0.00  0.00    -0.169 NA
ATOM     19  H   UNL     1      34.025 -20.289 -22.347  0.00  0.00    +0.149 HD
BRANCH  18  20
ATOM     20  C   UNL     1      34.450 -20.153 -20.368  0.00  0.00    +0.186 C 
BRANCH  20  22
ATOM     21  O   UNL     1      33.007 -22.034 -19.806  0.00  0.00    -0.249 OA
ATOM     22  C   UNL     1      33.150 -20.834 -20.000  0.00  0.00    +0.331 C 
BRANCH  22  23
ATOM     23  O   UNL     1      32.126 -19.946 -19.896  0.00  0.00    -0.479 OA
ATOM     24  H   UNL     1      31.259 -20.201 -20.143  0.00  0.00    +0.295 HD
ENDBRANCH  22  23
ENDBRANCH  20  22
BRANCH  20  25
ATOM     25  C   UNL     1      35.597 -21.161 -20.436  0.00  0.00    +0.105 C 
BRANCH  25  26
ATOM     26  C   UNL     1      36.158 -21.441 -19.106  0.00  0.00    -0.087 C 
ATOM     27  C   UNL     1      36.615 -21.670 -18.019  0.00  0.00    -0.058 C 
BRANCH  27  28
ATOM     28  C   UNL     1      37.174 -21.949 -16.697  0.00  0.00    +0.218 C 
BRANCH  28  29
ATOM     29  O   UNL     1      36.683 -23.196 -16.224  0.00  0.00    -0.337 OA
ATOM     30  C   UNL     1      37.302 -23.570 -15.000  0.00  0.00    +0.176 C 
ENDBRANCH  28  29
ENDBRANCH  27  28
ENDBRANCH  25  26
ENDBRANCH  20  25
ENDBRANCH  18  20
ENDBRANCH   1  18
TORSDOF 11
ENDMDL
MODEL 6
REMARK VINA RESULT:      -9.4      2.213      3.494
REMARK  Name = 446165
REMARK  11 active torsions:
REMARK  status: ('A' for Active; 'I' for Inactive)
REMARK    1  A    between atoms: S_1  and  C_4
REMARK    2  A    between atoms: S_1  and  N_18
REMARK    3  A    between atoms: C_5  and  C_10
REMARK    4  A    between atoms: C_15  and  O_16
REMARK    5  A    between atoms: N_18  and  C_20
REMARK    6  A    between atoms: C_20  and  C_22
REMARK    7  A    between atoms: C_20  and  C_25
REMARK    8  A    between atoms: C_22  and  O_23
REMARK    9  A    between atoms: C_25  and  C_26
REMARK   10  A    between atoms: C_27  and  C_28
REMARK   11  A    between atoms: C_28  and  O_29
REMARK                            x       y       z     vdW  Elec       q    Type
REMARK                         _______ _______ _______ _____ _____    ______ ____
ROOT
ATOM      1  S   UNL     1      36.569 -23.833 -15.077  0.00  0.00    +0.061 S 
ATOM      2  O   UNL     1      36.343 -25.227 -15.406  0.00  0.00    -0.153 OA
ATOM      3  O   UNL     1      37.866 -23.399 -14.594  0.00  0.00    -0.153 OA
ENDROOT
BRANCH   1   4
ATOM      4  C   UNL     1      36.205 -22.867 -16.513  0.00  0.00    +0.122 C 
ATOM      5  C   UNL     1      35.635 -21.356 -18.761  0.00  0.00    +0.000 C 
ATOM      6  C   UNL     1      37.161 -21.990 -16.997  0.00  0.00    +0.020 C 
ATOM      7  C   UNL     1      34.973 -23.006 -17.126  0.00  0.00    +0.020 C 
ATOM      8  C   UNL     1      36.873 -21.228 -18.130  0.00  0.00    +0.001 C 
ATOM      9  C   UNL     1      34.685 -22.245 -18.260  0.00  0.00    +0.001 C 
BRANCH   5  10
ATOM     10  C   UNL     1      35.338 -20.565 -19.936  0.00  0.00    +0.000 C 
ATOM     11  C   UNL     1      34.029 -20.491 -20.412  0.00  0.00    +0.003 C 
ATOM     12  C   UNL     1      36.359 -19.878 -20.591  0.00  0.00    +0.003 C 
ATOM     13  C   UNL     1      33.742 -19.729 -21.545  0.00  0.00    +0.037 C 
ATOM     14  C   UNL     1      36.071 -19.115 -21.723  0.00  0.00    +0.037 C 
ATOM     15  C   UNL     1      34.763 -19.041 -22.200  0.00  0.00    +0.139 C 
BRANCH  15  16
ATOM     16  O   UNL     1      34.482 -18.296 -23.304  0.00  0.00    -0.471 OA
ATOM     17  C   UNL     1      35.002 -16.968 -23.341  0.00  0.00    +0.252 C 
ENDBRANCH  15  16
ENDBRANCH   5  10
ENDBRANCH   1   4
BRANCH   1  18
ATOM     18  N   UNL     1      35.376 -23.307 -13.990  0.00  0.00    -0.169 NA
ATOM     19  H   UNL     1      34.613 -22.925 -14.551  0.00  0.00    +0.149 HD
BRANCH  18  20
ATOM     20  C   UNL     1      34.769 -24.269 -13.039  0.00  0.00    +0.186 C 
BRANCH  20  22
ATOM     21  O   UNL     1      36.433 -23.335 -11.523  0.00  0.00    -0.249 OA
ATOM     22  C   UNL     1      35.568 -24.170 -11.758  0.00  0.00    +0.331 C 
BRANCH  22  23
ATOM     23  O   UNL     1      35.212 -25.129 -10.864  0.00  0.00    -0.479 OA
ATOM     24  H   UNL     1      34.594 -24.932 -10.188  0.00  0.00    +0.295 HD
ENDBRANCH  22  23
ENDBRANCH  20  22
BRANCH  20  25
ATOM     25  C   UNL     1      33.302 -23.917 -12.799  0.00  0.00    +0.105 C 
BRANCH  25  26
ATOM     26  C   UNL     1      32.596 -23.631 -14.057  0.00  0.00    -0.087 C 
ATOM     27  C   UNL     1      32.021 -23.399 -15.085  0.00  0.00    -0.058 C 
BRANCH  27  28
ATOM     28  C   UNL     1      31.317 -23.116 -16.336  0.00  0.00    +0.218 C 
BRANCH  28  29
ATOM     29  O   UNL     1      29.999 -23.644 -16.273  0.00  0.00    -0.337 OA
ATOM     30  C   UNL     1      29.022 -22.612 -16.307  0.00  0.00    +0.176 C 
ENDBRANCH  28  29
ENDBRANCH  27  28
ENDBRANCH  25  26
ENDBRANCH  20  25
ENDBRANCH  18  20
ENDBRANCH   1  18
TORSDOF 11
ENDMDL
MODEL 7
REMARK VINA RESULT:      -9.3      4.255     11.734
REMARK  Name = 446165
REMARK  11 active torsions:
REMARK  status: ('A' for Active; 'I' for Inactive)
REMARK    1  A    between atoms: S_1  and  C_4
REMARK    2  A    between atoms: S_1  and  N_18
REMARK    3  A    between atoms: C_5  and  C_10
REMARK    4  A    between atoms: C_15  and  O_16
REMARK    5  A    between atoms: N_18  and  C_20
REMARK    6  A    between atoms: C_20  and  C_22
REMARK    7  A    between atoms: C_20  and  C_25
REMARK    8  A    between atoms: C_22  and  O_23
REMARK    9  A    between atoms: C_25  and  C_26
REMARK   10  A    between atoms: C_27  and  C_28
REMARK   11  A    between atoms: C_28  and  O_29
REMARK                            x       y       z     vdW  Elec       q    Type
REMARK                         _______ _______ _______ _____ _____    ______ ____
ROOT
ATOM      1  S   UNL     1      34.177 -16.450 -25.308  0.00  0.00    +0.061 S 
ATOM      2  O   UNL     1      35.477 -16.166 -25.885  0.00  0.00    -0.153 OA
ATOM      3  O   UNL     1      33.122 -17.012 -26.130  0.00  0.00    -0.153 OA
ENDROOT
BRANCH   1   4
ATOM      4  C   UNL     1      34.413 -17.554 -23.947  0.00  0.00    +0.122 C 
ATOM      5  C   UNL     1      34.783 -19.281 -21.817  0.00  0.00    +0.000 C 
ATOM      6  C   UNL     1      34.410 -17.047 -22.659  0.00  0.00    +0.020 C 
ATOM      7  C   UNL     1      34.596 -18.903 -24.195  0.00  0.00    +0.020 C 
ATOM      8  C   UNL     1      34.597 -17.919 -21.585  0.00  0.00    +0.001 C 
ATOM      9  C   UNL     1      34.782 -19.774 -23.121  0.00  0.00    +0.001 C 
BRANCH   5  10
ATOM     10  C   UNL     1      34.977 -20.185 -20.702  0.00  0.00    +0.000 C 
ATOM     11  C   UNL     1      36.260 -20.415 -20.208  0.00  0.00    +0.003 C 
ATOM     12  C   UNL     1      33.880 -20.823 -20.124  0.00  0.00    +0.003 C 
ATOM     13  C   UNL     1      36.447 -21.285 -19.133  0.00  0.00    +0.037 C 
ATOM     14  C   UNL     1      34.067 -21.692 -19.049  0.00  0.00    +0.037 C 
ATOM     15  C   UNL     1      35.351 -21.924 -18.554  0.00  0.00    +0.139 C 
BRANCH  15  16
ATOM     16  O   UNL     1      35.533 -22.772 -17.505  0.00  0.00    -0.471 OA
ATOM     17  C   UNL     1      34.382 -23.100 -16.728  0.00  0.00    +0.252 C 
ENDBRANCH  15  16
ENDBRANCH   5  10
ENDBRANCH   1   4
BRANCH   1  18
ATOM     18  N   UNL     1      33.585 -15.060 -24.534  0.00  0.00    -0.169 NA
ATOM     19  H   UNL     1      34.024 -15.027 -23.613  0.00  0.00    +0.149 HD
BRANCH  18  20
ATOM     20  C   UNL     1      33.787 -13.728 -25.153  0.00  0.00    +0.186 C 
BRANCH  20  22
ATOM     21  O   UNL     1      33.804 -13.526 -27.582  0.00  0.00    -0.249 OA
ATOM     22  C   UNL     1      33.210 -13.812 -26.549  0.00  0.00    +0.331 C 
BRANCH  22  23
ATOM     23  O   UNL     1      31.926 -14.259 -26.540  0.00  0.00    -0.479 OA
ATOM     24  H   UNL     1      31.460 -14.359 -27.347  0.00  0.00    +0.295 HD
ENDBRANCH  22  23
ENDBRANCH  20  22
BRANCH  20  25
ATOM     25  C   UNL     1      33.078 -12.653 -24.330  0.00  0.00    +0.105 C 
BRANCH  25  26
ATOM     26  C   UNL     1      33.785 -11.365 -24.389  0.00  0.00    -0.087 C 
ATOM     27  C   UNL     1      34.362 -10.313 -24.438  0.00  0.00    -0.058 C 
BRANCH  27  28
ATOM     28  C   UNL     1      35.065  -9.032 -24.494  0.00  0.00    +0.218 C 
BRANCH  28  29
ATOM     29  O   UNL     1      34.877  -8.329 -23.273  0.00  0.00    -0.337 OA
ATOM     30  C   UNL     1      33.524  -7.927 -23.106  0.00  0.00    +0.176 C 
ENDBRANCH  28  29
ENDBRANCH  27  28
ENDBRANCH  25  26
ENDBRANCH  20  25
ENDBRANCH  18  20
ENDBRANCH   1  18
TORSDOF 11
ENDMDL
MODEL 8
REMARK VINA RESULT:      -9.2      6.778     11.382
REMARK  Name = 446165
REMARK  11 active torsions:
REMARK  status: ('A' for Active; 'I' for Inactive)
REMARK    1  A    between atoms: S_1  and  C_4
REMARK    2  A    between atoms: S_1  and  N_18
REMARK    3  A    between atoms: C_5  and  C_10
REMARK    4  A    between atoms: C_15  and  O_16
REMARK    5  A    between atoms: N_18  and  C_20
REMARK    6  A    between atoms: C_20  and  C_22
REMARK    7  A    between atoms: C_20  and  C_25
REMARK    8  A    between atoms: C_22  and  O_23
REMARK    9  A    between atoms: C_25  and  C_26
REMARK   10  A    between atoms: C_27  and  C_28
REMARK   11  A    between atoms: C_28  and  O_29
REMARK                            x       y       z     vdW  Elec       q    Type
REMARK                         _______ _______ _______ _____ _____    ______ ____
ROOT
ATOM      1  S   UNL     1      33.465 -14.222 -22.533  0.00  0.00    +0.061 S 
ATOM      2  O   UNL     1      34.556 -14.315 -21.581  0.00  0.00    -0.153 OA
ATOM      3  O   UNL     1      32.264 -15.013 -22.344  0.00  0.00    -0.153 OA
ENDROOT
BRANCH   1   4
ATOM      4  C   UNL     1      32.959 -12.530 -22.620  0.00  0.00    +0.122 C 
ATOM      5  C   UNL     1      32.168  -9.881 -22.757  0.00  0.00    +0.000 C 
ATOM      6  C   UNL     1      33.539 -11.700 -23.564  0.00  0.00    +0.020 C 
ATOM      7  C   UNL     1      31.993 -12.067 -21.744  0.00  0.00    +0.020 C 
ATOM      8  C   UNL     1      33.140 -10.365 -23.632  0.00  0.00    +0.001 C 
ATOM      9  C   UNL     1      31.593 -10.732 -21.813  0.00  0.00    +0.001 C 
BRANCH   5  10
ATOM     10  C   UNL     1      31.754  -8.496 -22.828  0.00  0.00    +0.000 C 
ATOM     11  C   UNL     1      31.863  -7.678 -21.704  0.00  0.00    +0.003 C 
ATOM     12  C   UNL     1      31.248  -7.981 -24.021  0.00  0.00    +0.003 C 
ATOM     13  C   UNL     1      31.465  -6.343 -21.773  0.00  0.00    +0.037 C 
ATOM     14  C   UNL     1      30.851  -6.645 -24.090  0.00  0.00    +0.037 C 
ATOM     15  C   UNL     1      30.958  -5.826 -22.966  0.00  0.00    +0.139 C 
BRANCH  15  16
ATOM     16  O   UNL     1      30.571  -4.523 -23.033  0.00  0.00    -0.471 OA
ATOM     17  C   UNL     1      31.526  -3.587 -23.533  0.00  0.00    +0.252 C 
ENDBRANCH  15  16
ENDBRANCH   5  10
ENDBRANCH   1   4
BRANCH   1  18
ATOM     18  N   UNL     1      34.058 -14.492 -24.101  0.00  0.00    -0.169 NA
ATOM     19  H   UNL     1      35.068 -14.611 -24.017  0.00  0.00    +0.149 HD
BRANCH  18  20
ATOM     20  C   UNL     1      33.554 -15.640 -24.892  0.00  0.00    +0.186 C 
BRANCH  20  22
ATOM     21  O   UNL     1      33.294 -13.948 -26.627  0.00  0.00    -0.249 OA
ATOM     22  C   UNL     1      33.057 -15.072 -26.203  0.00  0.00    +0.331 C 
BRANCH  22  23
ATOM     23  O   UNL     1      32.300 -15.970 -26.889  0.00  0.00    -0.479 OA
ATOM     24  H   UNL     1      32.541 -16.217 -27.760  0.00  0.00    +0.295 HD
ENDBRANCH  22  23
ENDBRANCH  20  22
BRANCH  20  25
ATOM     25  C   UNL     1      34.676 -16.652 -25.123  0.00  0.00    +0.105 C 
BRANCH  25  26
ATOM     26  C   UNL     1      34.753 -17.639 -24.037  0.00  0.00    -0.087 C 
ATOM     27  C   UNL     1      34.815 -18.445 -23.148  0.00  0.00    -0.058 C 
BRANCH  27  28
ATOM     28  C   UNL     1      34.890 -19.428 -22.068  0.00  0.00    +0.218 C 
BRANCH  28  29
ATOM     29  O   UNL     1      34.018 -19.045 -21.012  0.00  0.00    -0.337 OA
ATOM     30  C   UNL     1      33.167 -20.115 -20.626  0.00  0.00    +0.176 C 
ENDBRANCH  28  29
ENDBRANCH  27  28
ENDBRANCH  25  26
ENDBRANCH  20  25
ENDBRANCH  18  20
ENDBRANCH   1  18
TORSDOF 11
ENDMDL
MODEL 9
REMARK VINA RESULT:      -9.2      2.724      4.952
REMARK  Name = 446165
REMARK  11 active torsions:
REMARK  status: ('A' for Active; 'I' for Inactive)
REMARK    1  A    between atoms: S_1  and  C_4
REMARK    2  A    between atoms: S_1  and  N_18
REMARK    3  A    between atoms: C_5  and  C_10
REMARK    4  A    between atoms: C_15  and  O_16
REMARK    5  A    between atoms: N_18  and  C_20
REMARK    6  A    between atoms: C_20  and  C_22
REMARK    7  A    between atoms: C_20  and  C_25
REMARK    8  A    between atoms: C_22  and  O_23
REMARK    9  A    between atoms: C_25  and  C_26
REMARK   10  A    between atoms: C_27  and  C_28
REMARK   11  A    between atoms: C_28  and  O_29
REMARK                            x       y       z     vdW  Elec       q    Type
REMARK                         _______ _______ _______ _____ _____    ______ ____
ROOT
ATOM      1  S   UNL     1      33.196 -24.418 -13.879  0.00  0.00    +0.061 S 
ATOM      2  O   UNL     1      32.497 -23.505 -12.995  0.00  0.00    -0.153 OA
ATOM      3  O   UNL     1      32.606 -25.699 -14.218  0.00  0.00    -0.153 OA
ENDROOT
BRANCH   1   4
ATOM      4  C   UNL     1      33.506 -23.575 -15.402  0.00  0.00    +0.122 C 
ATOM      5  C   UNL     1      33.990 -22.254 -17.786  0.00  0.00    +0.000 C 
ATOM      6  C   UNL     1      34.801 -23.203 -15.717  0.00  0.00    +0.020 C 
ATOM      7  C   UNL     1      32.447 -23.302 -16.251  0.00  0.00    +0.020 C 
ATOM      8  C   UNL     1      35.045 -22.537 -16.918  0.00  0.00    +0.001 C 
ATOM      9  C   UNL     1      32.691 -22.636 -17.453  0.00  0.00    +0.001 C 
BRANCH   5  10
ATOM     10  C   UNL     1      34.244 -21.563 -19.032  0.00  0.00    +0.000 C 
ATOM     11  C   UNL     1      33.196 -20.940 -19.709  0.00  0.00    +0.003 C 
ATOM     12  C   UNL     1      35.536 -21.520 -19.555  0.00  0.00    +0.003 C 
ATOM     13  C   UNL     1      33.440 -20.274 -20.910  0.00  0.00    +0.037 C 
ATOM     14  C   UNL     1      35.780 -20.853 -20.755  0.00  0.00    +0.037 C 
ATOM     15  C   UNL     1      34.732 -20.231 -21.433  0.00  0.00    +0.139 C 
BRANCH  15  16
ATOM     16  O   UNL     1      34.971 -19.579 -22.604  0.00  0.00    -0.471 OA
ATOM     17  C   UNL     1      35.195 -18.172 -22.531  0.00  0.00    +0.252 C 
ENDBRANCH  15  16
ENDBRANCH   5  10
ENDBRANCH   1   4
BRANCH   1  18
ATOM     18  N   UNL     1      34.769 -24.677 -13.296  0.00  0.00    -0.169 NA
ATOM     19  H   UNL     1      35.400 -24.566 -14.090  0.00  0.00    +0.149 HD
BRANCH  18  20
ATOM     20  C   UNL     1      35.300 -23.827 -12.203  0.00  0.00    +0.186 C 
BRANCH  20  22
ATOM     21  O   UNL     1      35.313 -24.541  -9.873  0.00  0.00    -0.249 OA
ATOM     22  C   UNL     1      35.599 -24.753 -11.045  0.00  0.00    +0.331 C 
BRANCH  22  23
ATOM     23  O   UNL     1      36.232 -25.885 -11.453  0.00  0.00    -0.479 OA
ATOM     24  H   UNL     1      37.136 -26.016 -11.246  0.00  0.00    +0.295 HD
ENDBRANCH  22  23
ENDBRANCH  20  22
BRANCH  20  25
ATOM     25  C   UNL     1      36.564 -23.104 -12.667  0.00  0.00    +0.105 C 
BRANCH  25  26
ATOM     26  C   UNL     1      37.461 -23.997 -13.415  0.00  0.00    -0.087 C 
ATOM     27  C   UNL     1      38.195 -24.725 -14.027  0.00  0.00    -0.058 C 
BRANCH  27  28
ATOM     28  C   UNL     1      39.088 -25.614 -14.769  0.00  0.00    +0.218 C 
BRANCH  28  29
ATOM     29  O   UNL     1      38.528 -26.919 -14.824  0.00  0.00    -0.337 OA
ATOM     30  C   UNL     1      37.145 -26.879 -15.147  0.00  0.00    +0.176 C 
ENDBRANCH  28  29
ENDBRANCH  27  28
ENDBRANCH  25  26
ENDBRANCH  20  25
ENDBRANCH  18  20
ENDBRANCH   1  18
TORSDOF 11
ENDMDL
