MODEL 1
REMARK VINA RESULT:      -8.4      0.000      0.000
REMARK  Name = 46937082
REMARK  9 active torsions:
REMARK  status: ('A' for Active; 'I' for Inactive)
REMARK    1  A    between atoms: C_1  and  S_2
REMARK    2  A    between atoms: C_1  and  C_13
REMARK    3  A    between atoms: S_2  and  C_3
REMARK    4  A    between atoms: C_3  and  C_4
REMARK    5  A    between atoms: C_4  and  N_5
REMARK    6  A    between atoms: C_4  and  C_10
REMARK    7  A    between atoms: C_10  and  O_11
REMARK    8  A    between atoms: C_13  and  C_15
REMARK    9  A    between atoms: C_15  and  C_18
REMARK                            x       y       z     vdW  Elec       q    Type
REMARK                         _______ _______ _______ _____ _____    ______ ____
ROOT
ATOM      1  C   UNK     1      33.141 -23.420 -16.678  0.00  0.00    +0.066 C 
ENDROOT
BRANCH   1   2
ATOM      2  S   UNK     1      31.821 -23.577 -15.454  0.00  0.00    -0.141 S 
BRANCH   2   3
ATOM      3  C   UNK     1      30.479 -22.816 -16.421  0.00  0.00    +0.047 C 
BRANCH   3   4
ATOM      4  C   UNK     1      29.098 -23.198 -15.884  0.00  0.00    +0.047 C 
BRANCH   4   5
ATOM      5  N   UNK     1      29.085 -24.611 -15.500  0.00  0.00    +0.389 N 
ATOM      6  H   UNK     1      28.798 -24.697 -14.526  0.00  0.00    -0.088 HD
ATOM      7  H   UNK     1      30.019 -25.004 -15.615  0.00  0.00    -0.088 HD
ATOM      8  H   UNK     1      28.428 -25.118 -16.094  0.00  0.00    -0.088 HD
ENDBRANCH   4   5
BRANCH   4  10
ATOM      9  O   UNK     1      27.585 -23.889 -17.640  0.00  0.00    -0.253 OA
ATOM     10  C   UNK     1      28.004 -22.994 -16.914  0.00  0.00    +0.294 C 
BRANCH  10  11
ATOM     11  O   UNK     1      27.552 -21.716 -16.987  0.00  0.00    -0.482 OA
ATOM     12  H   UNK     1      27.843 -21.080 -16.363  0.00  0.00    +0.295 HD
ENDBRANCH  10  11
ENDBRANCH   4  10
ENDBRANCH   3   4
ENDBRANCH   2   3
ENDBRANCH   1   2
BRANCH   1  13
ATOM     13  C   UNK     1      32.740 -22.501 -17.830  0.00  0.00    +0.081 C 
BRANCH  13  15
ATOM     14  O   UNK     1      34.144 -23.648 -19.424  0.00  0.00    -0.291 OA
ATOM     15  C   UNK     1      33.669 -22.584 -19.034  0.00  0.00    +0.174 C 
BRANCH  15  18
ATOM     16 CL   UNK     1      37.289 -19.367 -20.856  0.00  0.00    -0.081 Cl
ATOM     17 CL   UNK     1      34.902 -17.524 -22.030  0.00  0.00    -0.081 Cl
ATOM     18  C   UNK     1      33.992 -21.332 -19.774  0.00  0.00    +0.036 C 
ATOM     19  C   UNK     1      35.321 -20.953 -19.961  0.00  0.00    +0.015 C 
ATOM     20  C   UNK     1      32.963 -20.538 -20.281  0.00  0.00    +0.004 C 
ATOM     21  C   UNK     1      35.622 -19.782 -20.656  0.00  0.00    +0.068 C 
ATOM     22  C   UNK     1      33.264 -19.365 -20.974  0.00  0.00    +0.012 C 
ATOM     23  C   UNK     1      34.593 -18.987 -21.162  0.00  0.00    +0.068 C 
ENDBRANCH  15  18
ENDBRANCH  13  15
ENDBRANCH   1  13
TORSDOF 9
ENDMDL
MODEL 2
REMARK VINA RESULT:      -8.3      3.622      5.352
REMARK  Name = 46937082
REMARK  9 active torsions:
REMARK  status: ('A' for Active; 'I' for Inactive)
REMARK    1  A    between atoms: C_1  and  S_2
REMARK    2  A    between atoms: C_1  and  C_13
REMARK    3  A    between atoms: S_2  and  C_3
REMARK    4  A    between atoms: C_3  and  C_4
REMARK    5  A    between atoms: C_4  and  N_5
REMARK    6  A    between atoms: C_4  and  C_10
REMARK    7  A    between atoms: C_10  and  O_11
REMARK    8  A    between atoms: C_13  and  C_15
REMARK    9  A    between atoms: C_15  and  C_18
REMARK                            x       y       z     vdW  Elec       q    Type
REMARK                         _______ _______ _______ _____ _____    ______ ____
ROOT
ATOM      1  C   UNK     1      35.193 -22.826 -16.658  0.00  0.00    +0.066 C 
ENDROOT
BRANCH   1   2
ATOM      2  S   UNK     1      35.051 -23.416 -14.956  0.00  0.00    -0.141 S 
BRANCH   2   3
ATOM      3  C   UNK     1      36.608 -24.357 -14.877  0.00  0.00    +0.047 C 
BRANCH   3   4
ATOM      4  C   UNK     1      36.380 -25.803 -14.434  0.00  0.00    +0.047 C 
BRANCH   4   5
ATOM      5  N   UNK     1      36.622 -25.930 -12.996  0.00  0.00    +0.389 N 
ATOM      6  H   UNK     1      37.062 -26.829 -12.802  0.00  0.00    -0.088 HD
ATOM      7  H   UNK     1      35.735 -25.871 -12.495  0.00  0.00    -0.088 HD
ATOM      8  H   UNK     1      37.236 -25.177 -12.687  0.00  0.00    -0.088 HD
ENDBRANCH   4   5
BRANCH   4  10
ATOM      9  O   UNK     1      38.429 -27.055 -14.730  0.00  0.00    -0.253 OA
ATOM     10  C   UNK     1      37.308 -26.774 -15.140  0.00  0.00    +0.294 C 
BRANCH  10  11
ATOM     11  O   UNK     1      36.798 -27.278 -16.292  0.00  0.00    -0.482 OA
ATOM     12  H   UNK     1      35.875 -27.412 -16.377  0.00  0.00    +0.295 HD
ENDBRANCH  10  11
ENDBRANCH   4  10
ENDBRANCH   3   4
ENDBRANCH   2   3
ENDBRANCH   1   2
BRANCH   1  13
ATOM     13  C   UNK     1      33.858 -22.894 -17.395  0.00  0.00    +0.081 C 
BRANCH  13  15
ATOM     14  O   UNK     1      33.980 -23.955 -19.561  0.00  0.00    -0.291 OA
ATOM     15  C   UNK     1      33.993 -22.911 -18.913  0.00  0.00    +0.174 C 
BRANCH  15  18
ATOM     16 CL   UNK     1      37.100 -19.295 -20.924  0.00  0.00    -0.081 Cl
ATOM     17 CL   UNK     1      34.447 -17.673 -21.820  0.00  0.00    -0.081 Cl
ATOM     18  C   UNK     1      34.123 -21.613 -19.632  0.00  0.00    +0.036 C 
ATOM     19  C   UNK     1      35.387 -21.097 -19.920  0.00  0.00    +0.015 C 
ATOM     20  C   UNK     1      32.980 -20.914 -20.020  0.00  0.00    +0.004 C 
ATOM     21  C   UNK     1      35.507 -19.882 -20.596  0.00  0.00    +0.068 C 
ATOM     22  C   UNK     1      33.100 -19.698 -20.694  0.00  0.00    +0.012 C 
ATOM     23  C   UNK     1      34.363 -19.182 -20.982  0.00  0.00    +0.068 C 
ENDBRANCH  15  18
ENDBRANCH  13  15
ENDBRANCH   1  13
TORSDOF 9
ENDMDL
MODEL 3
REMARK VINA RESULT:      -8.2      4.756      6.925
REMARK  Name = 46937082
REMARK  9 active torsions:
REMARK  status: ('A' for Active; 'I' for Inactive)
REMARK    1  A    between atoms: C_1  and  S_2
REMARK    2  A    between atoms: C_1  and  C_13
REMARK    3  A    between atoms: S_2  and  C_3
REMARK    4  A    between atoms: C_3  and  C_4
REMARK    5  A    between atoms: C_4  and  N_5
REMARK    6  A    between atoms: C_4  and  C_10
REMARK    7  A    between atoms: C_10  and  O_11
REMARK    8  A    between atoms: C_13  and  C_15
REMARK    9  A    between atoms: C_15  and  C_18
REMARK                            x       y       z     vdW  Elec       q    Type
REMARK                         _______ _______ _______ _____ _____    ______ ____
ROOT
ATOM      1  C   UNK     1      36.377 -24.021 -15.447  0.00  0.00    +0.066 C 
ENDROOT
BRANCH   1   2
ATOM      2  S   UNK     1      36.544 -23.758 -13.667  0.00  0.00    -0.141 S 
BRANCH   2   3
ATOM      3  C   UNK     1      38.211 -24.458 -13.456  0.00  0.00    +0.047 C 
BRANCH   3   4
ATOM      4  C   UNK     1      38.577 -25.416 -14.592  0.00  0.00    +0.047 C 
BRANCH   4   5
ATOM      5  N   UNK     1      38.270 -26.794 -14.203  0.00  0.00    +0.389 N 
ATOM      6  H   UNK     1      38.247 -26.863 -13.186  0.00  0.00    -0.088 HD
ATOM      7  H   UNK     1      38.988 -27.419 -14.569  0.00  0.00    -0.088 HD
ATOM      8  H   UNK     1      37.362 -27.060 -14.583  0.00  0.00    -0.088 HD
ENDBRANCH   4   5
BRANCH   4  10
ATOM      9  O   UNK     1      40.895 -24.833 -14.221  0.00  0.00    -0.253 OA
ATOM     10  C   UNK     1      40.052 -25.357 -14.941  0.00  0.00    +0.294 C 
BRANCH  10  11
ATOM     11  O   UNK     1      40.352 -25.907 -16.144  0.00  0.00    -0.482 OA
ATOM     12  H   UNK     1      41.141 -26.403 -16.249  0.00  0.00    +0.295 HD
ENDBRANCH  10  11
ENDBRANCH   4  10
ENDBRANCH   3   4
ENDBRANCH   2   3
ENDBRANCH   1   2
BRANCH   1  13
ATOM     13  C   UNK     1      36.096 -22.718 -16.190  0.00  0.00    +0.081 C 
BRANCH  13  15
ATOM     14  O   UNK     1      34.182 -23.698 -17.287  0.00  0.00    -0.291 OA
ATOM     15  C   UNK     1      35.080 -22.859 -17.316  0.00  0.00    +0.174 C 
BRANCH  15  18
ATOM     16 CL   UNK     1      32.611 -20.109 -20.937  0.00  0.00    -0.081 Cl
ATOM     17 CL   UNK     1      35.502 -19.114 -21.994  0.00  0.00    -0.081 Cl
ATOM     18  C   UNK     1      35.167 -21.930 -18.477  0.00  0.00    +0.036 C 
ATOM     19  C   UNK     1      34.005 -21.490 -19.110  0.00  0.00    +0.015 C 
ATOM     20  C   UNK     1      36.414 -21.500 -18.933  0.00  0.00    +0.004 C 
ATOM     21  C   UNK     1      34.088 -20.620 -20.196  0.00  0.00    +0.068 C 
ATOM     22  C   UNK     1      36.497 -20.631 -20.020  0.00  0.00    +0.012 C 
ATOM     23  C   UNK     1      35.334 -20.191 -20.653  0.00  0.00    +0.068 C 
ENDBRANCH  15  18
ENDBRANCH  13  15
ENDBRANCH   1  13
TORSDOF 9
ENDMDL
MODEL 4
REMARK VINA RESULT:      -8.0      6.207      8.454
REMARK  Name = 46937082
REMARK  9 active torsions:
REMARK  status: ('A' for Active; 'I' for Inactive)
REMARK    1  A    between atoms: C_1  and  S_2
REMARK    2  A    between atoms: C_1  and  C_13
REMARK    3  A    between atoms: S_2  and  C_3
REMARK    4  A    between atoms: C_3  and  C_4
REMARK    5  A    between atoms: C_4  and  N_5
REMARK    6  A    between atoms: C_4  and  C_10
REMARK    7  A    between atoms: C_10  and  O_11
REMARK    8  A    between atoms: C_13  and  C_15
REMARK    9  A    between atoms: C_15  and  C_18
REMARK                            x       y       z     vdW  Elec       q    Type
REMARK                         _______ _______ _______ _____ _____    ______ ____
ROOT
ATOM      1  C   UNK     1      34.882 -16.621 -21.033  0.00  0.00    +0.066 C 
ENDROOT
BRANCH   1   2
ATOM      2  S   UNK     1      33.631 -15.673 -21.929  0.00  0.00    -0.141 S 
BRANCH   2   3
ATOM      3  C   UNK     1      34.577 -15.374 -23.455  0.00  0.00    +0.047 C 
BRANCH   3   4
ATOM      4  C   UNK     1      33.905 -16.002 -24.678  0.00  0.00    +0.047 C 
BRANCH   4   5
ATOM      5  N   UNK     1      34.870 -16.820 -25.415  0.00  0.00    +0.389 N 
ATOM      6  H   UNK     1      35.471 -16.215 -25.974  0.00  0.00    -0.088 HD
ATOM      7  H   UNK     1      34.372 -17.465 -26.027  0.00  0.00    -0.088 HD
ATOM      8  H   UNK     1      35.441 -17.349 -24.755  0.00  0.00    -0.088 HD
ENDBRANCH   4   5
BRANCH   4  10
ATOM      9  O   UNK     1      33.579 -14.975 -26.843  0.00  0.00    -0.253 OA
ATOM     10  C   UNK     1      33.364 -14.959 -25.636  0.00  0.00    +0.294 C 
BRANCH  10  11
ATOM     11  O   UNK     1      32.645 -13.980 -25.031  0.00  0.00    -0.482 OA
ATOM     12  H   UNK     1      32.958 -13.096 -25.038  0.00  0.00    +0.295 HD
ENDBRANCH  10  11
ENDBRANCH   4  10
ENDBRANCH   3   4
ENDBRANCH   2   3
ENDBRANCH   1   2
BRANCH   1  13
ATOM     13  C   UNK     1      35.638 -17.575 -21.955  0.00  0.00    +0.081 C 
BRANCH  13  15
ATOM     14  O   UNK     1      34.504 -19.120 -23.424  0.00  0.00    -0.291 OA
ATOM     15  C   UNK     1      34.872 -18.850 -22.282  0.00  0.00    +0.174 C 
BRANCH  15  18
ATOM     16 CL   UNK     1      36.690 -21.873 -18.498  0.00  0.00    -0.081 Cl
ATOM     17 CL   UNK     1      33.633 -22.721 -17.858  0.00  0.00    -0.081 Cl
ATOM     18  C   UNK     1      34.581 -19.812 -21.182  0.00  0.00    +0.036 C 
ATOM     19  C   UNK     1      35.626 -20.347 -20.428  0.00  0.00    +0.015 C 
ATOM     20  C   UNK     1      33.264 -20.177 -20.905  0.00  0.00    +0.004 C 
ATOM     21  C   UNK     1      35.353 -21.246 -19.397  0.00  0.00    +0.068 C 
ATOM     22  C   UNK     1      32.991 -21.077 -19.875  0.00  0.00    +0.012 C 
ATOM     23  C   UNK     1      34.035 -21.612 -19.121  0.00  0.00    +0.068 C 
ENDBRANCH  15  18
ENDBRANCH  13  15
ENDBRANCH   1  13
TORSDOF 9
ENDMDL
MODEL 5
REMARK VINA RESULT:      -8.0      1.473      2.173
REMARK  Name = 46937082
REMARK  9 active torsions:
REMARK  status: ('A' for Active; 'I' for Inactive)
REMARK    1  A    between atoms: C_1  and  S_2
REMARK    2  A    between atoms: C_1  and  C_13
REMARK    3  A    between atoms: S_2  and  C_3
REMARK    4  A    between atoms: C_3  and  C_4
REMARK    5  A    between atoms: C_4  and  N_5
REMARK    6  A    between atoms: C_4  and  C_10
REMARK    7  A    between atoms: C_10  and  O_11
REMARK    8  A    between atoms: C_13  and  C_15
REMARK    9  A    between atoms: C_15  and  C_18
REMARK                            x       y       z     vdW  Elec       q    Type
REMARK                         _______ _______ _______ _____ _____    ______ ____
ROOT
ATOM      1  C   UNK     1      32.755 -23.515 -15.196  0.00  0.00    +0.066 C 
ENDROOT
BRANCH   1   2
ATOM      2  S   UNK     1      31.232 -22.781 -14.557  0.00  0.00    -0.141 S 
BRANCH   2   3
ATOM      3  C   UNK     1      30.266 -22.805 -16.100  0.00  0.00    +0.047 C 
BRANCH   3   4
ATOM      4  C   UNK     1      28.784 -23.084 -15.843  0.00  0.00    +0.047 C 
BRANCH   4   5
ATOM      5  N   UNK     1      28.586 -24.503 -15.542  0.00  0.00    +0.389 N 
ATOM      6  H   UNK     1      28.451 -24.623 -14.539  0.00  0.00    -0.088 HD
ATOM      7  H   UNK     1      29.406 -25.032 -15.840  0.00  0.00    -0.088 HD
ATOM      8  H   UNK     1      27.764 -24.844 -16.039  0.00  0.00    -0.088 HD
ENDBRANCH   4   5
BRANCH   4  10
ATOM      9  O   UNK     1      27.716 -23.524 -17.968  0.00  0.00    -0.253 OA
ATOM     10  C   UNK     1      27.918 -22.746 -17.042  0.00  0.00    +0.294 C 
BRANCH  10  11
ATOM     11  O   UNK     1      27.414 -21.487 -17.016  0.00  0.00    -0.482 OA
ATOM     12  H   UNK     1      27.767 -20.829 -17.582  0.00  0.00    +0.295 HD
ENDBRANCH  10  11
ENDBRANCH   4  10
ENDBRANCH   3   4
ENDBRANCH   2   3
ENDBRANCH   1   2
BRANCH   1  13
ATOM     13  C   UNK     1      32.906 -23.290 -16.698  0.00  0.00    +0.081 C 
BRANCH  13  15
ATOM     14  O   UNK     1      35.291 -23.655 -16.608  0.00  0.00    -0.291 OA
ATOM     15  C   UNK     1      34.347 -23.080 -17.146  0.00  0.00    +0.174 C 
BRANCH  15  18
ATOM     16 CL   UNK     1      32.441 -20.115 -20.933  0.00  0.00    -0.081 Cl
ATOM     17 CL   UNK     1      35.488 -19.393 -21.750  0.00  0.00    -0.081 Cl
ATOM     18  C   UNK     1      34.613 -22.165 -18.290  0.00  0.00    +0.036 C 
ATOM     19  C   UNK     1      33.550 -21.619 -19.010  0.00  0.00    +0.015 C 
ATOM     20  C   UNK     1      35.926 -21.852 -18.642  0.00  0.00    +0.004 C 
ATOM     21  C   UNK     1      33.800 -20.761 -20.081  0.00  0.00    +0.068 C 
ATOM     22  C   UNK     1      36.177 -20.995 -19.713  0.00  0.00    +0.012 C 
ATOM     23  C   UNK     1      35.114 -20.449 -20.433  0.00  0.00    +0.068 C 
ENDBRANCH  15  18
ENDBRANCH  13  15
ENDBRANCH   1  13
TORSDOF 9
ENDMDL
MODEL 6
REMARK VINA RESULT:      -7.9      4.169      5.294
REMARK  Name = 46937082
REMARK  9 active torsions:
REMARK  status: ('A' for Active; 'I' for Inactive)
REMARK    1  A    between atoms: C_1  and  S_2
REMARK    2  A    between atoms: C_1  and  C_13
REMARK    3  A    between atoms: S_2  and  C_3
REMARK    4  A    between atoms: C_3  and  C_4
REMARK    5  A    between atoms: C_4  and  N_5
REMARK    6  A    between atoms: C_4  and  C_10
REMARK    7  A    between atoms: C_10  and  O_11
REMARK    8  A    between atoms: C_13  and  C_15
REMARK    9  A    between atoms: C_15  and  C_18
REMARK                            x       y       z     vdW  Elec       q    Type
REMARK                         _______ _______ _______ _____ _____    ______ ____
ROOT
ATOM      1  C   UNK     1      34.874 -23.143 -16.094  0.00  0.00    +0.066 C 
ENDROOT
BRANCH   1   2
ATOM      2  S   UNK     1      34.863 -24.635 -15.075  0.00  0.00    -0.141 S 
BRANCH   2   3
ATOM      3  C   UNK     1      35.079 -23.840 -13.450  0.00  0.00    +0.047 C 
BRANCH   3   4
ATOM      4  C   UNK     1      36.349 -24.319 -12.744  0.00  0.00    +0.047 C 
BRANCH   4   5
ATOM      5  N   UNK     1      36.530 -25.755 -12.959  0.00  0.00    +0.389 N 
ATOM      6  H   UNK     1      37.160 -26.129 -12.250  0.00  0.00    -0.088 HD
ATOM      7  H   UNK     1      36.928 -25.913 -13.885  0.00  0.00    -0.088 HD
ATOM      8  H   UNK     1      35.627 -26.225 -12.894  0.00  0.00    -0.088 HD
ENDBRANCH   4   5
BRANCH   4  10
ATOM      9  O   UNK     1      37.018 -23.282 -10.663  0.00  0.00    -0.253 OA
ATOM     10  C   UNK     1      36.296 -24.084 -11.246  0.00  0.00    +0.294 C 
BRANCH  10  11
ATOM     11  O   UNK     1      35.399 -24.871 -10.599  0.00  0.00    -0.482 OA
ATOM     12  H   UNK     1      35.698 -25.529 -10.003  0.00  0.00    +0.295 HD
ENDBRANCH  10  11
ENDBRANCH   4  10
ENDBRANCH   3   4
ENDBRANCH   2   3
ENDBRANCH   1   2
BRANCH   1  13
ATOM     13  C   UNK     1      33.579 -22.988 -16.888  0.00  0.00    +0.081 C 
BRANCH  13  15
ATOM     14  O   UNK     1      33.735 -24.234 -18.951  0.00  0.00    -0.291 OA
ATOM     15  C   UNK     1      33.760 -23.138 -18.393  0.00  0.00    +0.174 C 
BRANCH  15  18
ATOM     16 CL   UNK     1      37.029 -19.764 -20.559  0.00  0.00    -0.081 Cl
ATOM     17 CL   UNK     1      34.455 -18.183 -21.717  0.00  0.00    -0.081 Cl
ATOM     18  C   UNK     1      33.949 -21.911 -19.215  0.00  0.00    +0.036 C 
ATOM     19  C   UNK     1      35.235 -21.443 -19.486  0.00  0.00    +0.015 C 
ATOM     20  C   UNK     1      32.840 -21.229 -19.716  0.00  0.00    +0.004 C 
ATOM     21  C   UNK     1      35.411 -20.294 -20.257  0.00  0.00    +0.068 C 
ATOM     22  C   UNK     1      33.016 -20.080 -20.486  0.00  0.00    +0.012 C 
ATOM     23  C   UNK     1      34.302 -19.612 -20.757  0.00  0.00    +0.068 C 
ENDBRANCH  15  18
ENDBRANCH  13  15
ENDBRANCH   1  13
TORSDOF 9
ENDMDL
MODEL 7
REMARK VINA RESULT:      -7.8      4.564      5.719
REMARK  Name = 46937082
REMARK  9 active torsions:
REMARK  status: ('A' for Active; 'I' for Inactive)
REMARK    1  A    between atoms: C_1  and  S_2
REMARK    2  A    between atoms: C_1  and  C_13
REMARK    3  A    between atoms: S_2  and  C_3
REMARK    4  A    between atoms: C_3  and  C_4
REMARK    5  A    between atoms: C_4  and  N_5
REMARK    6  A    between atoms: C_4  and  C_10
REMARK    7  A    between atoms: C_10  and  O_11
REMARK    8  A    between atoms: C_13  and  C_15
REMARK    9  A    between atoms: C_15  and  C_18
REMARK                            x       y       z     vdW  Elec       q    Type
REMARK                         _______ _______ _______ _____ _____    ______ ____
ROOT
ATOM      1  C   UNK     1      35.221 -24.557 -15.310  0.00  0.00    +0.066 C 
ENDROOT
BRANCH   1   2
ATOM      2  S   UNK     1      36.978 -24.885 -15.044  0.00  0.00    -0.141 S 
BRANCH   2   3
ATOM      3  C   UNK     1      36.887 -25.374 -13.292  0.00  0.00    +0.047 C 
BRANCH   3   4
ATOM      4  C   UNK     1      36.702 -24.167 -12.370  0.00  0.00    +0.047 C 
BRANCH   4   5
ATOM      5  N   UNK     1      37.842 -24.054 -11.459  0.00  0.00    +0.389 N 
ATOM      6  H   UNK     1      37.516 -24.120 -10.495  0.00  0.00    -0.088 HD
ATOM      7  H   UNK     1      38.304 -23.155 -11.600  0.00  0.00    -0.088 HD
ATOM      8  H   UNK     1      38.503 -24.808 -11.647  0.00  0.00    -0.088 HD
ENDBRANCH   4   5
BRANCH   4  10
ATOM      9  O   UNK     1      35.380 -24.960 -10.506  0.00  0.00    -0.253 OA
ATOM     10  C   UNK     1      35.449 -24.278 -11.523  0.00  0.00    +0.294 C 
BRANCH  10  11
ATOM     11  O   UNK     1      34.394 -23.579 -12.012  0.00  0.00    -0.482 OA
ATOM     12  H   UNK     1      33.690 -24.029 -12.437  0.00  0.00    +0.295 HD
ENDBRANCH  10  11
ENDBRANCH   4  10
ENDBRANCH   3   4
ENDBRANCH   2   3
ENDBRANCH   1   2
BRANCH   1  13
ATOM     13  C   UNK     1      34.984 -23.157 -15.871  0.00  0.00    +0.081 C 
BRANCH  13  15
ATOM     14  O   UNK     1      33.104 -23.831 -17.229  0.00  0.00    -0.291 OA
ATOM     15  C   UNK     1      34.112 -23.135 -17.120  0.00  0.00    +0.174 C 
BRANCH  15  18
ATOM     16 CL   UNK     1      32.562 -20.075 -20.993  0.00  0.00    -0.081 Cl
ATOM     17 CL   UNK     1      35.678 -19.450 -21.599  0.00  0.00    -0.081 Cl
ATOM     18  C   UNK     1      34.484 -22.219 -18.234  0.00  0.00    +0.036 C 
ATOM     19  C   UNK     1      33.490 -21.631 -19.017  0.00  0.00    +0.015 C 
ATOM     20  C   UNK     1      35.827 -21.948 -18.495  0.00  0.00    +0.004 C 
ATOM     21  C   UNK     1      33.839 -20.773 -20.060  0.00  0.00    +0.068 C 
ATOM     22  C   UNK     1      36.176 -21.091 -19.539  0.00  0.00    +0.012 C 
ATOM     23  C   UNK     1      35.183 -20.503 -20.321  0.00  0.00    +0.068 C 
ENDBRANCH  15  18
ENDBRANCH  13  15
ENDBRANCH   1  13
TORSDOF 9
ENDMDL
MODEL 8
REMARK VINA RESULT:      -7.8      6.614      8.476
REMARK  Name = 46937082
REMARK  9 active torsions:
REMARK  status: ('A' for Active; 'I' for Inactive)
REMARK    1  A    between atoms: C_1  and  S_2
REMARK    2  A    between atoms: C_1  and  C_13
REMARK    3  A    between atoms: S_2  and  C_3
REMARK    4  A    between atoms: C_3  and  C_4
REMARK    5  A    between atoms: C_4  and  N_5
REMARK    6  A    between atoms: C_4  and  C_10
REMARK    7  A    between atoms: C_10  and  O_11
REMARK    8  A    between atoms: C_13  and  C_15
REMARK    9  A    between atoms: C_15  and  C_18
REMARK                            x       y       z     vdW  Elec       q    Type
REMARK                         _______ _______ _______ _____ _____    ______ ____
ROOT
ATOM      1  C   UNK     1      34.708 -16.344 -20.915  0.00  0.00    +0.066 C 
ENDROOT
BRANCH   1   2
ATOM      2  S   UNK     1      34.254 -14.595 -20.891  0.00  0.00    -0.141 S 
BRANCH   2   3
ATOM      3  C   UNK     1      32.767 -14.698 -21.937  0.00  0.00    +0.047 C 
BRANCH   3   4
ATOM      4  C   UNK     1      32.804 -13.686 -23.084  0.00  0.00    +0.047 C 
BRANCH   4   5
ATOM      5  N   UNK     1      34.179 -13.514 -23.556  0.00  0.00    +0.389 N 
ATOM      6  H   UNK     1      34.415 -12.522 -23.562  0.00  0.00    -0.088 HD
ATOM      7  H   UNK     1      34.264 -13.889 -24.501  0.00  0.00    -0.088 HD
ATOM      8  H   UNK     1      34.816 -14.012 -22.934  0.00  0.00    -0.088 HD
ENDBRANCH   4   5
BRANCH   4  10
ATOM      9  O   UNK     1      32.748 -11.268 -23.091  0.00  0.00    -0.253 OA
ATOM     10  C   UNK     1      32.290 -12.322 -22.664  0.00  0.00    +0.294 C 
BRANCH  10  11
ATOM     11  O   UNK     1      31.296 -12.372 -21.741  0.00  0.00    -0.482 OA
ATOM     12  H   UNK     1      31.505 -12.482 -20.834  0.00  0.00    +0.295 HD
ENDBRANCH  10  11
ENDBRANCH   4  10
ENDBRANCH   3   4
ENDBRANCH   2   3
ENDBRANCH   1   2
BRANCH   1  13
ATOM     13  C   UNK     1      34.510 -16.962 -22.297  0.00  0.00    +0.081 C 
BRANCH  13  15
ATOM     14  O   UNK     1      35.866 -18.672 -23.331  0.00  0.00    -0.291 OA
ATOM     15  C   UNK     1      35.086 -18.366 -22.431  0.00  0.00    +0.174 C 
BRANCH  15  18
ATOM     16 CL   UNK     1      36.603 -21.743 -18.818  0.00  0.00    -0.081 Cl
ATOM     17 CL   UNK     1      33.488 -22.497 -18.372  0.00  0.00    -0.081 Cl
ATOM     18  C   UNK     1      34.706 -19.393 -21.421  0.00  0.00    +0.036 C 
ATOM     19  C   UNK     1      35.692 -20.029 -20.668  0.00  0.00    +0.015 C 
ATOM     20  C   UNK     1      33.363 -19.717 -21.228  0.00  0.00    +0.004 C 
ATOM     21  C   UNK     1      35.336 -20.990 -19.721  0.00  0.00    +0.068 C 
ATOM     22  C   UNK     1      33.007 -20.678 -20.282  0.00  0.00    +0.012 C 
ATOM     23  C   UNK     1      33.993 -21.315 -19.529  0.00  0.00    +0.068 C 
ENDBRANCH  15  18
ENDBRANCH  13  15
ENDBRANCH   1  13
TORSDOF 9
ENDMDL
MODEL 9
REMARK VINA RESULT:      -7.7      6.164      8.009
REMARK  Name = 46937082
REMARK  9 active torsions:
REMARK  status: ('A' for Active; 'I' for Inactive)
REMARK    1  A    between atoms: C_1  and  S_2
REMARK    2  A    between atoms: C_1  and  C_13
REMARK    3  A    between atoms: S_2  and  C_3
REMARK    4  A    between atoms: C_3  and  C_4
REMARK    5  A    between atoms: C_4  and  N_5
REMARK    6  A    between atoms: C_4  and  C_10
REMARK    7  A    between atoms: C_10  and  O_11
REMARK    8  A    between atoms: C_13  and  C_15
REMARK    9  A    between atoms: C_15  and  C_18
REMARK                            x       y       z     vdW  Elec       q    Type
REMARK                         _______ _______ _______ _____ _____    ______ ____
ROOT
ATOM      1  C   UNK     1      34.945 -17.257 -24.722  0.00  0.00    +0.066 C 
ENDROOT
BRANCH   1   2
ATOM      2  S   UNK     1      33.840 -15.867 -25.054  0.00  0.00    -0.141 S 
BRANCH   2   3
ATOM      3  C   UNK     1      34.209 -14.882 -23.568  0.00  0.00    +0.047 C 
BRANCH   3   4
ATOM      4  C   UNK     1      32.998 -14.770 -22.640  0.00  0.00    +0.047 C 
BRANCH   4   5
ATOM      5  N   UNK     1      32.693 -13.361 -22.383  0.00  0.00    +0.389 N 
ATOM      6  H   UNK     1      32.182 -13.278 -21.505  0.00  0.00    -0.088 HD
ATOM      7  H   UNK     1      32.122 -12.993 -23.144  0.00  0.00    -0.088 HD
ATOM      8  H   UNK     1      33.562 -12.831 -22.323  0.00  0.00    -0.088 HD
ENDBRANCH   4   5
BRANCH   4  10
ATOM      9  O   UNK     1      32.371 -16.049 -20.686  0.00  0.00    -0.253 OA
ATOM     10  C   UNK     1      33.238 -15.437 -21.299  0.00  0.00    +0.294 C 
BRANCH  10  11
ATOM     11  O   UNK     1      34.495 -15.266 -20.819  0.00  0.00    -0.482 OA
ATOM     12  H   UNK     1      35.064 -16.004 -20.720  0.00  0.00    +0.295 HD
ENDBRANCH  10  11
ENDBRANCH   4  10
ENDBRANCH   3   4
ENDBRANCH   2   3
ENDBRANCH   1   2
BRANCH   1  13
ATOM     13  C   UNK     1      34.336 -18.241 -23.726  0.00  0.00    +0.081 C 
BRANCH  13  15
ATOM     14  O   UNK     1      36.040 -17.592 -22.143  0.00  0.00    -0.291 OA
ATOM     15  C   UNK     1      35.103 -18.340 -22.413  0.00  0.00    +0.174 C 
BRANCH  15  18
ATOM     16 CL   UNK     1      36.484 -21.765 -18.790  0.00  0.00    -0.081 Cl
ATOM     17 CL   UNK     1      33.347 -22.464 -18.413  0.00  0.00    -0.081 Cl
ATOM     18  C   UNK     1      34.684 -19.366 -21.417  0.00  0.00    +0.036 C 
ATOM     19  C   UNK     1      35.643 -20.025 -20.648  0.00  0.00    +0.015 C 
ATOM     20  C   UNK     1      33.332 -19.667 -21.254  0.00  0.00    +0.004 C 
ATOM     21  C   UNK     1      35.250 -20.984 -19.714  0.00  0.00    +0.068 C 
ATOM     22  C   UNK     1      32.938 -20.627 -20.322  0.00  0.00    +0.012 C 
ATOM     23  C   UNK     1      33.897 -21.286 -19.552  0.00  0.00    +0.068 C 
ENDBRANCH  15  18
ENDBRANCH  13  15
ENDBRANCH   1  13
TORSDOF 9
ENDMDL
