MODEL 1
REMARK VINA RESULT:      -9.2      0.000      0.000
REMARK  Name = 54677972
REMARK  2 active torsions:
REMARK  status: ('A' for Active; 'I' for Inactive)
REMARK    1  A    between atoms: C_7  and  C_18
REMARK    2  A    between atoms: C_8  and  O_24
REMARK                            x       y       z     vdW  Elec       q    Type
REMARK                         _______ _______ _______ _____ _____    ______ ____
ROOT
ATOM      1  S   UNL     1      37.527 -23.734 -12.282  0.00  0.00    +0.077 S 
ATOM      2  O   UNL     1      38.380 -22.601 -11.982  0.00  0.00    -0.150 OA
ATOM      3  O   UNL     1      36.969 -24.554 -11.224  0.00  0.00    -0.150 OA
ATOM      4  N   UNL     1      36.275 -23.235 -13.362  0.00  0.00    -0.181 N 
ATOM      5  C   UNL     1      38.420 -24.826 -13.329  0.00  0.00    +0.128 C 
ATOM      6  C   UNL     1      37.690 -25.559 -14.273  0.00  0.00    +0.054 C 
ATOM      7  C   UNL     1      35.546 -24.337 -13.941  0.00  0.00    +0.156 C 
ATOM      8  C   UNL     1      36.216 -25.426 -14.369  0.00  0.00    +0.154 C 
ATOM      9  C   UNL     1      39.806 -24.919 -13.213  0.00  0.00    +0.020 C 
ATOM     10  C   UNL     1      36.611 -22.140 -14.317  0.00  0.00    +0.139 C 
ATOM     11  C   UNL     1      38.408 -26.425 -15.108  0.00  0.00    +0.004 C 
ATOM     12  C   UNL     1      40.495 -25.783 -14.057  0.00  0.00    +0.001 C 
ATOM     13  C   UNL     1      39.799 -26.536 -15.002  0.00  0.00    +0.000 C 
ENDROOT
BRANCH   7  18
ATOM     14  O   UNL     1      33.366 -24.373 -13.116  0.00  0.00    -0.268 OA
ATOM     15  O   UNL     1      30.841 -22.722 -17.096  0.00  0.00    -0.357 OA
ATOM     16  N   UNL     1      33.753 -23.659 -15.327  0.00  0.00    -0.262 N 
ATOM     17  N   UNL     1      32.218 -22.898 -17.037  0.00  0.00    -0.062 NA
ATOM     18  C   UNL     1      34.100 -24.129 -14.069  0.00  0.00    +0.269 C 
ATOM     19  C   UNL     1      32.455 -23.349 -15.801  0.00  0.00    +0.176 C 
ATOM     20  C   UNL     1      31.277 -23.476 -15.044  0.00  0.00    +0.073 C 
ATOM     21  C   UNL     1      30.291 -23.069 -15.903  0.00  0.00    +0.156 C 
ATOM     22  C   UNL     1      28.834 -22.943 -15.791  0.00  0.00    +0.075 C 
ATOM     23  H   UNL     1      34.492 -23.525 -15.962  0.00  0.00    +0.157 HD
ENDBRANCH   7  18
BRANCH   8  24
ATOM     24  O   UNL     1      35.605 -26.520 -14.953  0.00  0.00    -0.504 OA
ATOM     25  H   UNL     1      34.700 -26.476 -15.194  0.00  0.00    +0.292 HD
ENDBRANCH   8  24
TORSDOF 2
ENDMDL
MODEL 2
REMARK VINA RESULT:      -9.0      9.326     11.845
REMARK  Name = 54677972
REMARK  2 active torsions:
REMARK  status: ('A' for Active; 'I' for Inactive)
REMARK    1  A    between atoms: C_7  and  C_18
REMARK    2  A    between atoms: C_8  and  O_24
REMARK                            x       y       z     vdW  Elec       q    Type
REMARK                         _______ _______ _______ _____ _____    ______ ____
ROOT
ATOM      1  S   UNL     1      33.914 -14.534 -21.743  0.00  0.00    +0.077 S 
ATOM      2  O   UNL     1      32.932 -13.590 -21.247  0.00  0.00    -0.150 OA
ATOM      3  O   UNL     1      35.333 -14.323 -21.529  0.00  0.00    -0.150 OA
ATOM      4  N   UNL     1      33.475 -16.129 -21.245  0.00  0.00    -0.181 N 
ATOM      5  C   UNL     1      33.697 -14.683 -23.480  0.00  0.00    +0.128 C 
ATOM      6  C   UNL     1      33.976 -15.925 -24.063  0.00  0.00    +0.054 C 
ATOM      7  C   UNL     1      34.222 -17.164 -21.917  0.00  0.00    +0.156 C 
ATOM      8  C   UNL     1      34.453 -17.064 -23.242  0.00  0.00    +0.154 C 
ATOM      9  C   UNL     1      33.241 -13.591 -24.218  0.00  0.00    +0.020 C 
ATOM     10  C   UNL     1      32.017 -16.408 -21.099  0.00  0.00    +0.139 C 
ATOM     11  C   UNL     1      33.798 -16.039 -25.448  0.00  0.00    +0.004 C 
ATOM     12  C   UNL     1      33.068 -13.732 -25.590  0.00  0.00    +0.001 C 
ATOM     13  C   UNL     1      33.346 -14.953 -26.205  0.00  0.00    +0.000 C 
ENDROOT
BRANCH   7  18
ATOM     14  O   UNL     1      35.728 -18.306 -20.552  0.00  0.00    -0.268 OA
ATOM     15  O   UNL     1      33.053 -22.368 -19.415  0.00  0.00    -0.357 OA
ATOM     16  N   UNL     1      33.612 -19.249 -20.980  0.00  0.00    -0.262 N 
ATOM     17  N   UNL     1      32.622 -21.324 -20.225  0.00  0.00    -0.062 NA
ATOM     18  C   UNL     1      34.616 -18.296 -21.073  0.00  0.00    +0.269 C 
ATOM     19  C   UNL     1      33.644 -20.464 -20.254  0.00  0.00    +0.176 C 
ATOM     20  C   UNL     1      34.737 -20.909 -19.490  0.00  0.00    +0.073 C 
ATOM     21  C   UNL     1      34.315 -22.109 -18.983  0.00  0.00    +0.156 C 
ATOM     22  C   UNL     1      34.929 -23.116 -18.111  0.00  0.00    +0.075 C 
ATOM     23  H   UNL     1      32.783 -19.058 -21.475  0.00  0.00    +0.157 HD
ENDBRANCH   7  18
BRANCH   8  24
ATOM     24  O   UNL     1      35.141 -18.016 -23.972  0.00  0.00    -0.504 OA
ATOM     25  H   UNL     1      35.340 -18.846 -23.587  0.00  0.00    +0.292 HD
ENDBRANCH   8  24
TORSDOF 2
ENDMDL
MODEL 3
REMARK VINA RESULT:      -8.7      1.469      1.837
REMARK  Name = 54677972
REMARK  2 active torsions:
REMARK  status: ('A' for Active; 'I' for Inactive)
REMARK    1  A    between atoms: C_7  and  C_18
REMARK    2  A    between atoms: C_8  and  O_24
REMARK                            x       y       z     vdW  Elec       q    Type
REMARK                         _______ _______ _______ _____ _____    ______ ____
ROOT
ATOM      1  S   UNL     1      37.091 -26.184 -12.874  0.00  0.00    +0.077 S 
ATOM      2  O   UNL     1      37.716 -26.437 -11.590  0.00  0.00    -0.150 OA
ATOM      3  O   UNL     1      36.503 -27.261 -13.647  0.00  0.00    -0.150 OA
ATOM      4  N   UNL     1      35.960 -24.889 -12.713  0.00  0.00    -0.181 N 
ATOM      5  C   UNL     1      38.283 -25.425 -13.918  0.00  0.00    +0.128 C 
ATOM      6  C   UNL     1      37.820 -24.501 -14.863  0.00  0.00    +0.054 C 
ATOM      7  C   UNL     1      35.496 -24.374 -13.978  0.00  0.00    +0.156 C 
ATOM      8  C   UNL     1      36.374 -24.193 -14.985  0.00  0.00    +0.154 C 
ATOM      9  C   UNL     1      39.634 -25.736 -13.770  0.00  0.00    +0.020 C 
ATOM     10  C   UNL     1      36.275 -23.846 -11.694  0.00  0.00    +0.139 C 
ATOM     11  C   UNL     1      38.774 -23.896 -15.691  0.00  0.00    +0.004 C 
ATOM     12  C   UNL     1      40.562 -25.118 -14.601  0.00  0.00    +0.001 C 
ATOM     13  C   UNL     1      40.134 -24.200 -15.560  0.00  0.00    +0.000 C 
ENDROOT
BRANCH   7  18
ATOM     14  O   UNL     1      33.407 -24.056 -12.994  0.00  0.00    -0.268 OA
ATOM     15  O   UNL     1      30.706 -22.695 -16.968  0.00  0.00    -0.357 OA
ATOM     16  N   UNL     1      33.660 -23.697 -15.308  0.00  0.00    -0.262 N 
ATOM     17  N   UNL     1      32.058 -23.013 -16.989  0.00  0.00    -0.062 NA
ATOM     18  C   UNL     1      34.072 -24.027 -14.025  0.00  0.00    +0.269 C 
ATOM     19  C   UNL     1      32.361 -23.314 -15.722  0.00  0.00    +0.176 C 
ATOM     20  C   UNL     1      31.251 -23.205 -14.867  0.00  0.00    +0.073 C 
ATOM     21  C   UNL     1      30.235 -22.813 -15.699  0.00  0.00    +0.156 C 
ATOM     22  C   UNL     1      28.814 -22.512 -15.496  0.00  0.00    +0.075 C 
ATOM     23  H   UNL     1      34.348 -23.734 -16.010  0.00  0.00    +0.157 HD
ENDBRANCH   7  18
BRANCH   8  24
ATOM     24  O   UNL     1      36.024 -23.687 -16.223  0.00  0.00    -0.504 OA
ATOM     25  H   UNL     1      35.854 -24.271 -16.935  0.00  0.00    +0.292 HD
ENDBRANCH   8  24
TORSDOF 2
ENDMDL
MODEL 4
REMARK VINA RESULT:      -8.3      1.966      2.711
REMARK  Name = 54677972
REMARK  2 active torsions:
REMARK  status: ('A' for Active; 'I' for Inactive)
REMARK    1  A    between atoms: C_7  and  C_18
REMARK    2  A    between atoms: C_8  and  O_24
REMARK                            x       y       z     vdW  Elec       q    Type
REMARK                         _______ _______ _______ _____ _____    ______ ____
ROOT
ATOM      1  S   UNL     1      36.171 -22.814 -15.626  0.00  0.00    +0.077 S 
ATOM      2  O   UNL     1      36.820 -22.807 -16.922  0.00  0.00    -0.150 OA
ATOM      3  O   UNL     1      36.102 -21.614 -14.815  0.00  0.00    -0.150 OA
ATOM      4  N   UNL     1      34.598 -23.512 -15.779  0.00  0.00    -0.181 N 
ATOM      5  C   UNL     1      36.954 -24.033 -14.632  0.00  0.00    +0.128 C 
ATOM      6  C   UNL     1      36.163 -24.706 -13.692  0.00  0.00    +0.054 C 
ATOM      7  C   UNL     1      33.984 -23.822 -14.511  0.00  0.00    +0.156 C 
ATOM      8  C   UNL     1      34.724 -24.385 -13.534  0.00  0.00    +0.154 C 
ATOM      9  C   UNL     1      38.307 -24.311 -14.814  0.00  0.00    +0.020 C 
ATOM     10  C   UNL     1      34.429 -24.560 -16.826  0.00  0.00    +0.139 C 
ATOM     11  C   UNL     1      36.792 -25.680 -12.904  0.00  0.00    +0.004 C 
ATOM     12  C   UNL     1      38.906 -25.286 -14.022  0.00  0.00    +0.001 C 
ATOM     13  C   UNL     1      38.151 -25.969 -13.069  0.00  0.00    +0.000 C 
ENDROOT
BRANCH   7  18
ATOM     14  O   UNL     1      31.969 -23.655 -13.352  0.00  0.00    -0.268 OA
ATOM     15  O   UNL     1      28.901 -22.231 -17.026  0.00  0.00    -0.357 OA
ATOM     16  N   UNL     1      32.020 -23.170 -15.656  0.00  0.00    -0.262 N 
ATOM     17  N   UNL     1      30.260 -22.481 -17.168  0.00  0.00    -0.062 NA
ATOM     18  C   UNL     1      32.547 -23.543 -14.429  0.00  0.00    +0.269 C 
ATOM     19  C   UNL     1      30.676 -22.829 -15.947  0.00  0.00    +0.176 C 
ATOM     20  C   UNL     1      29.634 -22.818 -15.004  0.00  0.00    +0.073 C 
ATOM     21  C   UNL     1      28.539 -22.435 -15.733  0.00  0.00    +0.156 C 
ATOM     22  C   UNL     1      27.126 -22.214 -15.404  0.00  0.00    +0.075 C 
ATOM     23  H   UNL     1      32.651 -23.138 -16.410  0.00  0.00    +0.157 HD
ENDBRANCH   7  18
BRANCH   8  24
ATOM     24  O   UNL     1      34.217 -24.735 -12.296  0.00  0.00    -0.504 OA
ATOM     25  H   UNL     1      33.758 -24.100 -11.783  0.00  0.00    +0.292 HD
ENDBRANCH   8  24
TORSDOF 2
ENDMDL
MODEL 5
REMARK VINA RESULT:      -8.1     14.754     17.319
REMARK  Name = 54677972
REMARK  2 active torsions:
REMARK  status: ('A' for Active; 'I' for Inactive)
REMARK    1  A    between atoms: C_7  and  C_18
REMARK    2  A    between atoms: C_8  and  O_24
REMARK                            x       y       z     vdW  Elec       q    Type
REMARK                         _______ _______ _______ _____ _____    ______ ____
ROOT
ATOM      1  S   UNL     1      32.503  -7.859 -24.031  0.00  0.00    +0.077 S 
ATOM      2  O   UNL     1      33.219  -6.695 -24.514  0.00  0.00    -0.150 OA
ATOM      3  O   UNL     1      31.190  -8.199 -24.546  0.00  0.00    -0.150 OA
ATOM      4  N   UNL     1      33.540  -9.239 -24.104  0.00  0.00    -0.181 N 
ATOM      5  C   UNL     1      32.320  -7.703 -22.290  0.00  0.00    +0.128 C 
ATOM      6  C   UNL     1      32.320  -8.880 -21.532  0.00  0.00    +0.054 C 
ATOM      7  C   UNL     1      33.023 -10.381 -23.390  0.00  0.00    +0.156 C 
ATOM      8  C   UNL     1      32.453 -10.207 -22.180  0.00  0.00    +0.154 C 
ATOM      9  C   UNL     1      32.204  -6.438 -21.716  0.00  0.00    +0.020 C 
ATOM     10  C   UNL     1      34.998  -8.992 -23.913  0.00  0.00    +0.139 C 
ATOM     11  C   UNL     1      32.178  -8.749 -20.144  0.00  0.00    +0.004 C 
ATOM     12  C   UNL     1      32.069  -6.336 -20.336  0.00  0.00    +0.001 C 
ATOM     13  C   UNL     1      32.055  -7.488 -19.551  0.00  0.00    +0.000 C 
ENDROOT
BRANCH   7  18
ATOM     14  O   UNL     1      33.186 -11.748 -25.271  0.00  0.00    -0.268 OA
ATOM     15  O   UNL     1      34.138 -16.160 -23.132  0.00  0.00    -0.357 OA
ATOM     16  N   UNL     1      33.477 -12.688 -23.131  0.00  0.00    -0.262 N 
ATOM     17  N   UNL     1      33.946 -14.964 -22.452  0.00  0.00    -0.062 NA
ATOM     18  C   UNL     1      33.235 -11.675 -24.046  0.00  0.00    +0.269 C 
ATOM     19  C   UNL     1      33.723 -14.055 -23.406  0.00  0.00    +0.176 C 
ATOM     20  C   UNL     1      33.761 -14.615 -24.695  0.00  0.00    +0.073 C 
ATOM     21  C   UNL     1      34.026 -15.940 -24.468  0.00  0.00    +0.156 C 
ATOM     22  C   UNL     1      34.202 -17.105 -25.342  0.00  0.00    +0.075 C 
ATOM     23  H   UNL     1      33.477 -12.428 -22.182  0.00  0.00    +0.157 HD
ENDBRANCH   7  18
BRANCH   8  24
ATOM     24  O   UNL     1      31.949 -11.243 -21.416  0.00  0.00    -0.504 OA
ATOM     25  H   UNL     1      31.337 -11.064 -20.731  0.00  0.00    +0.292 HD
ENDBRANCH   8  24
TORSDOF 2
ENDMDL
MODEL 6
REMARK VINA RESULT:      -8.1     12.493     14.432
REMARK  Name = 54677972
REMARK  2 active torsions:
REMARK  status: ('A' for Active; 'I' for Inactive)
REMARK    1  A    between atoms: C_7  and  C_18
REMARK    2  A    between atoms: C_8  and  O_24
REMARK                            x       y       z     vdW  Elec       q    Type
REMARK                         _______ _______ _______ _____ _____    ______ ____
ROOT
ATOM      1  S   UNL     1      33.425 -15.955 -21.158  0.00  0.00    +0.077 S 
ATOM      2  O   UNL     1      34.319 -16.429 -20.119  0.00  0.00    -0.150 OA
ATOM      3  O   UNL     1      32.004 -16.241 -21.113  0.00  0.00    -0.150 OA
ATOM      4  N   UNL     1      33.678 -14.264 -21.400  0.00  0.00    -0.181 N 
ATOM      5  C   UNL     1      34.002 -16.576 -22.697  0.00  0.00    +0.128 C 
ATOM      6  C   UNL     1      33.799 -15.781 -23.832  0.00  0.00    +0.054 C 
ATOM      7  C   UNL     1      33.047 -13.756 -22.594  0.00  0.00    +0.156 C 
ATOM      8  C   UNL     1      33.109 -14.473 -23.735  0.00  0.00    +0.154 C 
ATOM      9  C   UNL     1      34.652 -17.809 -22.748  0.00  0.00    +0.020 C 
ATOM     10  C   UNL     1      35.058 -13.751 -21.158  0.00  0.00    +0.139 C 
ATOM     11  C   UNL     1      34.264 -16.280 -25.056  0.00  0.00    +0.004 C 
ATOM     12  C   UNL     1      35.107 -18.278 -23.975  0.00  0.00    +0.001 C 
ATOM     13  C   UNL     1      34.914 -17.517 -25.127  0.00  0.00    +0.000 C 
ENDROOT
BRANCH   7  18
ATOM     14  O   UNL     1      31.430 -12.296 -21.765  0.00  0.00    -0.268 OA
ATOM     15  O   UNL     1      32.907  -8.000 -23.840  0.00  0.00    -0.357 OA
ATOM     16  N   UNL     1      33.119 -11.466 -23.181  0.00  0.00    -0.262 N 
ATOM     17  N   UNL     1      33.535  -9.229 -24.006  0.00  0.00    -0.062 NA
ATOM     18  C   UNL     1      32.433 -12.432 -22.460  0.00  0.00    +0.269 C 
ATOM     19  C   UNL     1      32.811 -10.087 -23.281  0.00  0.00    +0.176 C 
ATOM     20  C   UNL     1      31.725  -9.463 -22.642  0.00  0.00    +0.073 C 
ATOM     21  C   UNL     1      31.831  -8.152 -23.025  0.00  0.00    +0.156 C 
ATOM     22  C   UNL     1      31.047  -6.945 -22.741  0.00  0.00    +0.075 C 
ATOM     23  H   UNL     1      33.908 -11.774 -23.681  0.00  0.00    +0.157 HD
ENDBRANCH   7  18
BRANCH   8  24
ATOM     24  O   UNL     1      32.552 -14.057 -24.930  0.00  0.00    -0.504 OA
ATOM     25  H   UNL     1      31.647 -14.224 -25.107  0.00  0.00    +0.292 HD
ENDBRANCH   8  24
TORSDOF 2
ENDMDL
MODEL 7
REMARK VINA RESULT:      -8.0     16.330     18.739
REMARK  Name = 54677972
REMARK  2 active torsions:
REMARK  status: ('A' for Active; 'I' for Inactive)
REMARK    1  A    between atoms: C_7  and  C_18
REMARK    2  A    between atoms: C_8  and  O_24
REMARK                            x       y       z     vdW  Elec       q    Type
REMARK                         _______ _______ _______ _____ _____    ______ ____
ROOT
ATOM      1  S   UNL     1      31.381  -6.158 -22.666  0.00  0.00    +0.077 S 
ATOM      2  O   UNL     1      30.128  -5.485 -22.945  0.00  0.00    -0.150 OA
ATOM      3  O   UNL     1      32.137  -5.868 -21.463  0.00  0.00    -0.150 OA
ATOM      4  N   UNL     1      31.160  -7.864 -22.826  0.00  0.00    -0.181 N 
ATOM      5  C   UNL     1      32.470  -5.861 -24.013  0.00  0.00    +0.128 C 
ATOM      6  C   UNL     1      33.386  -6.869 -24.338  0.00  0.00    +0.054 C 
ATOM      7  C   UNL     1      32.400  -8.602 -22.847  0.00  0.00    +0.156 C 
ATOM      8  C   UNL     1      33.443  -8.130 -23.561  0.00  0.00    +0.154 C 
ATOM      9  C   UNL     1      32.383  -4.665 -24.724  0.00  0.00    +0.020 C 
ATOM     10  C   UNL     1      30.148  -8.319 -23.822  0.00  0.00    +0.139 C 
ATOM     11  C   UNL     1      34.250  -6.628 -25.415  0.00  0.00    +0.004 C 
ATOM     12  C   UNL     1      33.249  -4.453 -25.792  0.00  0.00    +0.001 C 
ATOM     13  C   UNL     1      34.181  -5.431 -26.137  0.00  0.00    +0.000 C 
ENDROOT
BRANCH   7  18
ATOM     14  O   UNL     1      32.260  -9.864 -20.892  0.00  0.00    -0.268 OA
ATOM     15  O   UNL     1      32.648 -14.486 -22.743  0.00  0.00    -0.357 OA
ATOM     16  N   UNL     1      32.515 -10.962 -22.960  0.00  0.00    -0.262 N 
ATOM     17  N   UNL     1      32.671 -13.317 -23.494  0.00  0.00    -0.062 NA
ATOM     18  C   UNL     1      32.382  -9.871 -22.114  0.00  0.00    +0.269 C 
ATOM     19  C   UNL     1      32.539 -12.331 -22.602  0.00  0.00    +0.176 C 
ATOM     20  C   UNL     1      32.429 -12.813 -21.285  0.00  0.00    +0.073 C 
ATOM     21  C   UNL     1      32.503 -14.174 -21.429  0.00  0.00    +0.156 C 
ATOM     22  C   UNL     1      32.458 -15.299 -20.488  0.00  0.00    +0.075 C 
ATOM     23  H   UNL     1      32.602 -10.761 -23.919  0.00  0.00    +0.157 HD
ENDBRANCH   7  18
BRANCH   8  24
ATOM     24  O   UNL     1      34.660  -8.778 -23.655  0.00  0.00    -0.504 OA
ATOM     25  H   UNL     1      35.153  -8.963 -22.880  0.00  0.00    +0.292 HD
ENDBRANCH   8  24
TORSDOF 2
ENDMDL
MODEL 8
REMARK VINA RESULT:      -7.9      3.452      4.403
REMARK  Name = 54677972
REMARK  2 active torsions:
REMARK  status: ('A' for Active; 'I' for Inactive)
REMARK    1  A    between atoms: C_7  and  C_18
REMARK    2  A    between atoms: C_8  and  O_24
REMARK                            x       y       z     vdW  Elec       q    Type
REMARK                         _______ _______ _______ _____ _____    ______ ____
ROOT
ATOM      1  S   UNL     1      35.060 -25.102 -14.948  0.00  0.00    +0.077 S 
ATOM      2  O   UNL     1      33.944 -25.325 -14.049  0.00  0.00    -0.150 OA
ATOM      3  O   UNL     1      35.323 -26.003 -16.054  0.00  0.00    -0.150 OA
ATOM      4  N   UNL     1      35.022 -23.471 -15.513  0.00  0.00    -0.181 N 
ATOM      5  C   UNL     1      36.532 -25.062 -13.988  0.00  0.00    +0.128 C 
ATOM      6  C   UNL     1      37.568 -24.228 -14.429  0.00  0.00    +0.054 C 
ATOM      7  C   UNL     1      36.234 -23.069 -16.182  0.00  0.00    +0.156 C 
ATOM      8  C   UNL     1      37.428 -23.426 -15.668  0.00  0.00    +0.154 C 
ATOM      9  C   UNL     1      36.623 -25.826 -12.826  0.00  0.00    +0.020 C 
ATOM     10  C   UNL     1      34.457 -22.452 -14.581  0.00  0.00    +0.139 C 
ATOM     11  C   UNL     1      38.738 -24.197 -13.658  0.00  0.00    +0.004 C 
ATOM     12  C   UNL     1      37.794 -25.773 -12.077  0.00  0.00    +0.001 C 
ATOM     13  C   UNL     1      38.849 -24.962 -12.492  0.00  0.00    +0.000 C 
ENDROOT
BRANCH   7  18
ATOM     14  O   UNL     1      36.970 -21.533 -17.774  0.00  0.00    -0.268 OA
ATOM     15  O   UNL     1      32.852 -21.033 -20.555  0.00  0.00    -0.357 OA
ATOM     16  N   UNL     1      34.761 -22.341 -17.884  0.00  0.00    -0.262 N 
ATOM     17  N   UNL     1      32.972 -21.853 -19.440  0.00  0.00    -0.062 NA
ATOM     18  C   UNL     1      36.042 -22.225 -17.366  0.00  0.00    +0.269 C 
ATOM     19  C   UNL     1      34.226 -21.677 -19.015  0.00  0.00    +0.176 C 
ATOM     20  C   UNL     1      34.938 -20.765 -19.815  0.00  0.00    +0.073 C 
ATOM     21  C   UNL     1      34.029 -20.390 -20.769  0.00  0.00    +0.156 C 
ATOM     22  C   UNL     1      34.080 -19.477 -21.916  0.00  0.00    +0.075 C 
ATOM     23  H   UNL     1      34.153 -22.954 -17.411  0.00  0.00    +0.157 HD
ENDBRANCH   7  18
BRANCH   8  24
ATOM     24  O   UNL     1      38.641 -23.070 -16.229  0.00  0.00    -0.504 OA
ATOM     25  H   UNL     1      39.012 -22.230 -16.045  0.00  0.00    +0.292 HD
ENDBRANCH   8  24
TORSDOF 2
ENDMDL
MODEL 9
REMARK VINA RESULT:      -7.8      9.674     11.658
REMARK  Name = 54677972
REMARK  2 active torsions:
REMARK  status: ('A' for Active; 'I' for Inactive)
REMARK    1  A    between atoms: C_7  and  C_18
REMARK    2  A    between atoms: C_8  and  O_24
REMARK                            x       y       z     vdW  Elec       q    Type
REMARK                         _______ _______ _______ _____ _____    ______ ____
ROOT
ATOM      1  S   UNL     1      35.726 -17.818 -21.352  0.00  0.00    +0.077 S 
ATOM      2  O   UNL     1      36.816 -18.477 -22.045  0.00  0.00    -0.150 OA
ATOM      3  O   UNL     1      35.967 -17.010 -20.171  0.00  0.00    -0.150 OA
ATOM      4  N   UNL     1      34.780 -16.929 -22.491  0.00  0.00    -0.181 N 
ATOM      5  C   UNL     1      34.563 -19.046 -20.876  0.00  0.00    +0.128 C 
ATOM      6  C   UNL     1      33.212 -18.679 -20.844  0.00  0.00    +0.054 C 
ATOM      7  C   UNL     1      33.520 -16.472 -21.955  0.00  0.00    +0.156 C 
ATOM      8  C   UNL     1      32.787 -17.300 -21.183  0.00  0.00    +0.154 C 
ATOM      9  C   UNL     1      35.000 -20.334 -20.570  0.00  0.00    +0.020 C 
ATOM     10  C   UNL     1      34.705 -17.479 -23.875  0.00  0.00    +0.139 C 
ATOM     11  C   UNL     1      32.288 -19.663 -20.468  0.00  0.00    +0.004 C 
ATOM     12  C   UNL     1      34.062 -21.293 -20.204  0.00  0.00    +0.001 C 
ATOM     13  C   UNL     1      32.709 -20.960 -20.152  0.00  0.00    +0.000 C 
ENDROOT
BRANCH   7  18
ATOM     14  O   UNL     1      33.190 -14.810 -23.556  0.00  0.00    -0.268 OA
ATOM     15  O   UNL     1      31.469 -11.096 -20.695  0.00  0.00    -0.357 OA
ATOM     16  N   UNL     1      32.689 -14.357 -21.299  0.00  0.00    -0.262 N 
ATOM     17  N   UNL     1      31.835 -12.356 -20.238  0.00  0.00    -0.062 NA
ATOM     18  C   UNL     1      33.118 -15.125 -22.371  0.00  0.00    +0.269 C 
ATOM     19  C   UNL     1      32.230 -13.017 -21.330  0.00  0.00    +0.176 C 
ATOM     20  C   UNL     1      32.137 -12.233 -22.493  0.00  0.00    +0.073 C 
ATOM     21  C   UNL     1      31.653 -11.034 -22.039  0.00  0.00    +0.156 C 
ATOM     22  C   UNL     1      31.313  -9.764 -22.690  0.00  0.00    +0.075 C 
ATOM     23  H   UNL     1      32.705 -14.792 -20.417  0.00  0.00    +0.157 HD
ENDBRANCH   7  18
BRANCH   8  24
ATOM     24  O   UNL     1      31.561 -16.956 -20.644  0.00  0.00    -0.504 OA
ATOM     25  H   UNL     1      31.411 -16.081 -20.343  0.00  0.00    +0.292 HD
ENDBRANCH   8  24
TORSDOF 2
ENDMDL
