MODEL 1
REMARK VINA RESULT:     -12.3      0.000      0.000
REMARK  Name = 6918314
REMARK  8 active torsions:
REMARK  status: ('A' for Active; 'I' for Inactive)
REMARK    1  A    between atoms: N_1  and  C_22
REMARK    2  A    between atoms: N_2  and  C_9
REMARK    3  A    between atoms: C_16  and  C_19
REMARK    4  A    between atoms: C_22  and  C_23
REMARK    5  A    between atoms: C_23  and  C_24
REMARK    6  A    between atoms: C_24  and  C_25
REMARK    7  A    between atoms: C_25  and  C_27
REMARK    8  A    between atoms: C_33  and  C_37
REMARK                            x       y       z     vdW  Elec       q    Type
REMARK                         _______ _______ _______ _____ _____    ______ ____
ROOT
ATOM      1  N   UNL     1      36.088 -20.713 -19.232  0.00  0.00    +0.389 N 
ATOM      2  N   UNL     1      35.315 -19.323 -21.603  0.00  0.00    -0.312 N 
ATOM      3  C   UNL     1      37.102 -20.274 -20.198  0.00  0.00    -0.055 C 
ATOM      4  C   UNL     1      34.851 -21.073 -19.933  0.00  0.00    -0.055 C 
ATOM      5  C   UNL     1      36.619 -19.054 -20.985  0.00  0.00    +0.068 C 
ATOM      6  C   UNL     1      34.293 -19.880 -20.712  0.00  0.00    +0.068 C 
ATOM      7  H   UNL     1      35.890 -19.944 -18.590  0.00  0.00    -0.080 HD
ENDROOT
BRANCH   2   9
ATOM      8  O   UNL     1      33.779 -16.099 -25.822  0.00  0.00    -0.449 OA
ATOM      9  C   UNL     1      34.930 -18.536 -22.696  0.00  0.00    +0.048 C 
ATOM     10  C   UNL     1      34.589 -17.173 -22.515  0.00  0.00    +0.018 C 
ATOM     11  C   UNL     1      34.874 -19.088 -23.995  0.00  0.00    +0.018 C 
ATOM     12  C   UNL     1      34.205 -16.397 -23.623  0.00  0.00    +0.039 C 
ATOM     13  C   UNL     1      34.171 -16.999 -24.876  0.00  0.00    +0.146 C 
ATOM     14  C   UNL     1      34.496 -18.334 -25.111  0.00  0.00    +0.039 C 
ATOM     15  C   UNL     1      33.808 -15.050 -23.831  0.00  0.00    +0.045 C 
ATOM     16  C   UNL     1      33.562 -14.922 -25.178  0.00  0.00    +0.198 C 
BRANCH  16  19
ATOM     17  O   UNL     1      33.618 -12.648 -25.869  0.00  0.00    -0.267 OA
ATOM     18  N   UNL     1      32.094 -13.996 -26.876  0.00  0.00    -0.323 N 
ATOM     19  C   UNL     1      33.138 -13.807 -25.955  0.00  0.00    +0.277 C 
ATOM     20  H   UNL     1      31.781 -13.242 -27.426  0.00  0.00    +0.145 HD
ATOM     21  H   UNL     1      31.675 -14.881 -26.970  0.00  0.00    +0.145 HD
ENDBRANCH  16  19
ENDBRANCH   2   9
BRANCH   1  22
ATOM     22  C   UNL     1      36.583 -21.845 -18.448  0.00  0.00    -0.077 C 
BRANCH  22  23
ATOM     23  C   UNL     1      36.870 -21.411 -17.012  0.00  0.00    -0.022 C 
BRANCH  23  24
ATOM     24  C   UNL     1      36.298 -22.412 -16.007  0.00  0.00    +0.003 C 
BRANCH  24  25
ATOM     25  C   UNL     1      34.982 -23.015 -16.507  0.00  0.00    +0.028 C 
BRANCH  25  27
ATOM     26  N   UNL     1      33.669 -24.716 -13.555  0.00  0.00    -0.312 N 
ATOM     27  C   UNL     1      34.186 -23.641 -15.402  0.00  0.00    -0.006 C 
ATOM     28  C   UNL     1      32.779 -23.649 -15.301  0.00  0.00    +0.011 C 
ATOM     29  C   UNL     1      34.716 -24.295 -14.330  0.00  0.00    +0.058 C 
ATOM     30  C   UNL     1      32.474 -24.335 -14.124  0.00  0.00    +0.048 C 
ATOM     31  C   UNL     1      31.723 -23.145 -16.086  0.00  0.00    +0.011 C 
ATOM     32  C   UNL     1      31.160 -24.544 -13.691  0.00  0.00    +0.015 C 
ATOM     33  C   UNL     1      30.403 -23.347 -15.665  0.00  0.00    +0.069 C 
ATOM     34  C   UNL     1      30.128 -24.035 -14.486  0.00  0.00    +0.012 C 
ATOM     35  H   UNL     1      33.757 -25.218 -12.713  0.00  0.00    +0.152 HD
BRANCH  33  37
ATOM     36  N   UNL     1      28.452 -22.426 -17.101  0.00  0.00    -0.191 NA
ATOM     37  C   UNL     1      29.326 -22.839 -16.457  0.00  0.00    +0.100 C 
ENDBRANCH  33  37
ENDBRANCH  25  27
ENDBRANCH  24  25
ENDBRANCH  23  24
ENDBRANCH  22  23
ENDBRANCH   1  22
TORSDOF 8
ENDMDL
MODEL 2
REMARK VINA RESULT:     -12.1      1.970      2.475
REMARK  Name = 6918314
REMARK  8 active torsions:
REMARK  status: ('A' for Active; 'I' for Inactive)
REMARK    1  A    between atoms: N_1  and  C_22
REMARK    2  A    between atoms: N_2  and  C_9
REMARK    3  A    between atoms: C_16  and  C_19
REMARK    4  A    between atoms: C_22  and  C_23
REMARK    5  A    between atoms: C_23  and  C_24
REMARK    6  A    between atoms: C_24  and  C_25
REMARK    7  A    between atoms: C_25  and  C_27
REMARK    8  A    between atoms: C_33  and  C_37
REMARK                            x       y       z     vdW  Elec       q    Type
REMARK                         _______ _______ _______ _____ _____    ______ ____
ROOT
ATOM      1  N   UNL     1      35.609 -20.916 -20.545  0.00  0.00    +0.389 N 
ATOM      2  N   UNL     1      34.856 -18.260 -21.274  0.00  0.00    -0.312 N 
ATOM      3  C   UNL     1      34.221 -20.468 -20.383  0.00  0.00    -0.055 C 
ATOM      4  C   UNL     1      36.526 -19.795 -20.314  0.00  0.00    -0.055 C 
ATOM      5  C   UNL     1      33.884 -19.355 -21.378  0.00  0.00    +0.068 C 
ATOM      6  C   UNL     1      36.267 -18.658 -21.305  0.00  0.00    +0.068 C 
ATOM      7  H   UNL     1      35.737 -21.255 -21.498  0.00  0.00    -0.080 HD
ENDROOT
BRANCH   2   9
ATOM      8  O   UNL     1      33.279 -13.265 -23.036  0.00  0.00    -0.449 OA
ATOM      9  C   UNL     1      34.479 -16.999 -21.751  0.00  0.00    +0.048 C 
ATOM     10  C   UNL     1      33.557 -16.203 -21.028  0.00  0.00    +0.018 C 
ATOM     11  C   UNL     1      35.010 -16.499 -22.961  0.00  0.00    +0.018 C 
ATOM     12  C   UNL     1      33.189 -14.938 -21.521  0.00  0.00    +0.039 C 
ATOM     13  C   UNL     1      33.749 -14.504 -22.718  0.00  0.00    +0.146 C 
ATOM     14  C   UNL     1      34.659 -15.244 -23.470  0.00  0.00    +0.039 C 
ATOM     15  C   UNL     1      32.330 -13.892 -21.094  0.00  0.00    +0.045 C 
ATOM     16  C   UNL     1      32.420 -12.903 -22.046  0.00  0.00    +0.198 C 
BRANCH  16  19
ATOM     17  O   UNL     1      32.304 -10.612 -22.667  0.00  0.00    -0.267 OA
ATOM     18  N   UNL     1      30.497 -11.487 -21.608  0.00  0.00    -0.323 N 
ATOM     19  C   UNL     1      31.787 -11.633 -22.146  0.00  0.00    +0.277 C 
ATOM     20  H   UNL     1      30.036 -10.619 -21.664  0.00  0.00    +0.145 HD
ATOM     21  H   UNL     1      30.055 -12.253 -21.176  0.00  0.00    +0.145 HD
ENDBRANCH  16  19
ENDBRANCH   2   9
BRANCH   1  22
ATOM     22  C   UNL     1      35.903 -22.017 -19.627  0.00  0.00    -0.077 C 
BRANCH  22  23
ATOM     23  C   UNL     1      36.485 -21.478 -18.321  0.00  0.00    -0.022 C 
BRANCH  23  24
ATOM     24  C   UNL     1      35.958 -22.261 -17.117  0.00  0.00    +0.003 C 
BRANCH  24  25
ATOM     25  C   UNL     1      34.565 -22.835 -17.390  0.00  0.00    +0.028 C 
BRANCH  25  27
ATOM     26  N   UNL     1      33.744 -24.558 -14.277  0.00  0.00    -0.312 N 
ATOM     27  C   UNL     1      33.958 -23.462 -16.170  0.00  0.00    -0.006 C 
ATOM     28  C   UNL     1      32.591 -23.438 -15.824  0.00  0.00    +0.011 C 
ATOM     29  C   UNL     1      34.650 -24.148 -15.218  0.00  0.00    +0.058 C 
ATOM     30  C   UNL     1      32.479 -24.138 -14.621  0.00  0.00    +0.048 C 
ATOM     31  C   UNL     1      31.428 -22.894 -16.404  0.00  0.00    +0.011 C 
ATOM     32  C   UNL     1      31.256 -24.323 -13.967  0.00  0.00    +0.015 C 
ATOM     33  C   UNL     1      30.198 -23.071 -15.760  0.00  0.00    +0.069 C 
ATOM     34  C   UNL     1      30.115 -23.774 -14.561  0.00  0.00    +0.012 C 
ATOM     35  H   UNL     1      33.965 -25.078 -13.470  0.00  0.00    +0.152 HD
BRANCH  33  37
ATOM     36  N   UNL     1      28.050 -22.077 -16.817  0.00  0.00    -0.191 NA
ATOM     37  C   UNL     1      29.012 -22.523 -16.344  0.00  0.00    +0.100 C 
ENDBRANCH  33  37
ENDBRANCH  25  27
ENDBRANCH  24  25
ENDBRANCH  23  24
ENDBRANCH  22  23
ENDBRANCH   1  22
TORSDOF 8
ENDMDL
MODEL 3
REMARK VINA RESULT:     -12.0      2.547      4.491
REMARK  Name = 6918314
REMARK  8 active torsions:
REMARK  status: ('A' for Active; 'I' for Inactive)
REMARK    1  A    between atoms: N_1  and  C_22
REMARK    2  A    between atoms: N_2  and  C_9
REMARK    3  A    between atoms: C_16  and  C_19
REMARK    4  A    between atoms: C_22  and  C_23
REMARK    5  A    between atoms: C_23  and  C_24
REMARK    6  A    between atoms: C_24  and  C_25
REMARK    7  A    between atoms: C_25  and  C_27
REMARK    8  A    between atoms: C_33  and  C_37
REMARK                            x       y       z     vdW  Elec       q    Type
REMARK                         _______ _______ _______ _____ _____    ______ ____
ROOT
ATOM      1  N   UNL     1      34.845 -21.525 -19.834  0.00  0.00    +0.389 N 
ATOM      2  N   UNL     1      34.683 -19.009 -21.175  0.00  0.00    -0.312 N 
ATOM      3  C   UNL     1      33.599 -20.751 -19.810  0.00  0.00    -0.055 C 
ATOM      4  C   UNL     1      35.997 -20.617 -19.850  0.00  0.00    -0.055 C 
ATOM      5  C   UNL     1      33.488 -19.851 -21.043  0.00  0.00    +0.068 C 
ATOM      6  C   UNL     1      35.967 -19.711 -21.083  0.00  0.00    +0.068 C 
ATOM      7  H   UNL     1      34.864 -22.095 -20.680  0.00  0.00    -0.080 HD
ENDROOT
BRANCH   2   9
ATOM      8  O   UNL     1      34.232 -14.323 -24.070  0.00  0.00    -0.449 OA
ATOM      9  C   UNL     1      34.583 -17.840 -21.939  0.00  0.00    +0.048 C 
ATOM     10  C   UNL     1      34.076 -16.648 -21.366  0.00  0.00    +0.018 C 
ATOM     11  C   UNL     1      34.984 -17.830 -23.294  0.00  0.00    +0.018 C 
ATOM     12  C   UNL     1      33.982 -15.483 -22.147  0.00  0.00    +0.039 C 
ATOM     13  C   UNL     1      34.395 -15.538 -23.475  0.00  0.00    +0.146 C 
ATOM     14  C   UNL     1      34.900 -16.683 -24.089  0.00  0.00    +0.039 C 
ATOM     15  C   UNL     1      33.545 -14.150 -21.935  0.00  0.00    +0.045 C 
ATOM     16  C   UNL     1      33.717 -13.489 -23.129  0.00  0.00    +0.198 C 
BRANCH  16  19
ATOM     17  O   UNL     1      32.549 -11.423 -23.009  0.00  0.00    -0.267 OA
ATOM     18  N   UNL     1      34.233 -11.570 -24.524  0.00  0.00    -0.323 N 
ATOM     19  C   UNL     1      33.451 -12.143 -23.507  0.00  0.00    +0.277 C 
ATOM     20  H   UNL     1      34.070 -10.641 -24.805  0.00  0.00    +0.145 HD
ATOM     21  H   UNL     1      34.942 -12.098 -24.956  0.00  0.00    +0.145 HD
ENDBRANCH  16  19
ENDBRANCH   2   9
BRANCH   1  22
ATOM     22  C   UNL     1      34.914 -22.421 -18.680  0.00  0.00    -0.077 C 
BRANCH  22  23
ATOM     23  C   UNL     1      33.510 -22.727 -18.160  0.00  0.00    -0.022 C 
BRANCH  23  24
ATOM     24  C   UNL     1      33.554 -23.247 -16.722  0.00  0.00    +0.003 C 
BRANCH  24  25
ATOM     25  C   UNL     1      34.949 -23.083 -16.112  0.00  0.00    +0.028 C 
BRANCH  25  27
ATOM     26  N   UNL     1      34.613 -24.696 -12.853  0.00  0.00    -0.312 N 
ATOM     27  C   UNL     1      35.090 -23.809 -14.808  0.00  0.00    -0.006 C 
ATOM     28  C   UNL     1      36.268 -24.412 -14.323  0.00  0.00    +0.011 C 
ATOM     29  C   UNL     1      34.087 -23.990 -13.902  0.00  0.00    +0.058 C 
ATOM     30  C   UNL     1      35.944 -24.969 -13.083  0.00  0.00    +0.048 C 
ATOM     31  C   UNL     1      37.586 -24.549 -14.803  0.00  0.00    +0.011 C 
ATOM     32  C   UNL     1      36.874 -25.656 -12.297  0.00  0.00    +0.015 C 
ATOM     33  C   UNL     1      38.528 -25.235 -14.027  0.00  0.00    +0.069 C 
ATOM     34  C   UNL     1      38.176 -25.779 -12.794  0.00  0.00    +0.012 C 
ATOM     35  H   UNL     1      34.113 -24.971 -12.051  0.00  0.00    +0.152 HD
BRANCH  33  37
ATOM     36  N   UNL     1      40.954 -25.492 -14.898  0.00  0.00    -0.191 NA
ATOM     37  C   UNL     1      39.867 -25.377 -14.507  0.00  0.00    +0.100 C 
ENDBRANCH  33  37
ENDBRANCH  25  27
ENDBRANCH  24  25
ENDBRANCH  23  24
ENDBRANCH  22  23
ENDBRANCH   1  22
TORSDOF 8
ENDMDL
MODEL 4
REMARK VINA RESULT:     -11.9      2.276      4.138
REMARK  Name = 6918314
REMARK  8 active torsions:
REMARK  status: ('A' for Active; 'I' for Inactive)
REMARK    1  A    between atoms: N_1  and  C_22
REMARK    2  A    between atoms: N_2  and  C_9
REMARK    3  A    between atoms: C_16  and  C_19
REMARK    4  A    between atoms: C_22  and  C_23
REMARK    5  A    between atoms: C_23  and  C_24
REMARK    6  A    between atoms: C_24  and  C_25
REMARK    7  A    between atoms: C_25  and  C_27
REMARK    8  A    between atoms: C_33  and  C_37
REMARK                            x       y       z     vdW  Elec       q    Type
REMARK                         _______ _______ _______ _____ _____    ______ ____
ROOT
ATOM      1  N   UNL     1      35.819 -20.528 -19.426  0.00  0.00    +0.389 N 
ATOM      2  N   UNL     1      35.152 -19.092 -21.802  0.00  0.00    -0.312 N 
ATOM      3  C   UNL     1      36.874 -20.077 -20.340  0.00  0.00    -0.055 C 
ATOM      4  C   UNL     1      34.611 -20.870 -20.185  0.00  0.00    -0.055 C 
ATOM      5  C   UNL     1      36.429 -18.840 -21.124  0.00  0.00    +0.068 C 
ATOM      6  C   UNL     1      34.091 -19.660 -20.965  0.00  0.00    +0.068 C 
ATOM      7  H   UNL     1      35.597 -19.771 -18.779  0.00  0.00    -0.080 HD
ENDROOT
BRANCH   2   9
ATOM      8  O   UNL     1      33.827 -15.781 -26.024  0.00  0.00    -0.449 OA
ATOM      9  C   UNL     1      34.817 -18.284 -22.895  0.00  0.00    +0.048 C 
ATOM     10  C   UNL     1      34.620 -16.891 -22.726  0.00  0.00    +0.018 C 
ATOM     11  C   UNL     1      34.667 -18.842 -24.184  0.00  0.00    +0.018 C 
ATOM     12  C   UNL     1      34.284 -16.093 -23.834  0.00  0.00    +0.039 C 
ATOM     13  C   UNL     1      34.153 -16.704 -25.076  0.00  0.00    +0.146 C 
ATOM     14  C   UNL     1      34.334 -18.068 -25.300  0.00  0.00    +0.039 C 
ATOM     15  C   UNL     1      34.020 -14.716 -24.051  0.00  0.00    +0.045 C 
ATOM     16  C   UNL     1      33.749 -14.579 -25.393  0.00  0.00    +0.198 C 
BRANCH  16  19
ATOM     17  O   UNL     1      33.093 -13.469 -27.389  0.00  0.00    -0.267 OA
ATOM     18  N   UNL     1      33.472 -12.174 -25.564  0.00  0.00    -0.323 N 
ATOM     19  C   UNL     1      33.417 -13.437 -26.175  0.00  0.00    +0.277 C 
ATOM     20  H   UNL     1      33.248 -11.367 -26.082  0.00  0.00    +0.145 HD
ATOM     21  H   UNL     1      33.735 -12.094 -24.620  0.00  0.00    +0.145 HD
ENDBRANCH  16  19
ENDBRANCH   2   9
BRANCH   1  22
ATOM     22  C   UNL     1      36.275 -21.677 -18.643  0.00  0.00    -0.077 C 
BRANCH  22  23
ATOM     23  C   UNL     1      35.083 -22.397 -18.014  0.00  0.00    -0.022 C 
BRANCH  23  24
ATOM     24  C   UNL     1      35.301 -22.623 -16.517  0.00  0.00    +0.003 C 
BRANCH  24  25
ATOM     25  C   UNL     1      34.551 -23.864 -16.025  0.00  0.00    +0.028 C 
BRANCH  25  27
ATOM     26  N   UNL     1      34.832 -24.621 -12.464  0.00  0.00    -0.312 N 
ATOM     27  C   UNL     1      34.937 -24.247 -14.627  0.00  0.00    -0.006 C 
ATOM     28  C   UNL     1      36.203 -24.716 -14.221  0.00  0.00    +0.011 C 
ATOM     29  C   UNL     1      34.110 -24.194 -13.546  0.00  0.00    +0.058 C 
ATOM     30  C   UNL     1      36.114 -24.948 -12.847  0.00  0.00    +0.048 C 
ATOM     31  C   UNL     1      37.425 -24.974 -14.874  0.00  0.00    +0.011 C 
ATOM     32  C   UNL     1      37.190 -25.424 -12.090  0.00  0.00    +0.015 C 
ATOM     33  C   UNL     1      38.510 -25.450 -14.129  0.00  0.00    +0.069 C 
ATOM     34  C   UNL     1      38.392 -25.672 -12.759  0.00  0.00    +0.012 C 
ATOM     35  H   UNL     1      34.485 -24.687 -11.545  0.00  0.00    +0.152 HD
BRANCH  33  37
ATOM     36  N   UNL     1      40.763 -25.924 -15.317  0.00  0.00    -0.191 NA
ATOM     37  C   UNL     1      39.754 -25.712 -14.785  0.00  0.00    +0.100 C 
ENDBRANCH  33  37
ENDBRANCH  25  27
ENDBRANCH  24  25
ENDBRANCH  23  24
ENDBRANCH  22  23
ENDBRANCH   1  22
TORSDOF 8
ENDMDL
MODEL 5
REMARK VINA RESULT:     -11.8      5.426     12.161
REMARK  Name = 6918314
REMARK  8 active torsions:
REMARK  status: ('A' for Active; 'I' for Inactive)
REMARK    1  A    between atoms: N_1  and  C_22
REMARK    2  A    between atoms: N_2  and  C_9
REMARK    3  A    between atoms: C_16  and  C_19
REMARK    4  A    between atoms: C_22  and  C_23
REMARK    5  A    between atoms: C_23  and  C_24
REMARK    6  A    between atoms: C_24  and  C_25
REMARK    7  A    between atoms: C_25  and  C_27
REMARK    8  A    between atoms: C_33  and  C_37
REMARK                            x       y       z     vdW  Elec       q    Type
REMARK                         _______ _______ _______ _____ _____    ______ ____
ROOT
ATOM      1  N   UNL     1      34.449 -14.566 -23.439  0.00  0.00    +0.389 N 
ATOM      2  N   UNL     1      34.609 -17.086 -22.105  0.00  0.00    -0.312 N 
ATOM      3  C   UNL     1      33.974 -14.705 -22.057  0.00  0.00    -0.055 C 
ATOM      4  C   UNL     1      34.215 -15.812 -24.176  0.00  0.00    -0.055 C 
ATOM      5  C   UNL     1      34.706 -15.839 -21.336  0.00  0.00    +0.068 C 
ATOM      6  C   UNL     1      34.954 -16.984 -23.526  0.00  0.00    +0.068 C 
ATOM      7  H   UNL     1      35.451 -14.376 -23.425  0.00  0.00    -0.080 HD
ENDROOT
BRANCH   2   9
ATOM      8  O   UNL     1      35.244 -21.869 -19.410  0.00  0.00    -0.449 OA
ATOM      9  C   UNL     1      34.808 -18.294 -21.427  0.00  0.00    +0.048 C 
ATOM     10  C   UNL     1      33.704 -19.032 -20.933  0.00  0.00    +0.018 C 
ATOM     11  C   UNL     1      36.112 -18.798 -21.222  0.00  0.00    +0.018 C 
ATOM     12  C   UNL     1      33.921 -20.244 -20.254  0.00  0.00    +0.039 C 
ATOM     13  C   UNL     1      35.229 -20.685 -20.086  0.00  0.00    +0.146 C 
ATOM     14  C   UNL     1      36.351 -20.001 -20.550  0.00  0.00    +0.039 C 
ATOM     15  C   UNL     1      33.100 -21.226 -19.640  0.00  0.00    +0.045 C 
ATOM     16  C   UNL     1      33.950 -22.188 -19.145  0.00  0.00    +0.198 C 
BRANCH  16  19
ATOM     17  O   UNL     1      33.683 -24.541 -18.955  0.00  0.00    -0.267 OA
ATOM     18  N   UNL     1      33.409 -23.316 -17.064  0.00  0.00    -0.323 N 
ATOM     19  C   UNL     1      33.694 -23.395 -18.437  0.00  0.00    +0.277 C 
ATOM     20  H   UNL     1      33.228 -24.136 -16.551  0.00  0.00    +0.145 HD
ATOM     21  H   UNL     1      33.390 -22.440 -16.616  0.00  0.00    +0.145 HD
ENDBRANCH  16  19
ENDBRANCH   2   9
BRANCH   1  22
ATOM     22  C   UNL     1      33.782 -13.445 -24.100  0.00  0.00    -0.077 C 
BRANCH  22  23
ATOM     23  C   UNL     1      32.447 -13.146 -23.420  0.00  0.00    -0.022 C 
BRANCH  23  24
ATOM     24  C   UNL     1      32.379 -11.691 -22.951  0.00  0.00    +0.003 C 
BRANCH  24  25
ATOM     25  C   UNL     1      31.423 -11.532 -21.764  0.00  0.00    +0.028 C 
BRANCH  25  27
ATOM     26  N   UNL     1      32.347  -9.132 -19.171  0.00  0.00    -0.312 N 
ATOM     27  C   UNL     1      31.770 -10.351 -20.908  0.00  0.00    -0.006 C 
ATOM     28  C   UNL     1      31.809  -9.007 -21.333  0.00  0.00    +0.011 C 
ATOM     29  C   UNL     1      32.102 -10.413 -19.587  0.00  0.00    +0.058 C 
ATOM     30  C   UNL     1      32.177  -8.252 -20.217  0.00  0.00    +0.048 C 
ATOM     31  C   UNL     1      31.570  -8.342 -22.553  0.00  0.00    +0.011 C 
ATOM     32  C   UNL     1      32.317  -6.861 -20.260  0.00  0.00    +0.015 C 
ATOM     33  C   UNL     1      31.708  -6.951 -22.610  0.00  0.00    +0.069 C 
ATOM     34  C   UNL     1      32.076  -6.223 -21.480  0.00  0.00    +0.012 C 
ATOM     35  H   UNL     1      32.609  -8.876 -18.257  0.00  0.00    +0.152 HD
BRANCH  33  37
ATOM     36  N   UNL     1      31.270  -5.717 -24.846  0.00  0.00    -0.191 NA
ATOM     37  C   UNL     1      31.466  -6.269 -23.844  0.00  0.00    +0.100 C 
ENDBRANCH  33  37
ENDBRANCH  25  27
ENDBRANCH  24  25
ENDBRANCH  23  24
ENDBRANCH  22  23
ENDBRANCH   1  22
TORSDOF 8
ENDMDL
MODEL 6
REMARK VINA RESULT:     -11.6      4.639     12.273
REMARK  Name = 6918314
REMARK  8 active torsions:
REMARK  status: ('A' for Active; 'I' for Inactive)
REMARK    1  A    between atoms: N_1  and  C_22
REMARK    2  A    between atoms: N_2  and  C_9
REMARK    3  A    between atoms: C_16  and  C_19
REMARK    4  A    between atoms: C_22  and  C_23
REMARK    5  A    between atoms: C_23  and  C_24
REMARK    6  A    between atoms: C_24  and  C_25
REMARK    7  A    between atoms: C_25  and  C_27
REMARK    8  A    between atoms: C_33  and  C_37
REMARK                            x       y       z     vdW  Elec       q    Type
REMARK                         _______ _______ _______ _____ _____    ______ ____
ROOT
ATOM      1  N   UNL     1      35.012 -16.777 -24.445  0.00  0.00    +0.389 N 
ATOM      2  N   UNL     1      34.977 -18.679 -22.315  0.00  0.00    -0.312 N 
ATOM      3  C   UNL     1      34.734 -16.346 -23.070  0.00  0.00    -0.055 C 
ATOM      4  C   UNL     1      34.479 -18.126 -24.664  0.00  0.00    -0.055 C 
ATOM      5  C   UNL     1      35.381 -17.292 -22.056  0.00  0.00    +0.068 C 
ATOM      6  C   UNL     1      35.116 -19.132 -23.703  0.00  0.00    +0.068 C 
ATOM      7  H   UNL     1      36.022 -16.796 -24.586  0.00  0.00    -0.080 HD
ENDROOT
BRANCH   2   9
ATOM      8  O   UNL     1      35.255 -22.336 -18.181  0.00  0.00    -0.449 OA
ATOM      9  C   UNL     1      35.086 -19.603 -21.269  0.00  0.00    +0.048 C 
ATOM     10  C   UNL     1      33.926 -20.177 -20.693  0.00  0.00    +0.018 C 
ATOM     11  C   UNL     1      36.353 -19.977 -20.768  0.00  0.00    +0.018 C 
ATOM     12  C   UNL     1      34.052 -21.103 -19.642  0.00  0.00    +0.039 C 
ATOM     13  C   UNL     1      35.329 -21.430 -19.196  0.00  0.00    +0.146 C 
ATOM     14  C   UNL     1      36.503 -20.896 -19.725  0.00  0.00    +0.039 C 
ATOM     15  C   UNL     1      33.158 -21.862 -18.844  0.00  0.00    +0.045 C 
ATOM     16  C   UNL     1      33.936 -22.591 -17.975  0.00  0.00    +0.198 C 
BRANCH  16  19
ATOM     17  O   UNL     1      34.383 -24.344 -16.434  0.00  0.00    -0.267 OA
ATOM     18  N   UNL     1      32.262 -23.538 -16.493  0.00  0.00    -0.323 N 
ATOM     19  C   UNL     1      33.589 -23.518 -16.952  0.00  0.00    +0.277 C 
ATOM     20  H   UNL     1      31.995 -24.169 -15.787  0.00  0.00    +0.145 HD
ATOM     21  H   UNL     1      31.599 -22.921 -16.878  0.00  0.00    +0.145 HD
ENDBRANCH  16  19
ENDBRANCH   2   9
BRANCH   1  22
ATOM     22  C   UNL     1      34.435 -15.836 -25.404  0.00  0.00    -0.077 C 
BRANCH  22  23
ATOM     23  C   UNL     1      33.330 -15.014 -24.742  0.00  0.00    -0.022 C 
BRANCH  23  24
ATOM     24  C   UNL     1      33.262 -13.604 -25.331  0.00  0.00    +0.003 C 
BRANCH  24  25
ATOM     25  C   UNL     1      33.084 -12.549 -24.235  0.00  0.00    +0.028 C 
BRANCH  25  27
ATOM     26  N   UNL     1      35.214  -9.853 -25.472  0.00  0.00    -0.312 N 
ATOM     27  C   UNL     1      33.844 -11.289 -24.528  0.00  0.00    -0.006 C 
ATOM     28  C   UNL     1      33.744 -10.080 -23.809  0.00  0.00    +0.011 C 
ATOM     29  C   UNL     1      34.744 -11.137 -25.540  0.00  0.00    +0.058 C 
ATOM     30  C   UNL     1      34.620  -9.184 -24.425  0.00  0.00    +0.048 C 
ATOM     31  C   UNL     1      32.999  -9.644 -22.695  0.00  0.00    +0.011 C 
ATOM     32  C   UNL     1      34.791  -7.869 -23.979  0.00  0.00    +0.015 C 
ATOM     33  C   UNL     1      33.160  -8.331 -22.239  0.00  0.00    +0.069 C 
ATOM     34  C   UNL     1      34.042  -7.458 -22.872  0.00  0.00    +0.012 C 
ATOM     35  H   UNL     1      35.880  -9.463 -26.083  0.00  0.00    +0.152 HD
BRANCH  33  37
ATOM     36  N   UNL     1      31.798  -7.516 -20.190  0.00  0.00    -0.191 NA
ATOM     37  C   UNL     1      32.409  -7.881 -21.108  0.00  0.00    +0.100 C 
ENDBRANCH  33  37
ENDBRANCH  25  27
ENDBRANCH  24  25
ENDBRANCH  23  24
ENDBRANCH  22  23
ENDBRANCH   1  22
TORSDOF 8
ENDMDL
MODEL 7
REMARK VINA RESULT:     -11.6      5.759     13.412
REMARK  Name = 6918314
REMARK  8 active torsions:
REMARK  status: ('A' for Active; 'I' for Inactive)
REMARK    1  A    between atoms: N_1  and  C_22
REMARK    2  A    between atoms: N_2  and  C_9
REMARK    3  A    between atoms: C_16  and  C_19
REMARK    4  A    between atoms: C_22  and  C_23
REMARK    5  A    between atoms: C_23  and  C_24
REMARK    6  A    between atoms: C_24  and  C_25
REMARK    7  A    between atoms: C_25  and  C_27
REMARK    8  A    between atoms: C_33  and  C_37
REMARK                            x       y       z     vdW  Elec       q    Type
REMARK                         _______ _______ _______ _____ _____    ______ ____
ROOT
ATOM      1  N   UNL     1      34.129 -14.129 -23.871  0.00  0.00    +0.389 N 
ATOM      2  N   UNL     1      34.466 -16.622 -22.518  0.00  0.00    -0.312 N 
ATOM      3  C   UNL     1      33.751 -14.264 -22.459  0.00  0.00    -0.055 C 
ATOM      4  C   UNL     1      33.891 -15.394 -24.575  0.00  0.00    -0.055 C 
ATOM      5  C   UNL     1      34.569 -15.361 -21.774  0.00  0.00    +0.068 C 
ATOM      6  C   UNL     1      34.713 -16.529 -23.961  0.00  0.00    +0.068 C 
ATOM      7  H   UNL     1      35.123 -13.904 -23.926  0.00  0.00    -0.080 HD
ENDROOT
BRANCH   2   9
ATOM      8  O   UNL     1      35.447 -21.341 -19.815  0.00  0.00    -0.449 OA
ATOM      9  C   UNL     1      34.752 -17.812 -21.839  0.00  0.00    +0.048 C 
ATOM     10  C   UNL     1      33.706 -18.604 -21.305  0.00  0.00    +0.018 C 
ATOM     11  C   UNL     1      36.087 -18.243 -21.673  0.00  0.00    +0.018 C 
ATOM     12  C   UNL     1      34.010 -19.797 -20.626  0.00  0.00    +0.039 C 
ATOM     13  C   UNL     1      35.346 -20.166 -20.497  0.00  0.00    +0.146 C 
ATOM     14  C   UNL     1      36.413 -19.426 -21.002  0.00  0.00    +0.039 C 
ATOM     15  C   UNL     1      33.264 -20.817 -19.979  0.00  0.00    +0.045 C 
ATOM     16  C   UNL     1      34.181 -21.727 -19.506  0.00  0.00    +0.198 C 
BRANCH  16  19
ATOM     17  O   UNL     1      33.819 -24.068 -19.307  0.00  0.00    -0.267 OA
ATOM     18  N   UNL     1      34.044 -22.891 -17.380  0.00  0.00    -0.323 N 
ATOM     19  C   UNL     1      34.013 -22.942 -18.783  0.00  0.00    +0.277 C 
ATOM     20  H   UNL     1      33.931 -23.716 -16.855  0.00  0.00    +0.145 HD
ATOM     21  H   UNL     1      34.178 -22.030 -16.921  0.00  0.00    +0.145 HD
ENDBRANCH  16  19
ENDBRANCH   2   9
BRANCH   1  22
ATOM     22  C   UNL     1      33.380 -13.042 -24.501  0.00  0.00    -0.077 C 
BRANCH  22  23
ATOM     23  C   UNL     1      34.082 -11.706 -24.262  0.00  0.00    -0.022 C 
BRANCH  23  24
ATOM     24  C   UNL     1      33.103 -10.652 -23.742  0.00  0.00    +0.003 C 
BRANCH  24  25
ATOM     25  C   UNL     1      33.766  -9.275 -23.642  0.00  0.00    +0.028 C 
BRANCH  25  27
ATOM     26  N   UNL     1      31.943  -7.459 -21.052  0.00  0.00    -0.312 N 
ATOM     27  C   UNL     1      32.985  -8.328 -22.781  0.00  0.00    -0.006 C 
ATOM     28  C   UNL     1      32.488  -7.070 -23.181  0.00  0.00    +0.011 C 
ATOM     29  C   UNL     1      32.647  -8.552 -21.481  0.00  0.00    +0.058 C 
ATOM     30  C   UNL     1      31.831  -6.537 -22.069  0.00  0.00    +0.048 C 
ATOM     31  C   UNL     1      32.523  -6.319 -24.372  0.00  0.00    +0.011 C 
ATOM     32  C   UNL     1      31.204  -5.287 -22.091  0.00  0.00    +0.015 C 
ATOM     33  C   UNL     1      31.900  -5.066 -24.408  0.00  0.00    +0.069 C 
ATOM     34  C   UNL     1      31.252  -4.559 -23.284  0.00  0.00    +0.012 C 
ATOM     35  H   UNL     1      31.571  -7.347 -20.147  0.00  0.00    +0.152 HD
BRANCH  33  37
ATOM     36  N   UNL     1      31.957  -3.676 -26.594  0.00  0.00    -0.191 NA
ATOM     37  C   UNL     1      31.931  -4.299 -25.615  0.00  0.00    +0.100 C 
ENDBRANCH  33  37
ENDBRANCH  25  27
ENDBRANCH  24  25
ENDBRANCH  23  24
ENDBRANCH  22  23
ENDBRANCH   1  22
TORSDOF 8
ENDMDL
MODEL 8
REMARK VINA RESULT:     -11.6      5.242     12.531
REMARK  Name = 6918314
REMARK  8 active torsions:
REMARK  status: ('A' for Active; 'I' for Inactive)
REMARK    1  A    between atoms: N_1  and  C_22
REMARK    2  A    between atoms: N_2  and  C_9
REMARK    3  A    between atoms: C_16  and  C_19
REMARK    4  A    between atoms: C_22  and  C_23
REMARK    5  A    between atoms: C_23  and  C_24
REMARK    6  A    between atoms: C_24  and  C_25
REMARK    7  A    between atoms: C_25  and  C_27
REMARK    8  A    between atoms: C_33  and  C_37
REMARK                            x       y       z     vdW  Elec       q    Type
REMARK                         _______ _______ _______ _____ _____    ______ ____
ROOT
ATOM      1  N   UNL     1      34.195 -14.236 -24.065  0.00  0.00    +0.389 N 
ATOM      2  N   UNL     1      34.457 -16.683 -22.617  0.00  0.00    -0.312 N 
ATOM      3  C   UNL     1      33.917 -14.279 -22.625  0.00  0.00    -0.055 C 
ATOM      4  C   UNL     1      33.816 -15.510 -24.686  0.00  0.00    -0.055 C 
ATOM      5  C   UNL     1      34.705 -15.401 -21.946  0.00  0.00    +0.068 C 
ATOM      6  C   UNL     1      34.600 -16.674 -24.076  0.00  0.00    +0.068 C 
ATOM      7  H   UNL     1      35.195 -14.087 -24.203  0.00  0.00    -0.080 HD
ENDROOT
BRANCH   2   9
ATOM      8  O   UNL     1      35.305 -21.347 -19.776  0.00  0.00    -0.449 OA
ATOM      9  C   UNL     1      34.710 -17.859 -21.901  0.00  0.00    +0.048 C 
ATOM     10  C   UNL     1      33.640 -18.635 -21.391  0.00  0.00    +0.018 C 
ATOM     11  C   UNL     1      36.036 -18.293 -21.674  0.00  0.00    +0.018 C 
ATOM     12  C   UNL     1      33.910 -19.814 -20.675  0.00  0.00    +0.039 C 
ATOM     13  C   UNL     1      35.237 -20.186 -20.486  0.00  0.00    +0.146 C 
ATOM     14  C   UNL     1      36.328 -19.462 -20.965  0.00  0.00    +0.039 C 
ATOM     15  C   UNL     1      33.134 -20.815 -20.036  0.00  0.00    +0.045 C 
ATOM     16  C   UNL     1      34.026 -21.720 -19.508  0.00  0.00    +0.198 C 
BRANCH  16  19
ATOM     17  O   UNL     1      33.872 -24.077 -19.248  0.00  0.00    -0.267 OA
ATOM     18  N   UNL     1      33.525 -22.810 -17.397  0.00  0.00    -0.323 N 
ATOM     19  C   UNL     1      33.823 -22.917 -18.766  0.00  0.00    +0.277 C 
ATOM     20  H   UNL     1      33.380 -23.622 -16.860  0.00  0.00    +0.145 HD
ATOM     21  H   UNL     1      33.460 -21.923 -16.976  0.00  0.00    +0.145 HD
ENDBRANCH  16  19
ENDBRANCH   2   9
BRANCH   1  22
ATOM     22  C   UNL     1      33.479 -13.126 -24.693  0.00  0.00    -0.077 C 
BRANCH  22  23
ATOM     23  C   UNL     1      33.809 -11.813 -23.985  0.00  0.00    -0.022 C 
BRANCH  23  24
ATOM     24  C   UNL     1      34.028 -10.682 -24.992  0.00  0.00    +0.003 C 
BRANCH  24  25
ATOM     25  C   UNL     1      34.993  -9.626 -24.444  0.00  0.00    +0.028 C 
BRANCH  25  27
ATOM     26  N   UNL     1      33.571  -6.274 -24.170  0.00  0.00    -0.312 N 
ATOM     27  C   UNL     1      34.295  -8.347 -24.086  0.00  0.00    -0.006 C 
ATOM     28  C   UNL     1      33.507  -8.132 -22.937  0.00  0.00    +0.011 C 
ATOM     29  C   UNL     1      34.326  -7.206 -24.830  0.00  0.00    +0.058 C 
ATOM     30  C   UNL     1      33.058  -6.812 -23.011  0.00  0.00    +0.048 C 
ATOM     31  C   UNL     1      33.121  -8.919 -21.833  0.00  0.00    +0.011 C 
ATOM     32  C   UNL     1      32.241  -6.237 -22.031  0.00  0.00    +0.015 C 
ATOM     33  C   UNL     1      32.303  -8.357 -20.847  0.00  0.00    +0.069 C 
ATOM     34  C   UNL     1      31.870  -7.036 -20.946  0.00  0.00    +0.012 C 
ATOM     35  H   UNL     1      33.417  -5.352 -24.479  0.00  0.00    +0.152 HD
BRANCH  33  37
ATOM     36  N   UNL     1      31.589  -9.793 -18.811  0.00  0.00    -0.191 NA
ATOM     37  C   UNL     1      31.908  -9.149 -19.723  0.00  0.00    +0.100 C 
ENDBRANCH  33  37
ENDBRANCH  25  27
ENDBRANCH  24  25
ENDBRANCH  23  24
ENDBRANCH  22  23
ENDBRANCH   1  22
TORSDOF 8
ENDMDL
MODEL 9
REMARK VINA RESULT:     -11.5      3.594      6.093
REMARK  Name = 6918314
REMARK  8 active torsions:
REMARK  status: ('A' for Active; 'I' for Inactive)
REMARK    1  A    between atoms: N_1  and  C_22
REMARK    2  A    between atoms: N_2  and  C_9
REMARK    3  A    between atoms: C_16  and  C_19
REMARK    4  A    between atoms: C_22  and  C_23
REMARK    5  A    between atoms: C_23  and  C_24
REMARK    6  A    between atoms: C_24  and  C_25
REMARK    7  A    between atoms: C_25  and  C_27
REMARK    8  A    between atoms: C_33  and  C_37
REMARK                            x       y       z     vdW  Elec       q    Type
REMARK                         _______ _______ _______ _____ _____    ______ ____
ROOT
ATOM      1  N   UNL     1      35.350 -16.802 -22.999  0.00  0.00    +0.389 N 
ATOM      2  N   UNL     1      33.759 -14.459 -22.631  0.00  0.00    -0.312 N 
ATOM      3  C   UNL     1      34.342 -16.426 -23.996  0.00  0.00    -0.055 C 
ATOM      4  C   UNL     1      34.895 -16.416 -21.658  0.00  0.00    -0.055 C 
ATOM      5  C   UNL     1      34.094 -14.916 -23.985  0.00  0.00    +0.068 C 
ATOM      6  C   UNL     1      34.665 -14.907 -21.568  0.00  0.00    +0.068 C 
ATOM      7  H   UNL     1      36.219 -16.308 -23.206  0.00  0.00    -0.080 HD
ENDROOT
BRANCH   2   9
ATOM      8  O   UNL     1      31.146  -9.607 -22.216  0.00  0.00    -0.449 OA
ATOM      9  C   UNL     1      33.076 -13.244 -22.496  0.00  0.00    +0.048 C 
ATOM     10  C   UNL     1      33.372 -12.156 -23.353  0.00  0.00    +0.018 C 
ATOM     11  C   UNL     1      32.084 -13.082 -21.504  0.00  0.00    +0.018 C 
ATOM     12  C   UNL     1      32.677 -10.942 -23.205  0.00  0.00    +0.039 C 
ATOM     13  C   UNL     1      31.710 -10.848 -22.209  0.00  0.00    +0.146 C 
ATOM     14  C   UNL     1      31.380 -11.885 -21.339  0.00  0.00    +0.039 C 
ATOM     15  C   UNL     1      32.693  -9.677 -23.849  0.00  0.00    +0.045 C 
ATOM     16  C   UNL     1      31.748  -8.906 -23.213  0.00  0.00    +0.198 C 
BRANCH  16  19
ATOM     17  O   UNL     1      30.905  -7.110 -24.521  0.00  0.00    -0.267 OA
ATOM     18  N   UNL     1      31.413  -6.660 -22.355  0.00  0.00    -0.323 N 
ATOM     19  C   UNL     1      31.330  -7.563 -23.428  0.00  0.00    +0.277 C 
ATOM     20  H   UNL     1      31.131  -5.725 -22.476  0.00  0.00    +0.145 HD
ATOM     21  H   UNL     1      31.754  -6.962 -21.483  0.00  0.00    +0.145 HD
ENDBRANCH  16  19
ENDBRANCH   2   9
BRANCH   1  22
ATOM     22  C   UNL     1      35.618 -18.239 -23.056  0.00  0.00    -0.077 C 
BRANCH  22  23
ATOM     23  C   UNL     1      36.017 -18.760 -21.677  0.00  0.00    -0.022 C 
BRANCH  23  24
ATOM     24  C   UNL     1      35.231 -20.021 -21.314  0.00  0.00    +0.003 C 
BRANCH  24  25
ATOM     25  C   UNL     1      35.826 -20.715 -20.085  0.00  0.00    +0.028 C 
BRANCH  25  27
ATOM     26  N   UNL     1      32.903 -22.452 -18.753  0.00  0.00    -0.312 N 
ATOM     27  C   UNL     1      34.800 -21.498 -19.320  0.00  0.00    -0.006 C 
ATOM     28  C   UNL     1      35.011 -22.152 -18.089  0.00  0.00    +0.011 C 
ATOM     29  C   UNL     1      33.510 -21.690 -19.715  0.00  0.00    +0.058 C 
ATOM     30  C   UNL     1      33.796 -22.750 -17.748  0.00  0.00    +0.048 C 
ATOM     31  C   UNL     1      36.109 -22.303 -17.218  0.00  0.00    +0.011 C 
ATOM     32  C   UNL     1      33.623 -23.493 -16.576  0.00  0.00    +0.015 C 
ATOM     33  C   UNL     1      35.950 -23.045 -16.042  0.00  0.00    +0.069 C 
ATOM     34  C   UNL     1      34.726 -23.630 -15.728  0.00  0.00    +0.012 C 
ATOM     35  H   UNL     1      31.963 -22.746 -18.777  0.00  0.00    +0.152 HD
BRANCH  33  37
ATOM     36  N   UNL     1      37.961 -23.330 -14.432  0.00  0.00    -0.191 NA
ATOM     37  C   UNL     1      37.060 -23.202 -15.153  0.00  0.00    +0.100 C 
ENDBRANCH  33  37
ENDBRANCH  25  27
ENDBRANCH  24  25
ENDBRANCH  23  24
ENDBRANCH  22  23
ENDBRANCH   1  22
TORSDOF 8
ENDMDL
