MODEL 1
REMARK VINA RESULT:      -8.4      0.000      0.000
REMARK  Name = 72075
REMARK  4 active torsions:
REMARK  status: ('A' for Active; 'I' for Inactive)
REMARK    1  A    between atoms: N_1  and  C_3
REMARK    2  A    between atoms: N_1  and  C_10
REMARK    3  A    between atoms: N_1  and  C_16
REMARK    4  A    between atoms: C_16  and  C_17
REMARK                            x       y       z     vdW  Elec       q    Type
REMARK                         _______ _______ _______ _____ _____    ______ ____
ROOT
ATOM      1  N   UNL     1      32.911 -12.708 -22.934  0.00  0.00    -0.305 N 
ENDROOT
BRANCH   1   3
ATOM      2  N   UNL     1      33.887 -16.689 -21.933  0.00  0.00    +0.386 N 
ATOM      3  C   UNL     1      33.533 -13.800 -22.218  0.00  0.00    +0.069 C 
ATOM      4  C   UNL     1      32.457 -14.697 -21.607  0.00  0.00    -0.003 C 
ATOM      5  C   UNL     1      34.420 -14.609 -23.163  0.00  0.00    -0.003 C 
ATOM      6  C   UNL     1      33.072 -15.942 -20.966  0.00  0.00    -0.076 C 
ATOM      7  C   UNL     1      34.973 -15.856 -22.470  0.00  0.00    -0.076 C 
ATOM      8  C   UNL     1      34.427 -17.901 -21.319  0.00  0.00    -0.101 C 
ATOM      9  H   UNL     1      33.284 -16.957 -22.711  0.00  0.00    -0.080 HD
ENDBRANCH   1   3
BRANCH   1  10
ATOM     10  C   UNL     1      33.568 -12.067 -23.990  0.00  0.00    +0.048 C 
ATOM     11  C   UNL     1      34.317 -10.907 -23.759  0.00  0.00    +0.015 C 
ATOM     12  C   UNL     1      33.484 -12.578 -25.292  0.00  0.00    +0.015 C 
ATOM     13  C   UNL     1      34.972 -10.268 -24.812  0.00  0.00    +0.001 C 
ATOM     14  C   UNL     1      34.139 -11.940 -26.344  0.00  0.00    +0.001 C 
ATOM     15  C   UNL     1      34.882 -10.783 -26.104  0.00  0.00    +0.000 C 
ENDBRANCH   1  10
BRANCH   1  16
ATOM     16  C   UNL     1      31.578 -12.275 -22.520  0.00  0.00    +0.118 C 
BRANCH  16  17
ATOM     17  C   UNL     1      31.675 -11.219 -21.455  0.00  0.00    -0.002 C 
ATOM     18  C   UNL     1      31.888  -9.896 -21.819  0.00  0.00    -0.003 C 
ATOM     19  C   UNL     1      31.552 -11.578 -20.119  0.00  0.00    -0.003 C 
ATOM     20  C   UNL     1      31.977  -8.915 -20.831  0.00  0.00    -0.000 C 
ATOM     21  C   UNL     1      31.641 -10.598 -19.131  0.00  0.00    -0.000 C 
ATOM     22  C   UNL     1      31.854  -9.266 -19.488  0.00  0.00    -0.000 C 
ENDBRANCH  16  17
ENDBRANCH   1  16
TORSDOF 4
ENDMDL
MODEL 2
REMARK VINA RESULT:      -8.4      0.019      1.054
REMARK  Name = 72075
REMARK  4 active torsions:
REMARK  status: ('A' for Active; 'I' for Inactive)
REMARK    1  A    between atoms: N_1  and  C_3
REMARK    2  A    between atoms: N_1  and  C_10
REMARK    3  A    between atoms: N_1  and  C_16
REMARK    4  A    between atoms: C_16  and  C_17
REMARK                            x       y       z     vdW  Elec       q    Type
REMARK                         _______ _______ _______ _____ _____    ______ ____
ROOT
ATOM      1  N   UNL     1      32.921 -12.703 -22.931  0.00  0.00    -0.305 N 
ENDROOT
BRANCH   1   3
ATOM      2  N   UNL     1      33.892 -16.681 -21.917  0.00  0.00    +0.386 N 
ATOM      3  C   UNL     1      33.542 -13.793 -22.211  0.00  0.00    +0.069 C 
ATOM      4  C   UNL     1      32.465 -14.686 -21.597  0.00  0.00    -0.003 C 
ATOM      5  C   UNL     1      34.428 -14.606 -23.154  0.00  0.00    -0.003 C 
ATOM      6  C   UNL     1      33.079 -15.930 -20.952  0.00  0.00    -0.076 C 
ATOM      7  C   UNL     1      34.979 -15.852 -22.457  0.00  0.00    -0.076 C 
ATOM      8  C   UNL     1      34.431 -17.892 -21.299  0.00  0.00    -0.101 C 
ATOM      9  H   UNL     1      33.288 -16.951 -22.694  0.00  0.00    -0.080 HD
ENDBRANCH   1   3
BRANCH   1  10
ATOM     10  C   UNL     1      33.579 -12.065 -23.988  0.00  0.00    +0.048 C 
ATOM     11  C   UNL     1      34.331 -10.906 -23.759  0.00  0.00    +0.015 C 
ATOM     12  C   UNL     1      33.494 -12.577 -25.289  0.00  0.00    +0.015 C 
ATOM     13  C   UNL     1      34.987 -10.270 -24.812  0.00  0.00    +0.001 C 
ATOM     14  C   UNL     1      34.150 -11.941 -26.342  0.00  0.00    +0.001 C 
ATOM     15  C   UNL     1      34.897 -10.787 -26.104  0.00  0.00    +0.000 C 
ENDBRANCH   1  10
BRANCH   1  16
ATOM     16  C   UNL     1      31.588 -12.268 -22.520  0.00  0.00    +0.118 C 
BRANCH  16  17
ATOM     17  C   UNL     1      31.683 -11.221 -21.445  0.00  0.00    -0.002 C 
ATOM     18  C   UNL     1      31.561 -11.594 -20.113  0.00  0.00    -0.003 C 
ATOM     19  C   UNL     1      31.891  -9.894 -21.797  0.00  0.00    -0.003 C 
ATOM     20  C   UNL     1      31.650 -10.623 -19.115  0.00  0.00    -0.000 C 
ATOM     21  C   UNL     1      31.979  -8.923 -20.799  0.00  0.00    -0.000 C 
ATOM     22  C   UNL     1      31.858  -9.288 -19.458  0.00  0.00    -0.000 C 
ENDBRANCH  16  17
ENDBRANCH   1  16
TORSDOF 4
ENDMDL
MODEL 3
REMARK VINA RESULT:      -8.3      9.035     12.708
REMARK  Name = 72075
REMARK  4 active torsions:
REMARK  status: ('A' for Active; 'I' for Inactive)
REMARK    1  A    between atoms: N_1  and  C_3
REMARK    2  A    between atoms: N_1  and  C_10
REMARK    3  A    between atoms: N_1  and  C_16
REMARK    4  A    between atoms: C_16  and  C_17
REMARK                            x       y       z     vdW  Elec       q    Type
REMARK                         _______ _______ _______ _____ _____    ______ ____
ROOT
ATOM      1  N   UNL     1      33.673 -23.438 -16.612  0.00  0.00    -0.305 N 
ENDROOT
BRANCH   1   3
ATOM      2  N   UNL     1      37.637 -24.281 -15.438  0.00  0.00    +0.386 N 
ATOM      3  C   UNL     1      34.859 -23.434 -15.784  0.00  0.00    +0.069 C 
ATOM      4  C   UNL     1      35.233 -24.868 -15.411  0.00  0.00    -0.003 C 
ATOM      5  C   UNL     1      36.014 -22.763 -16.526  0.00  0.00    -0.003 C 
ATOM      6  C   UNL     1      36.564 -24.915 -14.659  0.00  0.00    -0.076 C 
ATOM      7  C   UNL     1      37.319 -22.877 -15.736  0.00  0.00    -0.076 C 
ATOM      8  C   UNL     1      38.911 -24.377 -14.728  0.00  0.00    -0.101 C 
ATOM      9  H   UNL     1      37.717 -24.779 -16.324  0.00  0.00    -0.080 HD
ENDBRANCH   1   3
BRANCH   1  10
ATOM     10  C   UNL     1      32.410 -23.173 -16.070  0.00  0.00    +0.048 C 
ATOM     11  C   UNL     1      31.274 -23.172 -16.889  0.00  0.00    +0.015 C 
ATOM     12  C   UNL     1      32.267 -22.906 -14.703  0.00  0.00    +0.015 C 
ATOM     13  C   UNL     1      30.015 -22.909 -16.349  0.00  0.00    +0.001 C 
ATOM     14  C   UNL     1      31.009 -22.643 -14.163  0.00  0.00    +0.001 C 
ATOM     15  C   UNL     1      29.882 -22.644 -14.986  0.00  0.00    +0.000 C 
ENDBRANCH   1  10
BRANCH   1  16
ATOM     16  C   UNL     1      33.819 -23.740 -18.034  0.00  0.00    +0.118 C 
BRANCH  16  17
ATOM     17  C   UNL     1      34.004 -22.475 -18.825  0.00  0.00    -0.002 C 
ATOM     18  C   UNL     1      32.897 -21.703 -19.152  0.00  0.00    -0.003 C 
ATOM     19  C   UNL     1      35.279 -22.095 -19.222  0.00  0.00    -0.003 C 
ATOM     20  C   UNL     1      33.068 -20.529 -19.885  0.00  0.00    -0.000 C 
ATOM     21  C   UNL     1      35.451 -20.921 -19.956  0.00  0.00    -0.000 C 
ATOM     22  C   UNL     1      34.345 -20.139 -20.288  0.00  0.00    -0.000 C 
ENDBRANCH  16  17
ENDBRANCH   1  16
TORSDOF 4
ENDMDL
MODEL 4
REMARK VINA RESULT:      -8.3      3.447      7.713
REMARK  Name = 72075
REMARK  4 active torsions:
REMARK  status: ('A' for Active; 'I' for Inactive)
REMARK    1  A    between atoms: N_1  and  C_3
REMARK    2  A    between atoms: N_1  and  C_10
REMARK    3  A    between atoms: N_1  and  C_16
REMARK    4  A    between atoms: C_16  and  C_17
REMARK                            x       y       z     vdW  Elec       q    Type
REMARK                         _______ _______ _______ _____ _____    ______ ____
ROOT
ATOM      1  N   UNL     1      32.747  -8.363 -22.575  0.00  0.00    -0.305 N 
ENDROOT
BRANCH   1   3
ATOM      2  N   UNL     1      31.738  -4.474 -23.862  0.00  0.00    +0.386 N 
ATOM      3  C   UNL     1      31.993  -7.318 -23.233  0.00  0.00    +0.069 C 
ATOM      4  C   UNL     1      31.519  -6.296 -22.202  0.00  0.00    -0.003 C 
ATOM      5  C   UNL     1      32.857  -6.638 -24.294  0.00  0.00    -0.003 C 
ATOM      6  C   UNL     1      30.845  -5.100 -22.877  0.00  0.00    -0.076 C 
ATOM      7  C   UNL     1      32.138  -5.432 -24.902  0.00  0.00    -0.076 C 
ATOM      8  C   UNL     1      31.098  -3.304 -24.462  0.00  0.00    -0.101 C 
ATOM      9  H   UNL     1      32.580  -4.171 -23.373  0.00  0.00    -0.080 HD
ENDBRANCH   1   3
BRANCH   1  10
ATOM     10  C   UNL     1      32.151  -9.195 -21.621  0.00  0.00    +0.048 C 
ATOM     11  C   UNL     1      32.409  -9.009 -20.258  0.00  0.00    +0.015 C 
ATOM     12  C   UNL     1      31.289 -10.225 -22.019  0.00  0.00    +0.015 C 
ATOM     13  C   UNL     1      31.815  -9.838 -19.307  0.00  0.00    +0.001 C 
ATOM     14  C   UNL     1      30.694 -11.054 -21.068  0.00  0.00    +0.001 C 
ATOM     15  C   UNL     1      30.958 -10.861 -19.711  0.00  0.00    +0.000 C 
ENDBRANCH   1  10
BRANCH   1  16
ATOM     16  C   UNL     1      34.158  -8.524 -22.919  0.00  0.00    +0.118 C 
BRANCH  16  17
ATOM     17  C   UNL     1      34.325  -9.576 -23.981  0.00  0.00    -0.002 C 
ATOM     18  C   UNL     1      35.243  -9.377 -25.004  0.00  0.00    -0.003 C 
ATOM     19  C   UNL     1      33.558 -10.732 -23.927  0.00  0.00    -0.003 C 
ATOM     20  C   UNL     1      35.399 -10.352 -25.989  0.00  0.00    -0.000 C 
ATOM     21  C   UNL     1      33.714 -11.708 -24.912  0.00  0.00    -0.000 C 
ATOM     22  C   UNL     1      34.634 -11.517 -25.943  0.00  0.00    -0.000 C 
ENDBRANCH  16  17
ENDBRANCH   1  16
TORSDOF 4
ENDMDL
MODEL 5
REMARK VINA RESULT:      -8.2     11.158     13.728
REMARK  Name = 72075
REMARK  4 active torsions:
REMARK  status: ('A' for Active; 'I' for Inactive)
REMARK    1  A    between atoms: N_1  and  C_3
REMARK    2  A    between atoms: N_1  and  C_10
REMARK    3  A    between atoms: N_1  and  C_16
REMARK    4  A    between atoms: C_16  and  C_17
REMARK                            x       y       z     vdW  Elec       q    Type
REMARK                         _______ _______ _______ _____ _____    ______ ____
ROOT
ATOM      1  N   UNL     1      33.825 -23.401 -15.231  0.00  0.00    -0.305 N 
ENDROOT
BRANCH   1   3
ATOM      2  N   UNL     1      37.042 -25.227 -13.202  0.00  0.00    +0.386 N 
ATOM      3  C   UNL     1      34.547 -24.414 -14.494  0.00  0.00    +0.069 C 
ATOM      4  C   UNL     1      35.770 -24.861 -15.293  0.00  0.00    -0.003 C 
ATOM      5  C   UNL     1      34.977 -23.866 -13.133  0.00  0.00    -0.003 C 
ATOM      6  C   UNL     1      36.639 -25.825 -14.482  0.00  0.00    -0.076 C 
ATOM      7  C   UNL     1      35.870 -24.863 -12.393  0.00  0.00    -0.076 C 
ATOM      8  C   UNL     1      37.911 -26.140 -12.462  0.00  0.00    -0.101 C 
ATOM      9  H   UNL     1      37.561 -24.373 -13.404  0.00  0.00    -0.080 HD
ENDBRANCH   1   3
BRANCH   1  10
ATOM     10  C   UNL     1      34.233 -23.005 -16.509  0.00  0.00    +0.048 C 
ATOM     11  C   UNL     1      33.412 -23.237 -17.619  0.00  0.00    +0.015 C 
ATOM     12  C   UNL     1      35.469 -22.373 -16.694  0.00  0.00    +0.015 C 
ATOM     13  C   UNL     1      33.818 -22.842 -18.894  0.00  0.00    +0.001 C 
ATOM     14  C   UNL     1      35.876 -21.978 -17.969  0.00  0.00    +0.001 C 
ATOM     15  C   UNL     1      35.050 -22.213 -19.069  0.00  0.00    +0.000 C 
ENDBRANCH   1  10
BRANCH   1  16
ATOM     16  C   UNL     1      32.659 -22.783 -14.603  0.00  0.00    +0.118 C 
BRANCH  16  17
ATOM     17  C   UNL     1      31.401 -23.504 -15.003  0.00  0.00    -0.002 C 
ATOM     18  C   UNL     1      30.497 -22.884 -15.855  0.00  0.00    -0.003 C 
ATOM     19  C   UNL     1      31.157 -24.780 -14.513  0.00  0.00    -0.003 C 
ATOM     20  C   UNL     1      29.331 -23.552 -16.227  0.00  0.00    -0.000 C 
ATOM     21  C   UNL     1      29.991 -25.449 -14.884  0.00  0.00    -0.000 C 
ATOM     22  C   UNL     1      29.077 -24.834 -15.741  0.00  0.00    -0.000 C 
ENDBRANCH  16  17
ENDBRANCH   1  16
TORSDOF 4
ENDMDL
MODEL 6
REMARK VINA RESULT:      -8.1     11.128     13.863
REMARK  Name = 72075
REMARK  4 active torsions:
REMARK  status: ('A' for Active; 'I' for Inactive)
REMARK    1  A    between atoms: N_1  and  C_3
REMARK    2  A    between atoms: N_1  and  C_10
REMARK    3  A    between atoms: N_1  and  C_16
REMARK    4  A    between atoms: C_16  and  C_17
REMARK                            x       y       z     vdW  Elec       q    Type
REMARK                         _______ _______ _______ _____ _____    ______ ____
ROOT
ATOM      1  N   UNL     1      34.493 -23.735 -15.552  0.00  0.00    -0.305 N 
ENDROOT
BRANCH   1   3
ATOM      2  N   UNL     1      30.301 -24.185 -15.395  0.00  0.00    +0.386 N 
ATOM      3  C   UNL     1      33.118 -23.415 -15.238  0.00  0.00    +0.069 C 
ATOM      4  C   UNL     1      32.309 -23.287 -16.527  0.00  0.00    -0.003 C 
ATOM      5  C   UNL     1      32.519 -24.501 -14.344  0.00  0.00    -0.003 C 
ATOM      6  C   UNL     1      30.821 -23.094 -16.231  0.00  0.00    -0.076 C 
ATOM      7  C   UNL     1      31.024 -24.267 -14.117  0.00  0.00    -0.076 C 
ATOM      8  C   UNL     1      28.868 -24.012 -15.161  0.00  0.00    -0.101 C 
ATOM      9  H   UNL     1      30.448 -25.061 -15.895  0.00  0.00    -0.080 HD
ENDBRANCH   1   3
BRANCH   1  10
ATOM     10  C   UNL     1      35.239 -22.941 -16.431  0.00  0.00    +0.048 C 
ATOM     11  C   UNL     1      36.427 -22.336 -16.004  0.00  0.00    +0.015 C 
ATOM     12  C   UNL     1      34.806 -22.743 -17.748  0.00  0.00    +0.015 C 
ATOM     13  C   UNL     1      37.171 -21.545 -16.880  0.00  0.00    +0.001 C 
ATOM     14  C   UNL     1      35.550 -21.953 -18.624  0.00  0.00    +0.001 C 
ATOM     15  C   UNL     1      36.732 -21.353 -18.189  0.00  0.00    +0.000 C 
ENDBRANCH   1  10
BRANCH   1  16
ATOM     16  C   UNL     1      35.088 -24.921 -14.941  0.00  0.00    +0.118 C 
BRANCH  16  17
ATOM     17  C   UNL     1      36.080 -24.527 -13.882  0.00  0.00    -0.002 C 
ATOM     18  C   UNL     1      37.377 -25.021 -13.939  0.00  0.00    -0.003 C 
ATOM     19  C   UNL     1      35.687 -23.675 -12.858  0.00  0.00    -0.003 C 
ATOM     20  C   UNL     1      38.297 -24.655 -12.957  0.00  0.00    -0.000 C 
ATOM     21  C   UNL     1      36.608 -23.309 -11.876  0.00  0.00    -0.000 C 
ATOM     22  C   UNL     1      37.913 -23.800 -11.926  0.00  0.00    -0.000 C 
ENDBRANCH  16  17
ENDBRANCH   1  16
TORSDOF 4
ENDMDL
MODEL 7
REMARK VINA RESULT:      -8.1      3.857      6.254
REMARK  Name = 72075
REMARK  4 active torsions:
REMARK  status: ('A' for Active; 'I' for Inactive)
REMARK    1  A    between atoms: N_1  and  C_3
REMARK    2  A    between atoms: N_1  and  C_10
REMARK    3  A    between atoms: N_1  and  C_16
REMARK    4  A    between atoms: C_16  and  C_17
REMARK                            x       y       z     vdW  Elec       q    Type
REMARK                         _______ _______ _______ _____ _____    ______ ____
ROOT
ATOM      1  N   UNL     1      34.976 -18.484 -21.721  0.00  0.00    -0.305 N 
ENDROOT
BRANCH   1   3
ATOM      2  N   UNL     1      34.387 -21.606 -18.945  0.00  0.00    +0.386 N 
ATOM      3  C   UNL     1      34.793 -19.834 -21.236  0.00  0.00    +0.069 C 
ATOM      4  C   UNL     1      35.925 -20.196 -20.275  0.00  0.00    -0.003 C 
ATOM      5  C   UNL     1      33.442 -19.960 -20.533  0.00  0.00    -0.003 C 
ATOM      6  C   UNL     1      35.687 -21.561 -19.628  0.00  0.00    -0.076 C 
ATOM      7  C   UNL     1      33.285 -21.335 -19.879  0.00  0.00    -0.076 C 
ATOM      8  C   UNL     1      34.197 -22.900 -18.291  0.00  0.00    -0.101 C 
ATOM      9  H   UNL     1      34.382 -20.876 -18.233  0.00  0.00    -0.080 HD
ENDBRANCH   1   3
BRANCH   1  10
ATOM     10  C   UNL     1      34.809 -18.172 -23.075  0.00  0.00    +0.048 C 
ATOM     11  C   UNL     1      34.382 -19.150 -23.981  0.00  0.00    +0.015 C 
ATOM     12  C   UNL     1      35.068 -16.876 -23.540  0.00  0.00    +0.015 C 
ATOM     13  C   UNL     1      34.215 -18.838 -25.330  0.00  0.00    +0.001 C 
ATOM     14  C   UNL     1      34.902 -16.564 -24.889  0.00  0.00    +0.001 C 
ATOM     15  C   UNL     1      34.476 -17.546 -25.785  0.00  0.00    +0.000 C 
ENDBRANCH   1  10
BRANCH   1  16
ATOM     16  C   UNL     1      35.355 -17.447 -20.764  0.00  0.00    +0.118 C 
BRANCH  16  17
ATOM     17  C   UNL     1      34.357 -16.323 -20.782  0.00  0.00    -0.002 C 
ATOM     18  C   UNL     1      33.003 -16.607 -20.653  0.00  0.00    -0.003 C 
ATOM     19  C   UNL     1      34.799 -15.015 -20.929  0.00  0.00    -0.003 C 
ATOM     20  C   UNL     1      32.076 -15.564 -20.670  0.00  0.00    -0.000 C 
ATOM     21  C   UNL     1      33.872 -13.973 -20.945  0.00  0.00    -0.000 C 
ATOM     22  C   UNL     1      32.511 -14.248 -20.816  0.00  0.00    -0.000 C 
ENDBRANCH  16  17
ENDBRANCH   1  16
TORSDOF 4
ENDMDL
MODEL 8
REMARK VINA RESULT:      -8.1     10.452     14.407
REMARK  Name = 72075
REMARK  4 active torsions:
REMARK  status: ('A' for Active; 'I' for Inactive)
REMARK    1  A    between atoms: N_1  and  C_3
REMARK    2  A    between atoms: N_1  and  C_10
REMARK    3  A    between atoms: N_1  and  C_16
REMARK    4  A    between atoms: C_16  and  C_17
REMARK                            x       y       z     vdW  Elec       q    Type
REMARK                         _______ _______ _______ _____ _____    ______ ____
ROOT
ATOM      1  N   UNL     1      34.836 -23.727 -14.327  0.00  0.00    -0.305 N 
ENDROOT
BRANCH   1   3
ATOM      2  N   UNL     1      35.983 -22.183 -18.082  0.00  0.00    +0.386 N 
ATOM      3  C   UNL     1      34.948 -22.777 -15.412  0.00  0.00    +0.069 C 
ATOM      4  C   UNL     1      36.420 -22.449 -15.661  0.00  0.00    -0.003 C 
ATOM      5  C   UNL     1      34.314 -23.351 -16.678  0.00  0.00    -0.003 C 
ATOM      6  C   UNL     1      36.588 -21.562 -16.896  0.00  0.00    -0.076 C 
ATOM      7  C   UNL     1      34.549 -22.433 -17.879  0.00  0.00    -0.076 C 
ATOM      8  C   UNL     1      36.196 -21.347 -19.262  0.00  0.00    -0.101 C 
ATOM      9  H   UNL     1      36.441 -23.083 -18.232  0.00  0.00    -0.080 HD
ENDBRANCH   1   3
BRANCH   1  10
ATOM     10  C   UNL     1      35.705 -24.818 -14.226  0.00  0.00    +0.048 C 
ATOM     11  C   UNL     1      36.446 -25.029 -13.056  0.00  0.00    +0.015 C 
ATOM     12  C   UNL     1      35.844 -25.715 -15.293  0.00  0.00    +0.015 C 
ATOM     13  C   UNL     1      37.312 -26.117 -12.956  0.00  0.00    +0.001 C 
ATOM     14  C   UNL     1      36.709 -26.803 -15.192  0.00  0.00    +0.001 C 
ATOM     15  C   UNL     1      37.444 -27.005 -14.023  0.00  0.00    +0.000 C 
ENDBRANCH   1  10
BRANCH   1  16
ATOM     16  C   UNL     1      33.778 -23.529 -13.338  0.00  0.00    +0.118 C 
BRANCH  16  17
ATOM     17  C   UNL     1      32.429 -23.770 -13.954  0.00  0.00    -0.002 C 
ATOM     18  C   UNL     1      31.681 -22.691 -14.411  0.00  0.00    -0.003 C 
ATOM     19  C   UNL     1      31.944 -25.067 -14.059  0.00  0.00    -0.003 C 
ATOM     20  C   UNL     1      30.429 -22.914 -14.983  0.00  0.00    -0.000 C 
ATOM     21  C   UNL     1      30.691 -25.289 -14.631  0.00  0.00    -0.000 C 
ATOM     22  C   UNL     1      29.934 -24.213 -15.093  0.00  0.00    -0.000 C 
ENDBRANCH  16  17
ENDBRANCH   1  16
TORSDOF 4
ENDMDL
MODEL 9
REMARK VINA RESULT:      -8.1      2.884      7.318
REMARK  Name = 72075
REMARK  4 active torsions:
REMARK  status: ('A' for Active; 'I' for Inactive)
REMARK    1  A    between atoms: N_1  and  C_3
REMARK    2  A    between atoms: N_1  and  C_10
REMARK    3  A    between atoms: N_1  and  C_16
REMARK    4  A    between atoms: C_16  and  C_17
REMARK                            x       y       z     vdW  Elec       q    Type
REMARK                         _______ _______ _______ _____ _____    ______ ____
ROOT
ATOM      1  N   UNL     1      32.953  -9.577 -23.184  0.00  0.00    -0.305 N 
ENDROOT
BRANCH   1   3
ATOM      2  N   UNL     1      31.620  -5.700 -24.181  0.00  0.00    +0.386 N 
ATOM      3  C   UNL     1      32.497  -8.486 -24.015  0.00  0.00    +0.069 C 
ATOM      4  C   UNL     1      31.105  -8.041 -23.567  0.00  0.00    -0.003 C 
ATOM      5  C   UNL     1      33.477  -7.316 -23.931  0.00  0.00    -0.003 C 
ATOM      6  C   UNL     1      30.650  -6.794 -24.327  0.00  0.00    -0.076 C 
ATOM      7  C   UNL     1      32.945  -6.094 -24.681  0.00  0.00    -0.076 C 
ATOM      8  C   UNL     1      31.148  -4.501 -24.872  0.00  0.00    -0.101 C 
ATOM      9  H   UNL     1      31.709  -5.491 -23.187  0.00  0.00    -0.080 HD
ENDBRANCH   1   3
BRANCH   1  10
ATOM     10  C   UNL     1      32.270  -9.933 -22.016  0.00  0.00    +0.048 C 
ATOM     11  C   UNL     1      31.368 -11.004 -22.021  0.00  0.00    +0.015 C 
ATOM     12  C   UNL     1      32.481  -9.223 -20.827  0.00  0.00    +0.015 C 
ATOM     13  C   UNL     1      30.688 -11.360 -20.857  0.00  0.00    +0.001 C 
ATOM     14  C   UNL     1      31.800  -9.579 -19.663  0.00  0.00    +0.001 C 
ATOM     15  C   UNL     1      30.903 -10.647 -19.678  0.00  0.00    +0.000 C 
ENDBRANCH   1  10
BRANCH   1  16
ATOM     16  C   UNL     1      34.160 -10.297 -23.584  0.00  0.00    +0.118 C 
BRANCH  16  17
ATOM     17  C   UNL     1      33.803 -11.540 -24.350  0.00  0.00    -0.002 C 
ATOM     18  C   UNL     1      33.544 -12.719 -23.662  0.00  0.00    -0.003 C 
ATOM     19  C   UNL     1      33.738 -11.496 -25.736  0.00  0.00    -0.003 C 
ATOM     20  C   UNL     1      33.212 -13.872 -24.372  0.00  0.00    -0.000 C 
ATOM     21  C   UNL     1      33.406 -12.650 -26.447  0.00  0.00    -0.000 C 
ATOM     22  C   UNL     1      33.144 -13.838 -25.765  0.00  0.00    -0.000 C 
ENDBRANCH  16  17
ENDBRANCH   1  16
TORSDOF 4
ENDMDL
