MODEL 1
REMARK VINA RESULT:      -8.4      0.000      0.000
REMARK  Name = 11569967
REMARK  4 active torsions:
REMARK  status: ('A' for Active; 'I' for Inactive)
REMARK    1  A    between atoms: N_2  and  C_14
REMARK    2  A    between atoms: N_5  and  C_26
REMARK    3  A    between atoms: C_15  and  C_21
REMARK    4  A    between atoms: C_24  and  N_31
REMARK                            x       y       z     vdW  Elec       q    Type
REMARK                         _______ _______ _______ _____ _____    ______ ____
ROOT
ATOM      1  F   UNL     1      32.982 -11.149 -26.495  0.00  0.00    -0.198 F 
ATOM      2  N   UNL     1      33.283 -12.187 -23.953  0.00  0.00    -0.307 N 
ATOM      3  N   UNL     1      33.725 -14.326 -24.898  0.00  0.00    -0.320 NA
ATOM      4  N   UNL     1      33.716 -14.606 -27.291  0.00  0.00    -0.167 NA
ATOM      5  N   UNL     1      34.153 -16.419 -25.867  0.00  0.00    -0.247 N 
ATOM      6  C   UNL     1      33.430 -13.003 -25.062  0.00  0.00    +0.222 C 
ATOM      7  C   UNL     1      33.271 -12.444 -26.329  0.00  0.00    +0.204 C 
ATOM      8  C   UNL     1      33.850 -15.049 -26.026  0.00  0.00    +0.150 C 
ATOM      9  C   UNL     1      33.425 -13.294 -27.406  0.00  0.00    +0.145 C 
ATOM     10  H   UNL     1      33.070 -11.237 -24.100  0.00  0.00    +0.149 HD
ATOM     11  H   UNL     1      34.235 -16.908 -26.717  0.00  0.00    +0.165 HD
ENDROOT
BRANCH   2  14
ATOM     12  C   UNL     1      32.431 -13.807 -22.301  0.00  0.00    +0.018 C 
ATOM     13  C   UNL     1      31.843 -12.271 -20.785  0.00  0.00    +0.010 C 
ATOM     14  C   UNL     1      33.423 -12.651 -22.591  0.00  0.00    +0.080 C 
ATOM     15  C   UNL     1      33.015 -11.580 -21.529  0.00  0.00    +0.094 C 
ATOM     16  C   UNL     1      31.158 -13.045 -21.917  0.00  0.00    +0.002 C 
ATOM     17  C   UNL     1      32.772 -14.369 -20.938  0.00  0.00    +0.002 C 
ATOM     18  C   UNL     1      32.418 -13.448 -20.029  0.00  0.00    +0.001 C 
BRANCH  15  21
ATOM     19  O   UNL     1      33.196  -9.719 -23.020  0.00  0.00    -0.275 OA
ATOM     20  N   UNL     1      31.501  -9.707 -21.464  0.00  0.00    -0.329 N 
ATOM     21  C   UNL     1      32.594 -10.254 -22.093  0.00  0.00    +0.221 C 
ATOM     22  H   UNL     1      31.148  -8.838 -21.760  0.00  0.00    +0.145 HD
ATOM     23  H   UNL     1      31.074 -10.184 -20.716  0.00  0.00    +0.145 HD
ENDBRANCH  15  21
ENDBRANCH   2  14
BRANCH   5  26
ATOM     24  C   UNL     1      34.773 -18.818 -22.475  0.00  0.00    +0.044 C 
ATOM     25  C   UNL     1      34.760 -17.428 -22.354  0.00  0.00    -0.007 C 
ATOM     26  C   UNL     1      34.361 -17.223 -24.730  0.00  0.00    +0.057 C 
ATOM     27  C   UNL     1      34.580 -19.411 -23.723  0.00  0.00    +0.015 C 
ATOM     28  C   UNL     1      34.555 -16.632 -23.480  0.00  0.00    +0.012 C 
ATOM     29  C   UNL     1      34.373 -18.613 -24.850  0.00  0.00    +0.016 C 
ATOM     30  C   UNL     1      34.964 -16.767 -21.029  0.00  0.00    +0.032 C 
BRANCH  24  31
ATOM     31  N   UNL     1      34.979 -19.632 -21.356  0.00  0.00    -0.312 N 
ATOM     32  N   UNL     1      35.417 -21.074 -18.929  0.00  0.00    +0.388 N 
ATOM     33  C   UNL     1      33.844 -19.990 -20.499  0.00  0.00    +0.068 C 
ATOM     34  C   UNL     1      36.285 -19.569 -20.687  0.00  0.00    +0.068 C 
ATOM     35  C   UNL     1      34.165 -21.240 -19.677  0.00  0.00    -0.056 C 
ATOM     36  C   UNL     1      36.527 -20.833 -19.860  0.00  0.00    -0.056 C 
ATOM     37  C   UNL     1      35.685 -22.254 -18.107  0.00  0.00    -0.101 C 
ATOM     38  H   UNL     1      35.327 -20.269 -18.310  0.00  0.00    -0.080 HD
ENDBRANCH  24  31
ENDBRANCH   5  26
TORSDOF 4
ENDMDL
MODEL 2
REMARK VINA RESULT:      -8.3      1.423      2.148
REMARK  Name = 11569967
REMARK  4 active torsions:
REMARK  status: ('A' for Active; 'I' for Inactive)
REMARK    1  A    between atoms: N_2  and  C_14
REMARK    2  A    between atoms: N_5  and  C_26
REMARK    3  A    between atoms: C_15  and  C_21
REMARK    4  A    between atoms: C_24  and  N_31
REMARK                            x       y       z     vdW  Elec       q    Type
REMARK                         _______ _______ _______ _____ _____    ______ ____
ROOT
ATOM      1  F   UNL     1      33.069 -12.516 -25.866  0.00  0.00    -0.198 F 
ATOM      2  N   UNL     1      33.667 -13.305 -23.288  0.00  0.00    -0.307 N 
ATOM      3  N   UNL     1      33.975 -15.535 -24.061  0.00  0.00    -0.320 NA
ATOM      4  N   UNL     1      33.674 -16.048 -26.396  0.00  0.00    -0.167 NA
ATOM      5  N   UNL     1      34.267 -17.721 -24.861  0.00  0.00    -0.247 N 
ATOM      6  C   UNL     1      33.672 -14.229 -24.320  0.00  0.00    +0.222 C 
ATOM      7  C   UNL     1      33.365 -13.794 -25.608  0.00  0.00    +0.204 C 
ATOM      8  C   UNL     1      33.957 -16.367 -25.118  0.00  0.00    +0.150 C 
ATOM      9  C   UNL     1      33.382 -14.748 -26.605  0.00  0.00    +0.145 C 
ATOM     10  H   UNL     1      33.445 -12.371 -23.502  0.00  0.00    +0.149 HD
ATOM     11  H   UNL     1      34.241 -18.292 -25.662  0.00  0.00    +0.165 HD
ENDROOT
BRANCH   2  14
ATOM     12  C   UNL     1      33.877 -15.168 -21.686  0.00  0.00    +0.018 C 
ATOM     13  C   UNL     1      32.367 -14.370 -20.239  0.00  0.00    +0.010 C 
ATOM     14  C   UNL     1      33.969 -13.636 -21.914  0.00  0.00    +0.080 C 
ATOM     15  C   UNL     1      32.917 -13.080 -20.900  0.00  0.00    +0.094 C 
ATOM     16  C   UNL     1      32.381 -15.360 -21.411  0.00  0.00    +0.002 C 
ATOM     17  C   UNL     1      34.395 -15.453 -20.293  0.00  0.00    +0.002 C 
ATOM     18  C   UNL     1      33.489 -14.977 -19.427  0.00  0.00    +0.001 C 
BRANCH  15  21
ATOM     19  O   UNL     1      31.593 -12.273 -22.720  0.00  0.00    -0.275 OA
ATOM     20  N   UNL     1      31.100 -11.526 -20.600  0.00  0.00    -0.329 N 
ATOM     21  C   UNL     1      31.812 -12.269 -21.512  0.00  0.00    +0.221 C 
ATOM     22  H   UNL     1      30.354 -10.960 -20.903  0.00  0.00    +0.145 HD
ATOM     23  H   UNL     1      31.338 -11.560 -19.646  0.00  0.00    +0.145 HD
ENDBRANCH  15  21
ENDBRANCH   2  14
BRANCH   5  26
ATOM     24  C   UNL     1      35.275 -19.786 -21.345  0.00  0.00    +0.044 C 
ATOM     25  C   UNL     1      33.943 -19.469 -21.610  0.00  0.00    -0.007 C 
ATOM     26  C   UNL     1      34.605 -18.413 -23.683  0.00  0.00    +0.057 C 
ATOM     27  C   UNL     1      36.273 -19.418 -22.248  0.00  0.00    +0.015 C 
ATOM     28  C   UNL     1      33.608 -18.783 -22.777  0.00  0.00    +0.012 C 
ATOM     29  C   UNL     1      35.937 -18.732 -23.416  0.00  0.00    +0.016 C 
ATOM     30  C   UNL     1      32.855 -19.852 -20.660  0.00  0.00    +0.032 C 
BRANCH  24  31
ATOM     31  N   UNL     1      35.629 -20.473 -20.178  0.00  0.00    -0.312 N 
ATOM     32  N   UNL     1      36.447 -22.063 -17.951  0.00  0.00    +0.388 N 
ATOM     33  C   UNL     1      36.984 -20.336 -19.637  0.00  0.00    +0.068 C 
ATOM     34  C   UNL     1      34.960 -21.750 -19.900  0.00  0.00    +0.068 C 
ATOM     35  C   UNL     1      37.013 -20.725 -18.157  0.00  0.00    -0.056 C 
ATOM     36  C   UNL     1      35.053 -22.093 -18.412  0.00  0.00    -0.056 C 
ATOM     37  C   UNL     1      36.529 -22.445 -16.541  0.00  0.00    -0.101 C 
ATOM     38  H   UNL     1      36.987 -22.736 -18.494  0.00  0.00    -0.080 HD
ENDBRANCH  24  31
ENDBRANCH   5  26
TORSDOF 4
ENDMDL
MODEL 3
REMARK VINA RESULT:      -8.2      3.750      9.620
REMARK  Name = 11569967
REMARK  4 active torsions:
REMARK  status: ('A' for Active; 'I' for Inactive)
REMARK    1  A    between atoms: N_2  and  C_14
REMARK    2  A    between atoms: N_5  and  C_26
REMARK    3  A    between atoms: C_15  and  C_21
REMARK    4  A    between atoms: C_24  and  N_31
REMARK                            x       y       z     vdW  Elec       q    Type
REMARK                         _______ _______ _______ _____ _____    ______ ____
ROOT
ATOM      1  F   UNL     1      33.878 -17.106 -21.540  0.00  0.00    -0.198 F 
ATOM      2  N   UNL     1      34.199 -14.975 -23.268  0.00  0.00    -0.307 N 
ATOM      3  N   UNL     1      32.976 -13.594 -21.765  0.00  0.00    -0.320 NA
ATOM      4  N   UNL     1      32.122 -14.519 -19.710  0.00  0.00    -0.167 NA
ATOM      5  N   UNL     1      31.763 -12.266 -20.259  0.00  0.00    -0.247 N 
ATOM      6  C   UNL     1      33.504 -14.813 -22.082  0.00  0.00    +0.222 C 
ATOM      7  C   UNL     1      33.362 -15.910 -21.234  0.00  0.00    +0.204 C 
ATOM      8  C   UNL     1      32.315 -13.522 -20.595  0.00  0.00    +0.150 C 
ATOM      9  C   UNL     1      32.661 -15.704 -20.063  0.00  0.00    +0.145 C 
ATOM     10  H   UNL     1      34.569 -15.864 -23.472  0.00  0.00    +0.149 HD
ATOM     11  H   UNL     1      31.289 -12.260 -19.396  0.00  0.00    +0.165 HD
ENDROOT
BRANCH   2  14
ATOM     12  C   UNL     1      33.394 -12.764 -24.003  0.00  0.00    +0.018 C 
ATOM     13  C   UNL     1      32.973 -13.384 -26.111  0.00  0.00    +0.010 C 
ATOM     14  C   UNL     1      34.412 -13.913 -24.225  0.00  0.00    +0.080 C 
ATOM     15  C   UNL     1      34.120 -14.343 -25.699  0.00  0.00    +0.094 C 
ATOM     16  C   UNL     1      32.182 -13.252 -24.804  0.00  0.00    +0.002 C 
ATOM     17  C   UNL     1      33.802 -11.614 -24.899  0.00  0.00    +0.002 C 
ATOM     18  C   UNL     1      33.548 -11.986 -26.162  0.00  0.00    +0.001 C 
BRANCH  15  21
ATOM     19  O   UNL     1      34.447 -16.706 -25.536  0.00  0.00    -0.275 OA
ATOM     20  N   UNL     1      32.482 -15.939 -26.457  0.00  0.00    -0.329 N 
ATOM     21  C   UNL     1      33.717 -15.778 -25.874  0.00  0.00    +0.221 C 
ATOM     22  H   UNL     1      32.128 -16.844 -26.615  0.00  0.00    +0.145 HD
ATOM     23  H   UNL     1      31.954 -15.151 -26.716  0.00  0.00    +0.145 HD
ENDBRANCH  15  21
ENDBRANCH   2  14
BRANCH   5  26
ATOM     24  C   UNL     1      31.744  -8.552 -22.221  0.00  0.00    +0.044 C 
ATOM     25  C   UNL     1      32.283  -8.661 -20.939  0.00  0.00    -0.007 C 
ATOM     26  C   UNL     1      31.757 -11.022 -20.916  0.00  0.00    +0.057 C 
ATOM     27  C   UNL     1      31.213  -9.677 -22.852  0.00  0.00    +0.015 C 
ATOM     28  C   UNL     1      32.288  -9.894 -20.287  0.00  0.00    +0.012 C 
ATOM     29  C   UNL     1      31.219 -10.911 -22.200  0.00  0.00    +0.016 C 
ATOM     30  C   UNL     1      32.859  -7.472 -20.241  0.00  0.00    +0.032 C 
BRANCH  24  31
ATOM     31  N   UNL     1      31.729  -7.323 -22.889  0.00  0.00    -0.312 N 
ATOM     32  N   UNL     1      31.517  -4.914 -24.410  0.00  0.00    +0.388 N 
ATOM     33  C   UNL     1      30.733  -6.310 -22.526  0.00  0.00    +0.068 C 
ATOM     34  C   UNL     1      32.190  -7.289 -24.283  0.00  0.00    +0.068 C 
ATOM     35  C   UNL     1      31.188  -4.921 -22.979  0.00  0.00    -0.056 C 
ATOM     36  C   UNL     1      32.600  -5.869 -24.679  0.00  0.00    -0.056 C 
ATOM     37  C   UNL     1      31.899  -3.570 -24.843  0.00  0.00    -0.101 C 
ATOM     38  H   UNL     1      30.692  -5.196 -24.939  0.00  0.00    -0.080 HD
ENDBRANCH  24  31
ENDBRANCH   5  26
TORSDOF 4
ENDMDL
MODEL 4
REMARK VINA RESULT:      -7.8      6.875     12.110
REMARK  Name = 11569967
REMARK  4 active torsions:
REMARK  status: ('A' for Active; 'I' for Inactive)
REMARK    1  A    between atoms: N_2  and  C_14
REMARK    2  A    between atoms: N_5  and  C_26
REMARK    3  A    between atoms: C_15  and  C_21
REMARK    4  A    between atoms: C_24  and  N_31
REMARK                            x       y       z     vdW  Elec       q    Type
REMARK                         _______ _______ _______ _____ _____    ______ ____
ROOT
ATOM      1  F   UNL     1      34.795 -25.388 -11.881  0.00  0.00    -0.198 F 
ATOM      2  N   UNL     1      33.477 -24.611 -14.181  0.00  0.00    -0.307 N 
ATOM      3  N   UNL     1      35.428 -23.442 -14.882  0.00  0.00    -0.320 NA
ATOM      4  N   UNL     1      37.396 -23.447 -13.491  0.00  0.00    -0.167 NA
ATOM      5  N   UNL     1      37.369 -22.299 -15.538  0.00  0.00    -0.247 N 
ATOM      6  C   UNL     1      34.787 -24.217 -13.960  0.00  0.00    +0.222 C 
ATOM      7  C   UNL     1      35.419 -24.629 -12.788  0.00  0.00    +0.204 C 
ATOM      8  C   UNL     1      36.698 -23.103 -14.591  0.00  0.00    +0.150 C 
ATOM      9  C   UNL     1      36.723 -24.213 -12.607  0.00  0.00    +0.145 C 
ATOM     10  H   UNL     1      33.039 -25.169 -13.499  0.00  0.00    +0.149 HD
ATOM     11  H   UNL     1      38.293 -22.076 -15.283  0.00  0.00    +0.165 HD
ENDROOT
BRANCH   2  14
ATOM     12  C   UNL     1      32.756 -22.713 -15.580  0.00  0.00    +0.018 C 
ATOM     13  C   UNL     1      30.565 -23.120 -15.371  0.00  0.00    +0.010 C 
ATOM     14  C   UNL     1      32.718 -24.247 -15.356  0.00  0.00    +0.080 C 
ATOM     15  C   UNL     1      31.188 -24.532 -15.215  0.00  0.00    +0.094 C 
ATOM     16  C   UNL     1      31.609 -22.233 -14.683  0.00  0.00    +0.002 C 
ATOM     17  C   UNL     1      32.117 -22.433 -16.923  0.00  0.00    +0.002 C 
ATOM     18  C   UNL     1      30.804 -22.675 -16.797  0.00  0.00    +0.001 C 
BRANCH  15  21
ATOM     19  O   UNL     1      31.580 -25.382 -13.014  0.00  0.00    -0.275 OA
ATOM     20  N   UNL     1      29.442 -25.490 -13.859  0.00  0.00    -0.329 N 
ATOM     21  C   UNL     1      30.777 -25.166 -13.918  0.00  0.00    +0.221 C 
ATOM     22  H   UNL     1      29.074 -25.911 -13.049  0.00  0.00    +0.145 HD
ATOM     23  H   UNL     1      28.856 -25.301 -14.626  0.00  0.00    +0.145 HD
ENDBRANCH  15  21
ENDBRANCH   2  14
BRANCH   5  26
ATOM     24  C   UNL     1      36.197 -20.674 -19.229  0.00  0.00    +0.044 C 
ATOM     25  C   UNL     1      35.564 -21.815 -18.737  0.00  0.00    -0.007 C 
ATOM     26  C   UNL     1      36.976 -21.755 -16.774  0.00  0.00    +0.057 C 
ATOM     27  C   UNL     1      37.218 -20.072 -18.495  0.00  0.00    +0.015 C 
ATOM     28  C   UNL     1      35.953 -22.356 -17.512  0.00  0.00    +0.012 C 
ATOM     29  C   UNL     1      37.607 -20.612 -17.268  0.00  0.00    +0.016 C 
ATOM     30  C   UNL     1      34.466 -22.480 -19.503  0.00  0.00    +0.032 C 
BRANCH  24  31
ATOM     31  N   UNL     1      35.819 -20.120 -20.457  0.00  0.00    -0.312 N 
ATOM     32  N   UNL     1      34.971 -18.777 -22.831  0.00  0.00    +0.388 N 
ATOM     33  C   UNL     1      36.745 -19.235 -21.171  0.00  0.00    +0.068 C 
ATOM     34  C   UNL     1      34.391 -19.866 -20.690  0.00  0.00    +0.068 C 
ATOM     35  C   UNL     1      36.378 -19.157 -22.655  0.00  0.00    -0.056 C 
ATOM     36  C   UNL     1      34.100 -19.769 -22.189  0.00  0.00    -0.056 C 
ATOM     37  C   UNL     1      34.647 -18.654 -24.252  0.00  0.00    -0.101 C 
ATOM     38  H   UNL     1      34.817 -17.870 -22.391  0.00  0.00    -0.080 HD
ENDBRANCH  24  31
ENDBRANCH   5  26
TORSDOF 4
ENDMDL
MODEL 5
REMARK VINA RESULT:      -7.7      7.378     12.457
REMARK  Name = 11569967
REMARK  4 active torsions:
REMARK  status: ('A' for Active; 'I' for Inactive)
REMARK    1  A    between atoms: N_2  and  C_14
REMARK    2  A    between atoms: N_5  and  C_26
REMARK    3  A    between atoms: C_15  and  C_21
REMARK    4  A    between atoms: C_24  and  N_31
REMARK                            x       y       z     vdW  Elec       q    Type
REMARK                         _______ _______ _______ _____ _____    ______ ____
ROOT
ATOM      1  F   UNL     1      31.688 -25.699 -12.408  0.00  0.00    -0.198 F 
ATOM      2  N   UNL     1      33.935 -24.441 -13.406  0.00  0.00    -0.307 N 
ATOM      3  N   UNL     1      32.704 -23.818 -15.345  0.00  0.00    -0.320 NA
ATOM      4  N   UNL     1      30.391 -24.461 -15.556  0.00  0.00    -0.167 NA
ATOM      5  N   UNL     1      31.458 -23.225 -17.242  0.00  0.00    -0.247 N 
ATOM      6  C   UNL     1      32.756 -24.442 -14.132  0.00  0.00    +0.222 C 
ATOM      7  C   UNL     1      31.642 -25.087 -13.596  0.00  0.00    +0.204 C 
ATOM      8  C   UNL     1      31.521 -23.866 -15.985  0.00  0.00    +0.150 C 
ATOM      9  C   UNL     1      30.488 -25.064 -14.354  0.00  0.00    +0.145 C 
ATOM     10  H   UNL     1      33.945 -24.899 -12.534  0.00  0.00    +0.149 HD
ATOM     11  H   UNL     1      30.575 -23.286 -17.673  0.00  0.00    +0.165 HD
ENDROOT
BRANCH   2  14
ATOM     12  C   UNL     1      35.864 -24.680 -14.923  0.00  0.00    +0.018 C 
ATOM     13  C   UNL     1      37.414 -24.517 -13.317  0.00  0.00    +0.010 C 
ATOM     14  C   UNL     1      35.153 -23.807 -13.856  0.00  0.00    +0.080 C 
ATOM     15  C   UNL     1      36.238 -23.689 -12.737  0.00  0.00    +0.094 C 
ATOM     16  C   UNL     1      36.679 -25.644 -14.053  0.00  0.00    +0.002 C 
ATOM     17  C   UNL     1      37.010 -23.869 -15.487  0.00  0.00    +0.002 C 
ATOM     18  C   UNL     1      37.940 -23.773 -14.525  0.00  0.00    +0.001 C 
BRANCH  15  21
ATOM     19  O   UNL     1      34.962 -25.075 -11.264  0.00  0.00    -0.275 OA
ATOM     20  N   UNL     1      36.475 -23.609 -10.341  0.00  0.00    -0.329 N 
ATOM     21  C   UNL     1      35.822 -24.207 -11.392  0.00  0.00    +0.221 C 
ATOM     22  H   UNL     1      36.272 -23.879  -9.417  0.00  0.00    +0.145 HD
ATOM     23  H   UNL     1      37.145 -22.909 -10.513  0.00  0.00    +0.145 HD
ENDBRANCH  15  21
ENDBRANCH   2  14
BRANCH   5  26
ATOM     24  C   UNL     1      34.299 -21.113 -19.502  0.00  0.00    +0.044 C 
ATOM     25  C   UNL     1      32.947 -20.786 -19.601  0.00  0.00    -0.007 C 
ATOM     26  C   UNL     1      32.410 -22.517 -17.999  0.00  0.00    +0.057 C 
ATOM     27  C   UNL     1      34.708 -22.141 -18.652  0.00  0.00    +0.015 C 
ATOM     28  C   UNL     1      32.003 -21.487 -18.851  0.00  0.00    +0.012 C 
ATOM     29  C   UNL     1      33.764 -22.842 -17.901  0.00  0.00    +0.016 C 
ATOM     30  C   UNL     1      32.482 -19.690 -20.503  0.00  0.00    +0.032 C 
BRANCH  24  31
ATOM     31  N   UNL     1      35.259 -20.420 -20.248  0.00  0.00    -0.312 N 
ATOM     32  N   UNL     1      37.283 -19.235 -21.879  0.00  0.00    +0.388 N 
ATOM     33  C   UNL     1      34.938 -19.969 -21.605  0.00  0.00    +0.068 C 
ATOM     34  C   UNL     1      36.675 -20.717 -19.996  0.00  0.00    +0.068 C 
ATOM     35  C   UNL     1      35.878 -18.839 -22.033  0.00  0.00    -0.056 C 
ATOM     36  C   UNL     1      37.559 -19.563 -20.475  0.00  0.00    -0.056 C 
ATOM     37  C   UNL     1      38.171 -18.168 -22.341  0.00  0.00    -0.101 C 
ATOM     38  H   UNL     1      37.456 -20.062 -22.450  0.00  0.00    -0.080 HD
ENDBRANCH  24  31
ENDBRANCH   5  26
TORSDOF 4
ENDMDL
MODEL 6
REMARK VINA RESULT:      -6.7      3.836      9.855
REMARK  Name = 11569967
REMARK  4 active torsions:
REMARK  status: ('A' for Active; 'I' for Inactive)
REMARK    1  A    between atoms: N_2  and  C_14
REMARK    2  A    between atoms: N_5  and  C_26
REMARK    3  A    between atoms: C_15  and  C_21
REMARK    4  A    between atoms: C_24  and  N_31
REMARK                            x       y       z     vdW  Elec       q    Type
REMARK                         _______ _______ _______ _____ _____    ______ ____
ROOT
ATOM      1  F   UNL     1      32.934 -16.740 -21.148  0.00  0.00    -0.198 F 
ATOM      2  N   UNL     1      33.653 -15.117 -23.264  0.00  0.00    -0.307 N 
ATOM      3  N   UNL     1      32.859 -13.225 -22.060  0.00  0.00    -0.320 NA
ATOM      4  N   UNL     1      31.919 -13.510 -19.859  0.00  0.00    -0.167 NA
ATOM      5  N   UNL     1      32.064 -11.384 -20.841  0.00  0.00    -0.247 N 
ATOM      6  C   UNL     1      33.074 -14.571 -22.131  0.00  0.00    +0.222 C 
ATOM      7  C   UNL     1      32.725 -15.421 -21.083  0.00  0.00    +0.204 C 
ATOM      8  C   UNL     1      32.293 -12.775 -20.924  0.00  0.00    +0.150 C 
ATOM      9  C   UNL     1      32.150 -14.834 -19.973  0.00  0.00    +0.145 C 
ATOM     10  H   UNL     1      33.796 -16.091 -23.290  0.00  0.00    +0.149 HD
ATOM     11  H   UNL     1      31.648 -11.101 -19.995  0.00  0.00    +0.165 HD
ENDROOT
BRANCH   2  14
ATOM     12  C   UNL     1      32.858 -13.532 -24.978  0.00  0.00    +0.018 C 
ATOM     13  C   UNL     1      33.462 -14.794 -26.725  0.00  0.00    +0.010 C 
ATOM     14  C   UNL     1      34.057 -14.338 -24.413  0.00  0.00    +0.080 C 
ATOM     15  C   UNL     1      34.481 -15.216 -25.635  0.00  0.00    +0.094 C 
ATOM     16  C   UNL     1      32.191 -14.558 -25.900  0.00  0.00    +0.002 C 
ATOM     17  C   UNL     1      33.397 -12.599 -26.040  0.00  0.00    +0.002 C 
ATOM     18  C   UNL     1      33.757 -13.355 -27.088  0.00  0.00    +0.001 C 
BRANCH  15  21
ATOM     19  O   UNL     1      33.603 -17.421 -25.933  0.00  0.00    -0.275 OA
ATOM     20  N   UNL     1      35.402 -17.146 -24.526  0.00  0.00    -0.329 N 
ATOM     21  C   UNL     1      34.439 -16.697 -25.398  0.00  0.00    +0.221 C 
ATOM     22  H   UNL     1      35.458 -18.103 -24.305  0.00  0.00    +0.145 HD
ATOM     23  H   UNL     1      36.034 -16.509 -24.122  0.00  0.00    +0.145 HD
ENDBRANCH  15  21
ENDBRANCH   2  14
BRANCH   5  26
ATOM     24  C   UNL     1      32.809  -8.217 -23.498  0.00  0.00    +0.044 C 
ATOM     25  C   UNL     1      33.466  -9.436 -23.664  0.00  0.00    -0.007 C 
ATOM     26  C   UNL     1      32.313 -10.323 -21.732  0.00  0.00    +0.057 C 
ATOM     27  C   UNL     1      31.904  -8.050 -22.450  0.00  0.00    +0.015 C 
ATOM     28  C   UNL     1      33.219 -10.488 -22.782  0.00  0.00    +0.012 C 
ATOM     29  C   UNL     1      31.656  -9.103 -21.568  0.00  0.00    +0.016 C 
ATOM     30  C   UNL     1      34.440  -9.642 -24.779  0.00  0.00    +0.032 C 
BRANCH  24  31
ATOM     31  N   UNL     1      33.046  -7.151 -24.374  0.00  0.00    -0.312 N 
ATOM     32  N   UNL     1      33.530  -4.820 -25.952  0.00  0.00    +0.388 N 
ATOM     33  C   UNL     1      34.420  -6.699 -24.613  0.00  0.00    +0.068 C 
ATOM     34  C   UNL     1      32.006  -6.123 -24.506  0.00  0.00    +0.068 C 
ATOM     35  C   UNL     1      34.507  -5.916 -25.925  0.00  0.00    -0.056 C 
ATOM     36  C   UNL     1      32.170  -5.359 -25.822  0.00  0.00    -0.056 C 
ATOM     37  C   UNL     1      33.659  -4.047 -27.187  0.00  0.00    -0.101 C 
ATOM     38  H   UNL     1      33.713  -4.197 -25.166  0.00  0.00    -0.080 HD
ENDBRANCH  24  31
ENDBRANCH   5  26
TORSDOF 4
ENDMDL
MODEL 7
REMARK VINA RESULT:      -6.4      3.405      6.682
REMARK  Name = 11569967
REMARK  4 active torsions:
REMARK  status: ('A' for Active; 'I' for Inactive)
REMARK    1  A    between atoms: N_2  and  C_14
REMARK    2  A    between atoms: N_5  and  C_26
REMARK    3  A    between atoms: C_15  and  C_21
REMARK    4  A    between atoms: C_24  and  N_31
REMARK                            x       y       z     vdW  Elec       q    Type
REMARK                         _______ _______ _______ _____ _____    ______ ____
ROOT
ATOM      1  F   UNL     1      31.482  -5.910 -20.366  0.00  0.00    -0.198 F 
ATOM      2  N   UNL     1      32.495  -7.437 -22.432  0.00  0.00    -0.307 N 
ATOM      3  N   UNL     1      32.150  -9.398 -21.128  0.00  0.00    -0.320 NA
ATOM      4  N   UNL     1      31.214  -9.218 -18.914  0.00  0.00    -0.167 NA
ATOM      5  N   UNL     1      31.798 -11.307 -19.810  0.00  0.00    -0.247 N 
ATOM      6  C   UNL     1      32.069  -8.042 -21.261  0.00  0.00    +0.222 C 
ATOM      7  C   UNL     1      31.564  -7.238 -20.239  0.00  0.00    +0.204 C 
ATOM      8  C   UNL     1      31.716  -9.905 -19.959  0.00  0.00    +0.150 C 
ATOM      9  C   UNL     1      31.152  -7.882 -19.090  0.00  0.00    +0.145 C 
ATOM     10  H   UNL     1      32.425  -6.457 -22.501  0.00  0.00    +0.149 HD
ATOM     11  H   UNL     1      31.471 -11.632 -18.941  0.00  0.00    +0.165 HD
ENDROOT
BRANCH   2  14
ATOM     12  C   UNL     1      34.505  -8.580 -23.287  0.00  0.00    +0.018 C 
ATOM     13  C   UNL     1      34.689  -7.328 -25.132  0.00  0.00    +0.010 C 
ATOM     14  C   UNL     1      33.036  -8.163 -23.558  0.00  0.00    +0.080 C 
ATOM     15  C   UNL     1      33.164  -7.293 -24.850  0.00  0.00    +0.094 C 
ATOM     16  C   UNL     1      35.276  -7.327 -23.716  0.00  0.00    +0.002 C 
ATOM     17  C   UNL     1      34.933  -9.498 -24.411  0.00  0.00    +0.002 C 
ATOM     18  C   UNL     1      35.045  -8.747 -25.517  0.00  0.00    +0.001 C 
BRANCH  15  21
ATOM     19  O   UNL     1      31.967  -5.523 -23.776  0.00  0.00    -0.275 OA
ATOM     20  N   UNL     1      33.061  -5.059 -25.746  0.00  0.00    -0.329 N 
ATOM     21  C   UNL     1      32.670  -5.882 -24.717  0.00  0.00    +0.221 C 
ATOM     22  H   UNL     1      32.787  -4.114 -25.751  0.00  0.00    +0.145 HD
ATOM     23  H   UNL     1      33.614  -5.415 -26.478  0.00  0.00    +0.145 HD
ENDBRANCH  15  21
ENDBRANCH   2  14
BRANCH   5  26
ATOM     24  C   UNL     1      33.167 -14.358 -22.351  0.00  0.00    +0.044 C 
ATOM     25  C   UNL     1      32.773 -14.660 -21.048  0.00  0.00    -0.007 C 
ATOM     26  C   UNL     1      32.256 -12.329 -20.662  0.00  0.00    +0.057 C 
ATOM     27  C   UNL     1      33.106 -13.043 -22.811  0.00  0.00    +0.015 C 
ATOM     28  C   UNL     1      32.319 -13.647 -20.204  0.00  0.00    +0.012 C 
ATOM     29  C   UNL     1      32.650 -12.029 -21.967  0.00  0.00    +0.016 C 
ATOM     30  C   UNL     1      32.828 -16.061 -20.530  0.00  0.00    +0.032 C 
BRANCH  24  31
ATOM     31  N   UNL     1      33.626 -15.363 -23.211  0.00  0.00    -0.312 N 
ATOM     32  N   UNL     1      34.737 -17.240 -25.055  0.00  0.00    +0.388 N 
ATOM     33  C   UNL     1      34.773 -16.188 -22.818  0.00  0.00    +0.068 C 
ATOM     34  C   UNL     1      33.448 -15.169 -24.656  0.00  0.00    +0.068 C 
ATOM     35  C   UNL     1      34.790 -17.497 -23.611  0.00  0.00    -0.056 C 
ATOM     36  C   UNL     1      33.507 -16.511 -25.389  0.00  0.00    -0.056 C 
ATOM     37  C   UNL     1      34.808 -18.495 -25.803  0.00  0.00    -0.101 C 
ATOM     38  H   UNL     1      35.540 -16.668 -25.317  0.00  0.00    -0.080 HD
ENDBRANCH  24  31
ENDBRANCH   5  26
TORSDOF 4
ENDMDL
MODEL 8
REMARK VINA RESULT:      -5.7      4.572     10.526
REMARK  Name = 11569967
REMARK  4 active torsions:
REMARK  status: ('A' for Active; 'I' for Inactive)
REMARK    1  A    between atoms: N_2  and  C_14
REMARK    2  A    between atoms: N_5  and  C_26
REMARK    3  A    between atoms: C_15  and  C_21
REMARK    4  A    between atoms: C_24  and  N_31
REMARK                            x       y       z     vdW  Elec       q    Type
REMARK                         _______ _______ _______ _____ _____    ______ ____
ROOT
ATOM      1  F   UNL     1      32.606 -14.882 -20.996  0.00  0.00    -0.198 F 
ATOM      2  N   UNL     1      33.795 -13.462 -23.045  0.00  0.00    -0.307 N 
ATOM      3  N   UNL     1      32.594 -11.521 -22.372  0.00  0.00    -0.320 NA
ATOM      4  N   UNL     1      31.094 -11.629 -20.488  0.00  0.00    -0.167 NA
ATOM      5  N   UNL     1      31.390  -9.629 -21.680  0.00  0.00    -0.247 N 
ATOM      6  C   UNL     1      32.894 -12.840 -22.196  0.00  0.00    +0.222 C 
ATOM      7  C   UNL     1      32.314 -13.589 -21.173  0.00  0.00    +0.204 C 
ATOM      8  C   UNL     1      31.709 -10.994 -21.505  0.00  0.00    +0.150 C 
ATOM      9  C   UNL     1      31.421 -12.930 -20.351  0.00  0.00    +0.145 C 
ATOM     10  H   UNL     1      33.993 -14.414 -22.895  0.00  0.00    +0.149 HD
ATOM     11  H   UNL     1      30.740  -9.288 -21.025  0.00  0.00    +0.165 HD
ENDROOT
BRANCH   2  14
ATOM     12  C   UNL     1      33.924 -11.344 -24.301  0.00  0.00    +0.018 C 
ATOM     13  C   UNL     1      33.472 -12.255 -26.294  0.00  0.00    +0.010 C 
ATOM     14  C   UNL     1      34.459 -12.790 -24.139  0.00  0.00    +0.080 C 
ATOM     15  C   UNL     1      34.147 -13.425 -25.533  0.00  0.00    +0.094 C 
ATOM     16  C   UNL     1      32.685 -11.559 -25.177  0.00  0.00    +0.002 C 
ATOM     17  C   UNL     1      34.797 -10.646 -25.321  0.00  0.00    +0.002 C 
ATOM     18  C   UNL     1      34.524 -11.191 -26.516  0.00  0.00    +0.001 C 
BRANCH  15  21
ATOM     19  O   UNL     1      33.446 -15.558 -24.709  0.00  0.00    -0.275 OA
ATOM     20  N   UNL     1      32.248 -14.606 -26.427  0.00  0.00    -0.329 N 
ATOM     21  C   UNL     1      33.259 -14.634 -25.496  0.00  0.00    +0.221 C 
ATOM     22  H   UNL     1      31.611 -15.354 -26.483  0.00  0.00    +0.145 HD
ATOM     23  H   UNL     1      32.162 -13.839 -27.037  0.00  0.00    +0.145 HD
ENDBRANCH  15  21
ENDBRANCH   2  14
BRANCH   5  26
ATOM     24  C   UNL     1      32.669  -6.743 -24.451  0.00  0.00    +0.044 C 
ATOM     25  C   UNL     1      33.603  -7.417 -23.664  0.00  0.00    -0.007 C 
ATOM     26  C   UNL     1      31.819  -8.662 -22.609  0.00  0.00    +0.057 C 
ATOM     27  C   UNL     1      31.310  -7.028 -24.318  0.00  0.00    +0.015 C 
ATOM     28  C   UNL     1      33.179  -8.375 -22.744  0.00  0.00    +0.012 C 
ATOM     29  C   UNL     1      30.886  -7.988 -23.397  0.00  0.00    +0.016 C 
ATOM     30  C   UNL     1      35.065  -7.131 -23.786  0.00  0.00    +0.032 C 
BRANCH  24  31
ATOM     31  N   UNL     1      33.078  -5.778 -25.379  0.00  0.00    -0.312 N 
ATOM     32  N   UNL     1      34.006  -3.672 -27.070  0.00  0.00    +0.388 N 
ATOM     33  C   UNL     1      34.451  -5.800 -25.892  0.00  0.00    +0.068 C 
ATOM     34  C   UNL     1      32.439  -4.457 -25.327  0.00  0.00    +0.068 C 
ATOM     35  C   UNL     1      34.543  -5.031 -27.212  0.00  0.00    -0.056 C 
ATOM     36  C   UNL     1      32.596  -3.732 -26.665  0.00  0.00    -0.056 C 
ATOM     37  C   UNL     1      34.148  -2.930 -28.323  0.00  0.00    -0.101 C 
ATOM     38  H   UNL     1      34.534  -3.182 -26.348  0.00  0.00    -0.080 HD
ENDBRANCH  24  31
ENDBRANCH   5  26
TORSDOF 4
ENDMDL
