MODEL 1
REMARK VINA RESULT:      -3.7      0.000      0.000
REMARK  Name = 13129
REMARK  1 active torsions:
REMARK  status: ('A' for Active; 'I' for Inactive)
REMARK    1  A    between atoms: C_4  and  C_6
REMARK                            x       y       z     vdW  Elec       q    Type
REMARK                         _______ _______ _______ _____ _____    ______ ____
ROOT
ATOM      1  F   UNL     1      34.183 -18.153 -20.860  0.00  0.00    -0.167 F 
ATOM      2  F   UNL     1      35.082 -20.034 -20.217  0.00  0.00    -0.167 F 
ATOM      3  F   UNL     1      34.492 -19.767 -22.301  0.00  0.00    -0.167 F 
ATOM      4  C   UNL     1      34.147 -19.491 -21.025  0.00  0.00    +0.430 C 
ENDROOT
BRANCH   4   6
ATOM      5  F   UNL     1      32.783 -20.495 -19.427  0.00  0.00    -0.225 F 
ATOM      6  C   UNL     1      32.784 -20.039 -20.707  0.00  0.00    +0.296 C 
ENDBRANCH   4   6
TORSDOF 1
ENDMDL
MODEL 2
REMARK VINA RESULT:      -3.6      9.776     10.451
REMARK  Name = 13129
REMARK  1 active torsions:
REMARK  status: ('A' for Active; 'I' for Inactive)
REMARK    1  A    between atoms: C_4  and  C_6
REMARK                            x       y       z     vdW  Elec       q    Type
REMARK                         _______ _______ _______ _____ _____    ______ ____
ROOT
ATOM      1  F   UNL     1      41.694 -12.446 -17.664  0.00  0.00    -0.167 F 
ATOM      2  F   UNL     1      42.917 -14.221 -18.006  0.00  0.00    -0.167 F 
ATOM      3  F   UNL     1      40.789 -14.256 -18.490  0.00  0.00    -0.167 F 
ATOM      4  C   UNL     1      41.699 -13.794 -17.607  0.00  0.00    +0.430 C 
ENDROOT
BRANCH   4   6
ATOM      5  F   UNL     1      41.351 -13.207 -15.381  0.00  0.00    -0.225 F 
ATOM      6  C   UNL     1      41.394 -14.277 -16.217  0.00  0.00    +0.296 C 
ENDBRANCH   4   6
TORSDOF 1
ENDMDL
MODEL 3
REMARK VINA RESULT:      -3.6      2.999      4.421
REMARK  Name = 13129
REMARK  1 active torsions:
REMARK  status: ('A' for Active; 'I' for Inactive)
REMARK    1  A    between atoms: C_4  and  C_6
REMARK                            x       y       z     vdW  Elec       q    Type
REMARK                         _______ _______ _______ _____ _____    ______ ____
ROOT
ATOM      1  F   UNL     1      34.870 -19.688 -24.710  0.00  0.00    -0.167 F 
ATOM      2  F   UNL     1      36.270 -18.697 -23.362  0.00  0.00    -0.167 F 
ATOM      3  F   UNL     1      34.214 -19.057 -22.723  0.00  0.00    -0.167 F 
ATOM      4  C   UNL     1      34.985 -18.719 -23.778  0.00  0.00    +0.430 C 
ENDROOT
BRANCH   4   6
ATOM      5  F   UNL     1      34.977 -17.310 -25.632  0.00  0.00    -0.225 F 
ATOM      6  C   UNL     1      34.581 -17.384 -24.334  0.00  0.00    +0.296 C 
ENDBRANCH   4   6
TORSDOF 1
ENDMDL
MODEL 4
REMARK VINA RESULT:      -3.5      1.106      1.963
REMARK  Name = 13129
REMARK  1 active torsions:
REMARK  status: ('A' for Active; 'I' for Inactive)
REMARK    1  A    between atoms: C_4  and  C_6
REMARK                            x       y       z     vdW  Elec       q    Type
REMARK                         _______ _______ _______ _____ _____    ______ ____
ROOT
ATOM      1  F   UNL     1      34.301 -19.616 -22.566  0.00  0.00    -0.167 F 
ATOM      2  F   UNL     1      32.663 -20.047 -21.192  0.00  0.00    -0.167 F 
ATOM      3  F   UNL     1      33.877 -18.256 -20.909  0.00  0.00    -0.167 F 
ATOM      4  C   UNL     1      33.917 -19.555 -21.275  0.00  0.00    +0.430 C 
ENDROOT
BRANCH   4   6
ATOM      5  F   UNL     1      34.129 -20.988 -19.452  0.00  0.00    -0.225 F 
ATOM      6  C   UNL     1      34.854 -20.332 -20.395  0.00  0.00    +0.296 C 
ENDBRANCH   4   6
TORSDOF 1
ENDMDL
MODEL 5
REMARK VINA RESULT:      -3.5      2.954      4.339
REMARK  Name = 13129
REMARK  1 active torsions:
REMARK  status: ('A' for Active; 'I' for Inactive)
REMARK    1  A    between atoms: C_4  and  C_6
REMARK                            x       y       z     vdW  Elec       q    Type
REMARK                         _______ _______ _______ _____ _____    ______ ____
ROOT
ATOM      1  F   UNL     1      34.226 -19.010 -22.645  0.00  0.00    -0.167 F 
ATOM      2  F   UNL     1      34.975 -19.716 -24.569  0.00  0.00    -0.167 F 
ATOM      3  F   UNL     1      36.291 -18.601 -23.232  0.00  0.00    -0.167 F 
ATOM      4  C   UNL     1      35.023 -18.695 -23.686  0.00  0.00    +0.430 C 
ENDROOT
BRANCH   4   6
ATOM      5  F   UNL     1      34.960 -17.428 -25.639  0.00  0.00    -0.225 F 
ATOM      6  C   UNL     1      34.586 -17.411 -24.333  0.00  0.00    +0.296 C 
ENDBRANCH   4   6
TORSDOF 1
ENDMDL
MODEL 6
REMARK VINA RESULT:      -3.5      4.290      5.194
REMARK  Name = 13129
REMARK  1 active torsions:
REMARK  status: ('A' for Active; 'I' for Inactive)
REMARK    1  A    between atoms: C_4  and  C_6
REMARK                            x       y       z     vdW  Elec       q    Type
REMARK                         _______ _______ _______ _____ _____    ______ ____
ROOT
ATOM      1  F   UNL     1      32.286 -14.810 -22.064  0.00  0.00    -0.167 F 
ATOM      2  F   UNL     1      31.933 -16.291 -20.501  0.00  0.00    -0.167 F 
ATOM      3  F   UNL     1      32.488 -14.250 -19.961  0.00  0.00    -0.167 F 
ATOM      4  C   UNL     1      32.702 -15.239 -20.854  0.00  0.00    +0.430 C 
ENDROOT
BRANCH   4   6
ATOM      5  F   UNL     1      34.894 -14.602 -20.393  0.00  0.00    -0.225 F 
ATOM      6  C   UNL     1      34.153 -15.628 -20.888  0.00  0.00    +0.296 C 
ENDBRANCH   4   6
TORSDOF 1
ENDMDL
MODEL 7
REMARK VINA RESULT:      -3.5     10.057     10.804
REMARK  Name = 13129
REMARK  1 active torsions:
REMARK  status: ('A' for Active; 'I' for Inactive)
REMARK    1  A    between atoms: C_4  and  C_6
REMARK                            x       y       z     vdW  Elec       q    Type
REMARK                         _______ _______ _______ _____ _____    ______ ____
ROOT
ATOM      1  F   UNL     1      41.319 -13.139 -15.399  0.00  0.00    -0.167 F 
ATOM      2  F   UNL     1      43.241 -13.670 -16.283  0.00  0.00    -0.167 F 
ATOM      3  F   UNL     1      41.899 -12.309 -17.336  0.00  0.00    -0.167 F 
ATOM      4  C   UNL     1      41.945 -13.414 -16.562  0.00  0.00    +0.430 C 
ENDROOT
BRANCH   4   6
ATOM      5  F   UNL     1      40.756 -14.154 -18.422  0.00  0.00    -0.225 F 
ATOM      6  C   UNL     1      41.307 -14.583 -17.256  0.00  0.00    +0.296 C 
ENDBRANCH   4   6
TORSDOF 1
ENDMDL
MODEL 8
REMARK VINA RESULT:      -3.4      1.986      2.774
REMARK  Name = 13129
REMARK  1 active torsions:
REMARK  status: ('A' for Active; 'I' for Inactive)
REMARK    1  A    between atoms: C_4  and  C_6
REMARK                            x       y       z     vdW  Elec       q    Type
REMARK                         _______ _______ _______ _____ _____    ______ ____
ROOT
ATOM      1  F   UNL     1      35.453 -17.297 -20.736  0.00  0.00    -0.167 F 
ATOM      2  F   UNL     1      34.709 -19.347 -20.681  0.00  0.00    -0.167 F 
ATOM      3  F   UNL     1      36.848 -18.972 -20.893  0.00  0.00    -0.167 F 
ATOM      4  C   UNL     1      35.623 -18.533 -21.250  0.00  0.00    +0.430 C 
ENDROOT
BRANCH   4   6
ATOM      5  F   UNL     1      34.661 -19.549 -23.111  0.00  0.00    -0.225 F 
ATOM      6  C   UNL     1      35.471 -18.522 -22.745  0.00  0.00    +0.296 C 
ENDBRANCH   4   6
TORSDOF 1
ENDMDL
MODEL 9
REMARK VINA RESULT:      -3.4      1.600      2.544
REMARK  Name = 13129
REMARK  1 active torsions:
REMARK  status: ('A' for Active; 'I' for Inactive)
REMARK    1  A    between atoms: C_4  and  C_6
REMARK                            x       y       z     vdW  Elec       q    Type
REMARK                         _______ _______ _______ _____ _____    ______ ____
ROOT
ATOM      1  F   UNL     1      34.706 -19.670 -23.151  0.00  0.00    -0.167 F 
ATOM      2  F   UNL     1      35.380 -20.296 -21.173  0.00  0.00    -0.167 F 
ATOM      3  F   UNL     1      33.263 -19.904 -21.527  0.00  0.00    -0.167 F 
ATOM      4  C   UNL     1      34.513 -19.494 -21.828  0.00  0.00    +0.430 C 
ENDROOT
BRANCH   4   6
ATOM      5  F   UNL     1      35.955 -17.922 -20.894  0.00  0.00    -0.225 F 
ATOM      6  C   UNL     1      34.717 -18.058 -21.438  0.00  0.00    +0.296 C 
ENDBRANCH   4   6
TORSDOF 1
ENDMDL
