MODEL 1
REMARK VINA RESULT:     -11.2      0.000      0.000
REMARK  Name = 24905152
REMARK  2 active torsions:
REMARK  status: ('A' for Active; 'I' for Inactive)
REMARK    1  A    between atoms: N_1  and  C_23
REMARK    2  A    between atoms: C_7  and  C_11
REMARK                            x       y       z     vdW  Elec       q    Type
REMARK                         _______ _______ _______ _____ _____    ______ ____
ROOT
ATOM      1  N   UNL     1      32.947 -14.459 -22.654  0.00  0.00    -0.200 N 
ATOM      2  N   UNL     1      33.351 -15.369 -21.749  0.00  0.00    -0.181 NA
ATOM      3  N   UNL     1      32.916 -14.119 -25.052  0.00  0.00    -0.232 NA
ATOM      4  N   UNL     1      33.922 -15.996 -26.241  0.00  0.00    -0.234 NA
ATOM      5  C   UNL     1      33.818 -16.059 -23.878  0.00  0.00    +0.150 C 
ATOM      6  C   UNL     1      33.203 -14.821 -23.944  0.00  0.00    +0.137 C 
ATOM      7  C   UNL     1      33.879 -16.342 -22.500  0.00  0.00    +0.086 C 
ATOM      8  C   UNL     1      34.182 -16.650 -25.083  0.00  0.00    +0.112 C 
ATOM      9  C   UNL     1      33.314 -14.789 -26.155  0.00  0.00    +0.252 C 
ATOM     10  N   UNL     1      34.811 -17.907 -25.120  0.00  0.00    -0.346 N 
ATOM     11  H   UNL     1      35.061 -18.307 -25.985  0.00  0.00    +0.143 HD
ATOM     12  H   UNL     1      35.001 -18.387 -24.282  0.00  0.00    +0.143 HD
ENDROOT
BRANCH   7  14
ATOM     13  N   UNL     1      36.055 -20.889 -20.052  0.00  0.00    -0.248 NA
ATOM     14  C   UNL     1      34.427 -17.510 -21.872  0.00  0.00    -0.006 C 
ATOM     15  C   UNL     1      33.584 -18.468 -21.316  0.00  0.00    +0.055 C 
ATOM     16  C   UNL     1      35.804 -17.693 -21.813  0.00  0.00    -0.022 C 
ATOM     17  C   UNL     1      34.115 -19.612 -20.698  0.00  0.00    -0.004 C 
ATOM     18  C   UNL     1      35.511 -19.804 -20.636  0.00  0.00    +0.060 C 
ATOM     19  C   UNL     1      36.332 -18.831 -21.200  0.00  0.00    +0.071 C 
ATOM     20  C   UNL     1      33.289 -20.591 -20.131  0.00  0.00    -0.001 C 
ATOM     21  C   UNL     1      33.845 -21.710 -19.529  0.00  0.00    +0.020 C 
ATOM     22  C   UNL     1      35.221 -21.810 -19.515  0.00  0.00    +0.098 C 
ENDBRANCH   7  14
BRANCH   1  23
ATOM     23  C   UNL     1      32.313 -13.242 -22.206  0.00  0.00    +0.098 C 
ATOM     24  C   UNL     1      32.966 -12.005 -22.828  0.00  0.00    +0.024 C 
ATOM     25  C   UNL     1      32.302 -13.142 -20.679  0.00  0.00    +0.024 C 
ENDBRANCH   1  23
TORSDOF 2
ENDMDL
MODEL 2
REMARK VINA RESULT:     -10.2      3.372      5.754
REMARK  Name = 24905152
REMARK  2 active torsions:
REMARK  status: ('A' for Active; 'I' for Inactive)
REMARK    1  A    between atoms: N_1  and  C_23
REMARK    2  A    between atoms: C_7  and  C_11
REMARK                            x       y       z     vdW  Elec       q    Type
REMARK                         _______ _______ _______ _____ _____    ______ ____
ROOT
ATOM      1  N   UNL     1      32.257 -10.429 -22.142  0.00  0.00    -0.200 N 
ATOM      2  N   UNL     1      32.225 -11.738 -22.449  0.00  0.00    -0.181 NA
ATOM      3  N   UNL     1      33.363  -8.390 -22.839  0.00  0.00    -0.232 NA
ATOM      4  N   UNL     1      34.918  -8.791 -24.676  0.00  0.00    -0.234 NA
ATOM      5  C   UNL     1      33.694 -10.613 -23.791  0.00  0.00    +0.150 C 
ATOM      6  C   UNL     1      33.120  -9.708 -22.914  0.00  0.00    +0.137 C 
ATOM      7  C   UNL     1      33.101 -11.845 -23.454  0.00  0.00    +0.086 C 
ATOM      8  C   UNL     1      34.624 -10.114 -24.696  0.00  0.00    +0.112 C 
ATOM      9  C   UNL     1      34.278  -8.023 -23.763  0.00  0.00    +0.252 C 
ATOM     10  N   UNL     1      35.260 -10.954 -25.627  0.00  0.00    -0.346 N 
ATOM     11  H   UNL     1      35.916 -10.580 -26.259  0.00  0.00    +0.143 HD
ATOM     12  H   UNL     1      35.051 -11.915 -25.647  0.00  0.00    +0.143 HD
ENDROOT
BRANCH   7  14
ATOM     13  N   UNL     1      34.034 -16.827 -25.844  0.00  0.00    -0.248 NA
ATOM     14  C   UNL     1      33.343 -13.124 -24.057  0.00  0.00    -0.006 C 
ATOM     15  C   UNL     1      33.991 -14.126 -23.340  0.00  0.00    +0.055 C 
ATOM     16  C   UNL     1      32.934 -13.371 -25.363  0.00  0.00    -0.022 C 
ATOM     17  C   UNL     1      34.232 -15.379 -23.927  0.00  0.00    -0.004 C 
ATOM     18  C   UNL     1      33.819 -15.637 -25.251  0.00  0.00    +0.060 C 
ATOM     19  C   UNL     1      33.173 -14.617 -25.945  0.00  0.00    +0.071 C 
ATOM     20  C   UNL     1      34.882 -16.405 -23.227  0.00  0.00    -0.001 C 
ATOM     21  C   UNL     1      35.104 -17.632 -23.835  0.00  0.00    +0.020 C 
ATOM     22  C   UNL     1      34.665 -17.790 -25.134  0.00  0.00    +0.098 C 
ENDBRANCH   7  14
BRANCH   1  23
ATOM     23  C   UNL     1      31.420  -9.925 -21.079  0.00  0.00    +0.098 C 
ATOM     24  C   UNL     1      32.224  -9.095 -20.075  0.00  0.00    +0.024 C 
ATOM     25  C   UNL     1      30.667 -11.055 -20.373  0.00  0.00    +0.024 C 
ENDBRANCH   1  23
TORSDOF 2
ENDMDL
MODEL 3
REMARK VINA RESULT:     -10.0      8.913     11.450
REMARK  Name = 24905152
REMARK  2 active torsions:
REMARK  status: ('A' for Active; 'I' for Inactive)
REMARK    1  A    between atoms: N_1  and  C_23
REMARK    2  A    between atoms: C_7  and  C_11
REMARK                            x       y       z     vdW  Elec       q    Type
REMARK                         _______ _______ _______ _____ _____    ______ ____
ROOT
ATOM      1  N   UNL     1      35.990 -23.662 -13.139  0.00  0.00    -0.200 N 
ATOM      2  N   UNL     1      34.685 -23.966 -13.015  0.00  0.00    -0.181 NA
ATOM      3  N   UNL     1      37.559 -22.887 -14.813  0.00  0.00    -0.232 NA
ATOM      4  N   UNL     1      36.473 -22.530 -16.969  0.00  0.00    -0.234 NA
ATOM      5  C   UNL     1      35.174 -23.291 -15.143  0.00  0.00    +0.150 C 
ATOM      6  C   UNL     1      36.337 -23.253 -14.393  0.00  0.00    +0.137 C 
ATOM      7  C   UNL     1      34.193 -23.737 -14.237  0.00  0.00    +0.086 C 
ATOM      8  C   UNL     1      35.270 -22.912 -16.477  0.00  0.00    +0.112 C 
ATOM      9  C   UNL     1      37.528 -22.541 -16.119  0.00  0.00    +0.252 C 
ATOM     10  N   UNL     1      34.144 -22.915 -17.320  0.00  0.00    -0.346 N 
ATOM     11  H   UNL     1      34.234 -22.643 -18.262  0.00  0.00    +0.143 HD
ATOM     12  H   UNL     1      33.267 -23.190 -16.968  0.00  0.00    +0.143 HD
ENDROOT
BRANCH   7  14
ATOM     13  N   UNL     1      28.749 -24.617 -15.230  0.00  0.00    -0.248 NA
ATOM     14  C   UNL     1      32.800 -23.955 -14.498  0.00  0.00    -0.006 C 
ATOM     15  C   UNL     1      32.095 -23.081 -15.321  0.00  0.00    +0.055 C 
ATOM     16  C   UNL     1      32.142 -25.040 -13.929  0.00  0.00    -0.022 C 
ATOM     17  C   UNL     1      30.730 -23.289 -15.578  0.00  0.00    -0.004 C 
ATOM     18  C   UNL     1      30.057 -24.387 -15.005  0.00  0.00    +0.060 C 
ATOM     19  C   UNL     1      30.785 -25.246 -14.186  0.00  0.00    +0.071 C 
ATOM     20  C   UNL     1      29.998 -22.424 -16.403  0.00  0.00    -0.001 C 
ATOM     21  C   UNL     1      28.651 -22.658 -16.637  0.00  0.00    +0.020 C 
ATOM     22  C   UNL     1      28.079 -23.757 -16.032  0.00  0.00    +0.098 C 
ENDBRANCH   7  14
BRANCH   1  23
ATOM     23  C   UNL     1      36.863 -23.789 -11.997  0.00  0.00    +0.098 C 
ATOM     24  C   UNL     1      37.868 -24.929 -12.181  0.00  0.00    +0.024 C 
ATOM     25  C   UNL     1      36.071 -23.964 -10.699  0.00  0.00    +0.024 C 
ENDBRANCH   1  23
TORSDOF 2
ENDMDL
MODEL 4
REMARK VINA RESULT:      -9.9      1.677      6.932
REMARK  Name = 24905152
REMARK  2 active torsions:
REMARK  status: ('A' for Active; 'I' for Inactive)
REMARK    1  A    between atoms: N_1  and  C_23
REMARK    2  A    between atoms: C_7  and  C_11
REMARK                            x       y       z     vdW  Elec       q    Type
REMARK                         _______ _______ _______ _____ _____    ______ ____
ROOT
ATOM      1  N   UNL     1      34.538 -17.150 -21.924  0.00  0.00    -0.200 N 
ATOM      2  N   UNL     1      34.088 -15.974 -21.450  0.00  0.00    -0.181 NA
ATOM      3  N   UNL     1      34.860 -18.294 -24.034  0.00  0.00    -0.232 NA
ATOM      4  N   UNL     1      34.166 -16.915 -25.923  0.00  0.00    -0.234 NA
ATOM      5  C   UNL     1      33.961 -16.046 -23.731  0.00  0.00    +0.150 C 
ATOM      6  C   UNL     1      34.483 -17.247 -23.284  0.00  0.00    +0.137 C 
ATOM      7  C   UNL     1      33.739 -15.305 -22.555  0.00  0.00    +0.086 C 
ATOM      8  C   UNL     1      33.805 -15.896 -25.105  0.00  0.00    +0.112 C 
ATOM      9  C   UNL     1      34.664 -18.034 -25.346  0.00  0.00    +0.252 C 
ATOM     10  N   UNL     1      33.285 -14.712 -25.657  0.00  0.00    -0.346 N 
ATOM     11  H   UNL     1      33.183 -14.628 -26.633  0.00  0.00    +0.143 HD
ATOM     12  H   UNL     1      33.022 -13.969 -25.068  0.00  0.00    +0.143 HD
ENDROOT
BRANCH   7  14
ATOM     13  N   UNL     1      31.627 -10.135 -22.101  0.00  0.00    -0.248 NA
ATOM     14  C   UNL     1      33.203 -13.979 -22.447  0.00  0.00    -0.006 C 
ATOM     15  C   UNL     1      33.675 -12.963 -23.274  0.00  0.00    +0.055 C 
ATOM     16  C   UNL     1      32.212 -13.698 -21.514  0.00  0.00    -0.022 C 
ATOM     17  C   UNL     1      33.155 -11.662 -23.170  0.00  0.00    -0.004 C 
ATOM     18  C   UNL     1      32.148 -11.370 -22.227  0.00  0.00    +0.060 C 
ATOM     19  C   UNL     1      31.695 -12.405 -21.412  0.00  0.00    +0.071 C 
ATOM     20  C   UNL     1      33.611 -10.621 -23.991  0.00  0.00    -0.001 C 
ATOM     21  C   UNL     1      33.076  -9.348 -23.864  0.00  0.00    +0.020 C 
ATOM     22  C   UNL     1      32.096  -9.158 -22.912  0.00  0.00    +0.098 C 
ENDBRANCH   7  14
BRANCH   1  23
ATOM     23  C   UNL     1      35.013 -18.155 -21.003  0.00  0.00    +0.098 C 
ATOM     24  C   UNL     1      36.414 -18.644 -21.377  0.00  0.00    +0.024 C 
ATOM     25  C   UNL     1      34.036 -19.328 -20.898  0.00  0.00    +0.024 C 
ENDBRANCH   1  23
TORSDOF 2
ENDMDL
MODEL 5
REMARK VINA RESULT:      -9.8      3.201      8.222
REMARK  Name = 24905152
REMARK  2 active torsions:
REMARK  status: ('A' for Active; 'I' for Inactive)
REMARK    1  A    between atoms: N_1  and  C_23
REMARK    2  A    between atoms: C_7  and  C_11
REMARK                            x       y       z     vdW  Elec       q    Type
REMARK                         _______ _______ _______ _____ _____    ______ ____
ROOT
ATOM      1  N   UNL     1      33.441 -14.494 -22.763  0.00  0.00    -0.200 N 
ATOM      2  N   UNL     1      33.456 -13.184 -22.455  0.00  0.00    -0.181 NA
ATOM      3  N   UNL     1      33.447 -15.938 -24.707  0.00  0.00    -0.232 NA
ATOM      4  N   UNL     1      33.495 -14.656 -26.783  0.00  0.00    -0.234 NA
ATOM      5  C   UNL     1      33.483 -13.498 -24.719  0.00  0.00    +0.150 C 
ATOM      6  C   UNL     1      33.456 -14.738 -24.105  0.00  0.00    +0.137 C 
ATOM      7  C   UNL     1      33.482 -12.582 -23.649  0.00  0.00    +0.086 C 
ATOM      8  C   UNL     1      33.503 -13.480 -26.109  0.00  0.00    +0.112 C 
ATOM      9  C   UNL     1      33.468 -15.796 -26.051  0.00  0.00    +0.252 C 
ATOM     10  N   UNL     1      33.533 -12.270 -26.824  0.00  0.00    -0.346 N 
ATOM     11  H   UNL     1      33.546 -12.281 -27.809  0.00  0.00    +0.143 HD
ATOM     12  H   UNL     1      33.540 -11.413 -26.341  0.00  0.00    +0.143 HD
ENDROOT
BRANCH   7  14
ATOM     13  N   UNL     1      33.601  -6.989 -23.968  0.00  0.00    -0.248 NA
ATOM     14  C   UNL     1      33.504 -11.150 -23.727  0.00  0.00    -0.006 C 
ATOM     15  C   UNL     1      32.376 -10.412 -23.378  0.00  0.00    +0.055 C 
ATOM     16  C   UNL     1      34.650 -10.489 -24.152  0.00  0.00    -0.022 C 
ATOM     17  C   UNL     1      32.391  -9.010 -23.454  0.00  0.00    -0.004 C 
ATOM     18  C   UNL     1      33.552  -8.332 -23.884  0.00  0.00    +0.060 C 
ATOM     19  C   UNL     1      34.665  -9.094 -24.226  0.00  0.00    +0.071 C 
ATOM     20  C   UNL     1      31.270  -8.243 -23.109  0.00  0.00    -0.001 C 
ATOM     21  C   UNL     1      31.318  -6.859 -23.195  0.00  0.00    +0.020 C 
ATOM     22  C   UNL     1      32.497  -6.286 -23.627  0.00  0.00    +0.098 C 
ENDBRANCH   7  14
BRANCH   1  23
ATOM     23  C   UNL     1      33.412 -15.475 -21.704  0.00  0.00    +0.098 C 
ATOM     24  C   UNL     1      32.741 -14.922 -20.444  0.00  0.00    +0.024 C 
ATOM     25  C   UNL     1      34.812 -16.004 -21.389  0.00  0.00    +0.024 C 
ENDBRANCH   1  23
TORSDOF 2
ENDMDL
MODEL 6
REMARK VINA RESULT:      -9.8      1.042      2.966
REMARK  Name = 24905152
REMARK  2 active torsions:
REMARK  status: ('A' for Active; 'I' for Inactive)
REMARK    1  A    between atoms: N_1  and  C_23
REMARK    2  A    between atoms: C_7  and  C_11
REMARK                            x       y       z     vdW  Elec       q    Type
REMARK                         _______ _______ _______ _____ _____    ______ ____
ROOT
ATOM      1  N   UNL     1      33.654 -15.252 -24.594  0.00  0.00    -0.200 N 
ATOM      2  N   UNL     1      34.204 -16.430 -24.245  0.00  0.00    -0.181 NA
ATOM      3  N   UNL     1      32.602 -13.325 -23.572  0.00  0.00    -0.232 NA
ATOM      4  N   UNL     1      32.483 -13.545 -21.145  0.00  0.00    -0.234 NA
ATOM      5  C   UNL     1      33.466 -15.288 -22.408  0.00  0.00    +0.150 C 
ATOM      6  C   UNL     1      33.195 -14.529 -23.533  0.00  0.00    +0.137 C 
ATOM      7  C   UNL     1      34.088 -16.446 -22.913  0.00  0.00    +0.086 C 
ATOM      8  C   UNL     1      33.087 -14.757 -21.179  0.00  0.00    +0.112 C 
ATOM      9  C   UNL     1      32.281 -12.913 -22.326  0.00  0.00    +0.252 C 
ATOM     10  N   UNL     1      33.320 -15.452 -19.980  0.00  0.00    -0.346 N 
ATOM     11  H   UNL     1      33.044 -15.058 -19.121  0.00  0.00    +0.143 HD
ATOM     12  H   UNL     1      33.760 -16.333 -19.998  0.00  0.00    +0.143 HD
ENDROOT
BRANCH   7  14
ATOM     13  N   UNL     1      36.024 -20.827 -20.006  0.00  0.00    -0.248 NA
ATOM     14  C   UNL     1      34.574 -17.571 -22.168  0.00  0.00    -0.006 C 
ATOM     15  C   UNL     1      33.680 -18.459 -21.575  0.00  0.00    +0.055 C 
ATOM     16  C   UNL     1      35.941 -17.782 -22.031  0.00  0.00    -0.022 C 
ATOM     17  C   UNL     1      34.152 -19.561 -20.843  0.00  0.00    -0.004 C 
ATOM     18  C   UNL     1      35.538 -19.781 -20.700  0.00  0.00    +0.060 C 
ATOM     19  C   UNL     1      36.409 -18.878 -21.303  0.00  0.00    +0.071 C 
ATOM     20  C   UNL     1      33.274 -20.470 -20.236  0.00  0.00    -0.001 C 
ATOM     21  C   UNL     1      33.772 -21.549 -19.520  0.00  0.00    +0.020 C 
ATOM     22  C   UNL     1      35.143 -21.681 -19.435  0.00  0.00    +0.098 C 
ENDBRANCH   7  14
BRANCH   1  23
ATOM     23  C   UNL     1      33.599 -14.876 -25.987  0.00  0.00    +0.098 C 
ATOM     24  C   UNL     1      33.424 -13.365 -26.155  0.00  0.00    +0.024 C 
ATOM     25  C   UNL     1      32.502 -15.638 -26.733  0.00  0.00    +0.024 C 
ENDBRANCH   1  23
TORSDOF 2
ENDMDL
MODEL 7
REMARK VINA RESULT:      -9.7      3.059      5.784
REMARK  Name = 24905152
REMARK  2 active torsions:
REMARK  status: ('A' for Active; 'I' for Inactive)
REMARK    1  A    between atoms: N_1  and  C_23
REMARK    2  A    between atoms: C_7  and  C_11
REMARK                            x       y       z     vdW  Elec       q    Type
REMARK                         _______ _______ _______ _____ _____    ______ ____
ROOT
ATOM      1  N   UNL     1      33.079  -9.961 -23.516  0.00  0.00    -0.200 N 
ATOM      2  N   UNL     1      33.479 -10.997 -24.275  0.00  0.00    -0.181 NA
ATOM      3  N   UNL     1      31.982  -9.531 -21.400  0.00  0.00    -0.232 NA
ATOM      4  N   UNL     1      31.403 -11.602 -20.247  0.00  0.00    -0.234 NA
ATOM      5  C   UNL     1      32.489 -11.722 -22.347  0.00  0.00    +0.150 C 
ATOM      6  C   UNL     1      32.480 -10.338 -22.350  0.00  0.00    +0.137 C 
ATOM      7  C   UNL     1      33.118 -12.067 -23.558  0.00  0.00    +0.086 C 
ATOM      8  C   UNL     1      31.924 -12.356 -21.245  0.00  0.00    +0.112 C 
ATOM      9  C   UNL     1      31.464 -10.256 -20.384  0.00  0.00    +0.252 C 
ATOM     10  N   UNL     1      31.887 -13.759 -21.149  0.00  0.00    -0.346 N 
ATOM     11  H   UNL     1      31.483 -14.187 -20.360  0.00  0.00    +0.143 HD
ATOM     12  H   UNL     1      32.265 -14.312 -21.870  0.00  0.00    +0.143 HD
ENDROOT
BRANCH   7  14
ATOM     13  N   UNL     1      34.150 -17.204 -25.546  0.00  0.00    -0.248 NA
ATOM     14  C   UNL     1      33.386 -13.385 -24.058  0.00  0.00    -0.006 C 
ATOM     15  C   UNL     1      34.109 -14.293 -23.289  0.00  0.00    +0.055 C 
ATOM     16  C   UNL     1      32.927 -13.764 -25.315  0.00  0.00    -0.022 C 
ATOM     17  C   UNL     1      34.376 -15.583 -23.776  0.00  0.00    -0.004 C 
ATOM     18  C   UNL     1      33.913 -15.975 -25.049  0.00  0.00    +0.060 C 
ATOM     19  C   UNL     1      33.192 -15.047 -25.797  0.00  0.00    +0.071 C 
ATOM     20  C   UNL     1      35.101 -16.516 -23.022  0.00  0.00    -0.001 C 
ATOM     21  C   UNL     1      35.347 -17.784 -23.531  0.00  0.00    +0.020 C 
ATOM     22  C   UNL     1      34.855 -18.074 -24.786  0.00  0.00    +0.098 C 
ENDBRANCH   7  14
BRANCH   1  23
ATOM     23  C   UNL     1      33.307  -8.611 -23.975  0.00  0.00    +0.098 C 
ATOM     24  C   UNL     1      34.473  -7.954 -23.234  0.00  0.00    +0.024 C 
ATOM     25  C   UNL     1      32.041  -7.759 -23.865  0.00  0.00    +0.024 C 
ENDBRANCH   1  23
TORSDOF 2
ENDMDL
MODEL 8
REMARK VINA RESULT:      -9.6      2.292      4.645
REMARK  Name = 24905152
REMARK  2 active torsions:
REMARK  status: ('A' for Active; 'I' for Inactive)
REMARK    1  A    between atoms: N_1  and  C_23
REMARK    2  A    between atoms: C_7  and  C_11
REMARK                            x       y       z     vdW  Elec       q    Type
REMARK                         _______ _______ _______ _____ _____    ______ ____
ROOT
ATOM      1  N   UNL     1      33.902 -11.144 -24.301  0.00  0.00    -0.200 N 
ATOM      2  N   UNL     1      34.397 -12.365 -24.575  0.00  0.00    -0.181 NA
ATOM      3  N   UNL     1      32.313 -10.081 -22.814  0.00  0.00    -0.232 NA
ATOM      4  N   UNL     1      31.253 -11.696 -21.324  0.00  0.00    -0.234 NA
ATOM      5  C   UNL     1      32.855 -12.459 -22.890  0.00  0.00    +0.150 C 
ATOM      6  C   UNL     1      32.975 -11.143 -23.301  0.00  0.00    +0.137 C 
ATOM      7  C   UNL     1      33.756 -13.162 -23.712  0.00  0.00    +0.086 C 
ATOM      8  C   UNL     1      31.955 -12.722 -21.863  0.00  0.00    +0.112 C 
ATOM      9  C   UNL     1      31.472 -10.457 -21.825  0.00  0.00    +0.252 C 
ATOM     10  N   UNL     1      31.765 -14.027 -21.375  0.00  0.00    -0.346 N 
ATOM     11  H   UNL     1      31.122 -14.191 -20.647  0.00  0.00    +0.143 HD
ATOM     12  H   UNL     1      32.272 -14.777 -21.761  0.00  0.00    +0.143 HD
ENDROOT
BRANCH   7  14
ATOM     13  N   UNL     1      34.815 -18.664 -23.723  0.00  0.00    -0.248 NA
ATOM     14  C   UNL     1      34.028 -14.570 -23.705  0.00  0.00    -0.006 C 
ATOM     15  C   UNL     1      34.437 -15.199 -22.532  0.00  0.00    +0.055 C 
ATOM     16  C   UNL     1      33.888 -15.316 -24.869  0.00  0.00    -0.022 C 
ATOM     17  C   UNL     1      34.707 -16.578 -22.521  0.00  0.00    -0.004 C 
ATOM     18  C   UNL     1      34.566 -17.341 -23.698  0.00  0.00    +0.060 C 
ATOM     19  C   UNL     1      34.155 -16.687 -24.857  0.00  0.00    +0.071 C 
ATOM     20  C   UNL     1      35.120 -17.236 -21.354  0.00  0.00    -0.001 C 
ATOM     21  C   UNL     1      35.377 -18.599 -21.376  0.00  0.00    +0.020 C 
ATOM     22  C   UNL     1      35.212 -19.261 -22.575  0.00  0.00    +0.098 C 
ENDBRANCH   7  14
BRANCH   1  23
ATOM     23  C   UNL     1      34.369 -10.001 -25.050  0.00  0.00    +0.098 C 
ATOM     24  C   UNL     1      35.455 -10.393 -26.054  0.00  0.00    +0.024 C 
ATOM     25  C   UNL     1      34.859  -8.885 -24.125  0.00  0.00    +0.024 C 
ENDBRANCH   1  23
TORSDOF 2
ENDMDL
MODEL 9
REMARK VINA RESULT:      -9.5      2.735      4.947
REMARK  Name = 24905152
REMARK  2 active torsions:
REMARK  status: ('A' for Active; 'I' for Inactive)
REMARK    1  A    between atoms: N_1  and  C_23
REMARK    2  A    between atoms: C_7  and  C_11
REMARK                            x       y       z     vdW  Elec       q    Type
REMARK                         _______ _______ _______ _____ _____    ______ ____
ROOT
ATOM      1  N   UNL     1      33.891 -10.927 -24.194  0.00  0.00    -0.200 N 
ATOM      2  N   UNL     1      34.457 -12.145 -24.274  0.00  0.00    -0.181 NA
ATOM      3  N   UNL     1      32.115  -9.786 -23.007  0.00  0.00    -0.232 NA
ATOM      4  N   UNL     1      30.963 -11.277 -21.457  0.00  0.00    -0.234 NA
ATOM      5  C   UNL     1      32.750 -12.129 -22.755  0.00  0.00    +0.150 C 
ATOM      6  C   UNL     1      32.863 -10.861 -23.300  0.00  0.00    +0.137 C 
ATOM      7  C   UNL     1      33.759 -12.872 -23.395  0.00  0.00    +0.086 C 
ATOM      8  C   UNL     1      31.756 -12.320 -21.801  0.00  0.00    +0.112 C 
ATOM      9  C   UNL     1      31.188 -10.092 -22.073  0.00  0.00    +0.252 C 
ATOM     10  N   UNL     1      31.563 -13.571 -21.189  0.00  0.00    -0.346 N 
ATOM     11  H   UNL     1      30.854 -13.685 -20.515  0.00  0.00    +0.143 HD
ATOM     12  H   UNL     1      32.137 -14.333 -21.433  0.00  0.00    +0.143 HD
ENDROOT
BRANCH   7  14
ATOM     13  N   UNL     1      35.019 -18.273 -22.593  0.00  0.00    -0.248 NA
ATOM     14  C   UNL     1      34.081 -14.256 -23.199  0.00  0.00    -0.006 C 
ATOM     15  C   UNL     1      33.984 -15.155 -24.259  0.00  0.00    +0.055 C 
ATOM     16  C   UNL     1      34.489 -14.711 -21.951  0.00  0.00    -0.022 C 
ATOM     17  C   UNL     1      34.296 -16.512 -24.071  0.00  0.00    -0.004 C 
ATOM     18  C   UNL     1      34.712 -16.980 -22.807  0.00  0.00    +0.060 C 
ATOM     19  C   UNL     1      34.800 -16.060 -21.766  0.00  0.00    +0.071 C 
ATOM     20  C   UNL     1      34.207 -17.437 -25.120  0.00  0.00    -0.001 C 
ATOM     21  C   UNL     1      34.523 -18.771 -24.902  0.00  0.00    +0.020 C 
ATOM     22  C   UNL     1      34.919 -19.134 -23.632  0.00  0.00    +0.098 C 
ENDBRANCH   7  14
BRANCH   1  23
ATOM     23  C   UNL     1      34.393  -9.852 -25.017  0.00  0.00    +0.098 C 
ATOM     24  C   UNL     1      35.491 -10.337 -25.966  0.00  0.00    +0.024 C 
ATOM     25  C   UNL     1      34.883  -8.676 -24.170  0.00  0.00    +0.024 C 
ENDBRANCH   1  23
TORSDOF 2
ENDMDL
