MODEL 1
REMARK VINA RESULT:     -11.8      0.000      0.000
REMARK  Name = 24779675
REMARK  4 active torsions:
REMARK  status: ('A' for Active; 'I' for Inactive)
REMARK    1  A    between atoms: N_1  and  C_22
REMARK    2  A    between atoms: N_5  and  C_14
REMARK    3  A    between atoms: C_10  and  C_21
REMARK    4  A    between atoms: C_22  and  C_23
REMARK                            x       y       z     vdW  Elec       q    Type
REMARK                         _______ _______ _______ _____ _____    ______ ____
ROOT
ATOM      1  N   UNL     1      34.227 -22.552 -18.611  0.00  0.00    -0.259 N 
ATOM      2  N   UNL     1      32.278 -22.749 -17.411  0.00  0.00    -0.314 NA
ATOM      3  N   UNL     1      34.322 -23.610 -16.527  0.00  0.00    -0.295 NA
ATOM      4  N   UNL     1      32.390 -23.815 -15.317  0.00  0.00    -0.123 N 
ATOM      5  N   UNL     1      34.393 -24.678 -14.412  0.00  0.00    -0.274 N 
ATOM      6  N   UNL     1      31.668 -24.198 -14.249  0.00  0.00    -0.170 NA
ATOM      7  C   UNL     1      33.571 -22.967 -17.507  0.00  0.00    +0.203 C 
ATOM      8  C   UNL     1      31.666 -23.182 -16.285  0.00  0.00    +0.219 C 
ATOM      9  C   UNL     1      33.753 -24.036 -15.437  0.00  0.00    +0.279 C 
ATOM     10  C   UNL     1      30.373 -23.149 -15.815  0.00  0.00    +0.203 C 
ATOM     11  C   UNL     1      30.435 -23.787 -14.560  0.00  0.00    +0.116 C 
ATOM     12  H   UNL     1      35.195 -22.721 -18.670  0.00  0.00    +0.160 HD
ATOM     13  H   UNL     1      33.837 -24.946 -13.645  0.00  0.00    +0.156 HD
ENDROOT
BRANCH   5  14
ATOM     14  C   UNL     1      35.751 -24.994 -14.339  0.00  0.00    +0.051 C 
ATOM     15  C   UNL     1      36.249 -26.098 -15.031  0.00  0.00    +0.015 C 
ATOM     16  C   UNL     1      36.610 -24.204 -13.573  0.00  0.00    +0.015 C 
ATOM     17  C   UNL     1      37.606 -26.414 -14.957  0.00  0.00    +0.001 C 
ATOM     18  C   UNL     1      37.967 -24.521 -13.500  0.00  0.00    +0.001 C 
ATOM     19  C   UNL     1      38.464 -25.625 -14.191  0.00  0.00    +0.000 C 
ENDBRANCH   5  14
BRANCH  10  21
ATOM     20  N   UNL     1      28.322 -22.130 -17.006  0.00  0.00    -0.195 NA
ATOM     21  C   UNL     1      29.244 -22.589 -16.470  0.00  0.00    +0.087 C 
ENDBRANCH  10  21
BRANCH   1  22
ATOM     22  C   UNL     1      33.582 -21.874 -19.704  0.00  0.00    +0.099 C 
BRANCH  22  23
ATOM     23  C   UNL     1      34.290 -20.549 -19.977  0.00  0.00    +0.020 C 
ATOM     24  C   UNL     1      35.764 -20.785 -20.331  0.00  0.00    +0.002 C 
ATOM     25  C   UNL     1      33.577 -19.774 -21.094  0.00  0.00    +0.002 C 
ATOM     26  C   UNL     1      36.482 -19.478 -20.661  0.00  0.00    +0.000 C 
ATOM     27  C   UNL     1      34.299 -18.468 -21.423  0.00  0.00    +0.000 C 
ATOM     28  C   UNL     1      35.766 -18.706 -21.765  0.00  0.00    +0.000 C 
ENDBRANCH  22  23
ENDBRANCH   1  22
TORSDOF 4
ENDMDL
MODEL 2
REMARK VINA RESULT:     -11.7      1.310      2.051
REMARK  Name = 24779675
REMARK  4 active torsions:
REMARK  status: ('A' for Active; 'I' for Inactive)
REMARK    1  A    between atoms: N_1  and  C_22
REMARK    2  A    between atoms: N_5  and  C_14
REMARK    3  A    between atoms: C_10  and  C_21
REMARK    4  A    between atoms: C_22  and  C_23
REMARK                            x       y       z     vdW  Elec       q    Type
REMARK                         _______ _______ _______ _____ _____    ______ ____
ROOT
ATOM      1  N   UNL     1      34.065 -22.814 -17.456  0.00  0.00    -0.259 N 
ATOM      2  N   UNL     1      32.099 -23.487 -16.476  0.00  0.00    -0.314 NA
ATOM      3  N   UNL     1      34.162 -23.692 -15.291  0.00  0.00    -0.295 NA
ATOM      4  N   UNL     1      32.214 -24.368 -14.297  0.00  0.00    -0.123 N 
ATOM      5  N   UNL     1      34.235 -24.585 -13.095  0.00  0.00    -0.274 N 
ATOM      6  N   UNL     1      31.486 -24.882 -13.290  0.00  0.00    -0.170 NA
ATOM      7  C   UNL     1      33.403 -23.338 -16.403  0.00  0.00    +0.203 C 
ATOM      8  C   UNL     1      31.482 -24.016 -15.394  0.00  0.00    +0.219 C 
ATOM      9  C   UNL     1      33.588 -24.203 -14.240  0.00  0.00    +0.279 C 
ATOM     10  C   UNL     1      30.177 -24.322 -15.079  0.00  0.00    +0.203 C 
ATOM     11  C   UNL     1      30.241 -24.850 -13.775  0.00  0.00    +0.116 C 
ATOM     12  H   UNL     1      35.040 -22.707 -17.389  0.00  0.00    +0.160 HD
ATOM     13  H   UNL     1      33.675 -24.957 -12.377  0.00  0.00    +0.156 HD
ENDROOT
BRANCH   5  14
ATOM     14  C   UNL     1      35.605 -24.501 -12.839  0.00  0.00    +0.051 C 
ATOM     15  C   UNL     1      36.118 -23.409 -12.140  0.00  0.00    +0.015 C 
ATOM     16  C   UNL     1      36.460 -25.510 -13.283  0.00  0.00    +0.015 C 
ATOM     17  C   UNL     1      37.487 -23.324 -11.885  0.00  0.00    +0.001 C 
ATOM     18  C   UNL     1      37.829 -25.426 -13.027  0.00  0.00    +0.001 C 
ATOM     19  C   UNL     1      38.342 -24.333 -12.328  0.00  0.00    +0.000 C 
ENDBRANCH   5  14
BRANCH  10  21
ATOM     20  N   UNL     1      28.106 -23.985 -16.582  0.00  0.00    -0.195 NA
ATOM     21  C   UNL     1      29.038 -24.137 -15.907  0.00  0.00    +0.087 C 
ENDBRANCH  10  21
BRANCH   1  22
ATOM     22  C   UNL     1      33.413 -22.403 -18.672  0.00  0.00    +0.099 C 
BRANCH  22  23
ATOM     23  C   UNL     1      34.444 -21.824 -19.638  0.00  0.00    +0.020 C 
ATOM     24  C   UNL     1      33.954 -20.489 -20.216  0.00  0.00    +0.002 C 
ATOM     25  C   UNL     1      35.801 -21.652 -18.943  0.00  0.00    +0.002 C 
ATOM     26  C   UNL     1      34.991 -19.862 -21.145  0.00  0.00    +0.000 C 
ATOM     27  C   UNL     1      36.835 -21.023 -19.875  0.00  0.00    +0.000 C 
ATOM     28  C   UNL     1      36.341 -19.701 -20.455  0.00  0.00    +0.000 C 
ENDBRANCH  22  23
ENDBRANCH   1  22
TORSDOF 4
ENDMDL
MODEL 3
REMARK VINA RESULT:     -11.2      1.403      5.529
REMARK  Name = 24779675
REMARK  4 active torsions:
REMARK  status: ('A' for Active; 'I' for Inactive)
REMARK    1  A    between atoms: N_1  and  C_22
REMARK    2  A    between atoms: N_5  and  C_14
REMARK    3  A    between atoms: C_10  and  C_21
REMARK    4  A    between atoms: C_22  and  C_23
REMARK                            x       y       z     vdW  Elec       q    Type
REMARK                         _______ _______ _______ _____ _____    ______ ____
ROOT
ATOM      1  N   UNL     1      34.319 -22.359 -18.461  0.00  0.00    -0.259 N 
ATOM      2  N   UNL     1      35.459 -23.196 -16.650  0.00  0.00    -0.314 NA
ATOM      3  N   UNL     1      33.071 -23.141 -16.644  0.00  0.00    -0.295 NA
ATOM      4  N   UNL     1      34.189 -23.980 -14.831  0.00  0.00    -0.123 N 
ATOM      5  N   UNL     1      31.828 -23.940 -14.791  0.00  0.00    -0.274 N 
ATOM      6  N   UNL     1      34.264 -24.529 -13.606  0.00  0.00    -0.170 NA
ATOM      7  C   UNL     1      34.314 -22.910 -17.229  0.00  0.00    +0.203 C 
ATOM      8  C   UNL     1      35.399 -23.748 -15.416  0.00  0.00    +0.219 C 
ATOM      9  C   UNL     1      32.992 -23.670 -15.458  0.00  0.00    +0.279 C 
ATOM     10  C   UNL     1      36.337 -24.180 -14.506  0.00  0.00    +0.203 C 
ATOM     11  C   UNL     1      35.581 -24.650 -13.413  0.00  0.00    +0.116 C 
ATOM     12  H   UNL     1      33.456 -22.149 -18.884  0.00  0.00    +0.160 HD
ATOM     13  H   UNL     1      31.916 -24.342 -13.897  0.00  0.00    +0.156 HD
ENDROOT
BRANCH   5  14
ATOM     14  C   UNL     1      30.528 -23.706 -15.244  0.00  0.00    +0.051 C 
ATOM     15  C   UNL     1      29.895 -22.498 -14.954  0.00  0.00    +0.015 C 
ATOM     16  C   UNL     1      29.863 -24.681 -15.988  0.00  0.00    +0.015 C 
ATOM     17  C   UNL     1      28.596 -22.264 -15.405  0.00  0.00    +0.001 C 
ATOM     18  C   UNL     1      28.564 -24.447 -16.440  0.00  0.00    +0.001 C 
ATOM     19  C   UNL     1      27.931 -23.239 -16.149  0.00  0.00    +0.000 C 
ENDBRANCH   5  14
BRANCH  10  21
ATOM     20  N   UNL     1      38.903 -24.121 -14.781  0.00  0.00    -0.195 NA
ATOM     21  C   UNL     1      37.749 -24.147 -14.658  0.00  0.00    +0.087 C 
ENDBRANCH  10  21
BRANCH   1  22
ATOM     22  C   UNL     1      35.526 -22.063 -19.187  0.00  0.00    +0.099 C 
BRANCH  22  23
ATOM     23  C   UNL     1      35.226 -21.057 -20.296  0.00  0.00    +0.020 C 
ATOM     24  C   UNL     1      33.818 -20.469 -20.128  0.00  0.00    +0.002 C 
ATOM     25  C   UNL     1      36.283 -19.945 -20.320  0.00  0.00    +0.002 C 
ATOM     26  C   UNL     1      33.513 -19.420 -21.195  0.00  0.00    +0.000 C 
ATOM     27  C   UNL     1      35.974 -18.896 -21.387  0.00  0.00    +0.000 C 
ATOM     28  C   UNL     1      34.570 -18.321 -21.222  0.00  0.00    +0.000 C 
ENDBRANCH  22  23
ENDBRANCH   1  22
TORSDOF 4
ENDMDL
MODEL 4
REMARK VINA RESULT:      -9.9      1.972      5.554
REMARK  Name = 24779675
REMARK  4 active torsions:
REMARK  status: ('A' for Active; 'I' for Inactive)
REMARK    1  A    between atoms: N_1  and  C_22
REMARK    2  A    between atoms: N_5  and  C_14
REMARK    3  A    between atoms: C_10  and  C_21
REMARK    4  A    between atoms: C_22  and  C_23
REMARK                            x       y       z     vdW  Elec       q    Type
REMARK                         _______ _______ _______ _____ _____    ______ ____
ROOT
ATOM      1  N   UNL     1      35.485 -22.237 -17.549  0.00  0.00    -0.259 N 
ATOM      2  N   UNL     1      36.874 -23.425 -16.156  0.00  0.00    -0.314 NA
ATOM      3  N   UNL     1      34.516 -23.418 -15.778  0.00  0.00    -0.295 NA
ATOM      4  N   UNL     1      35.883 -24.608 -14.381  0.00  0.00    -0.123 N 
ATOM      5  N   UNL     1      33.556 -24.624 -13.977  0.00  0.00    -0.274 N 
ATOM      6  N   UNL     1      36.136 -25.409 -13.330  0.00  0.00    -0.170 NA
ATOM      7  C   UNL     1      35.658 -23.042 -16.480  0.00  0.00    +0.203 C 
ATOM      8  C   UNL     1      36.994 -24.232 -15.078  0.00  0.00    +0.219 C 
ATOM      9  C   UNL     1      34.610 -24.193 -14.737  0.00  0.00    +0.279 C 
ATOM     10  C   UNL     1      38.053 -24.833 -14.435  0.00  0.00    +0.203 C 
ATOM     11  C   UNL     1      37.464 -25.544 -13.369  0.00  0.00    +0.116 C 
ATOM     12  H   UNL     1      34.570 -21.957 -17.780  0.00  0.00    +0.160 HD
ATOM     13  H   UNL     1      33.774 -25.209 -13.215  0.00  0.00    +0.156 HD
ENDROOT
BRANCH   5  14
ATOM     14  C   UNL     1      32.207 -24.323 -14.167  0.00  0.00    +0.051 C 
ATOM     15  C   UNL     1      31.804 -22.997 -14.330  0.00  0.00    +0.015 C 
ATOM     16  C   UNL     1      31.261 -25.347 -14.195  0.00  0.00    +0.015 C 
ATOM     17  C   UNL     1      30.456 -22.695 -14.519  0.00  0.00    +0.001 C 
ATOM     18  C   UNL     1      29.912 -25.045 -14.384  0.00  0.00    +0.001 C 
ATOM     19  C   UNL     1      29.509 -23.720 -14.546  0.00  0.00    +0.000 C 
ENDBRANCH   5  14
BRANCH  10  21
ATOM     20  N   UNL     1      40.547 -24.666 -15.078  0.00  0.00    -0.195 NA
ATOM     21  C   UNL     1      39.426 -24.741 -14.788  0.00  0.00    +0.087 C 
ENDBRANCH  10  21
BRANCH   1  22
ATOM     22  C   UNL     1      36.572 -21.767 -18.367  0.00  0.00    +0.099 C 
BRANCH  22  23
ATOM     23  C   UNL     1      36.098 -20.601 -19.232  0.00  0.00    +0.020 C 
ATOM     24  C   UNL     1      37.164 -20.231 -20.273  0.00  0.00    +0.002 C 
ATOM     25  C   UNL     1      34.764 -20.937 -19.912  0.00  0.00    +0.002 C 
ATOM     26  C   UNL     1      36.693 -19.102 -21.186  0.00  0.00    +0.000 C 
ATOM     27  C   UNL     1      34.297 -19.806 -20.826  0.00  0.00    +0.000 C 
ATOM     28  C   UNL     1      35.362 -19.435 -21.853  0.00  0.00    +0.000 C 
ENDBRANCH  22  23
ENDBRANCH   1  22
TORSDOF 4
ENDMDL
MODEL 5
REMARK VINA RESULT:      -9.3      1.310      6.534
REMARK  Name = 24779675
REMARK  4 active torsions:
REMARK  status: ('A' for Active; 'I' for Inactive)
REMARK    1  A    between atoms: N_1  and  C_22
REMARK    2  A    between atoms: N_5  and  C_14
REMARK    3  A    between atoms: C_10  and  C_21
REMARK    4  A    between atoms: C_22  and  C_23
REMARK                            x       y       z     vdW  Elec       q    Type
REMARK                         _______ _______ _______ _____ _____    ______ ____
ROOT
ATOM      1  N   UNL     1      35.558 -23.341 -15.258  0.00  0.00    -0.259 N 
ATOM      2  N   UNL     1      33.307 -23.700 -14.966  0.00  0.00    -0.314 NA
ATOM      3  N   UNL     1      34.102 -22.602 -16.933  0.00  0.00    -0.295 NA
ATOM      4  N   UNL     1      31.856 -22.951 -16.661  0.00  0.00    -0.123 N 
ATOM      5  N   UNL     1      32.607 -21.863 -18.618  0.00  0.00    -0.274 N 
ATOM      6  N   UNL     1      30.567 -22.875 -17.036  0.00  0.00    -0.170 NA
ATOM      7  C   UNL     1      34.289 -23.227 -15.702  0.00  0.00    +0.203 C 
ATOM      8  C   UNL     1      32.054 -23.561 -15.456  0.00  0.00    +0.219 C 
ATOM      9  C   UNL     1      32.905 -22.458 -17.422  0.00  0.00    +0.279 C 
ATOM     10  C   UNL     1      30.799 -23.911 -15.011  0.00  0.00    +0.203 C 
ATOM     11  C   UNL     1      29.926 -23.464 -16.023  0.00  0.00    +0.116 C 
ATOM     12  H   UNL     1      36.283 -22.984 -15.818  0.00  0.00    +0.160 HD
ATOM     13  H   UNL     1      31.655 -21.823 -18.864  0.00  0.00    +0.156 HD
ENDROOT
BRANCH   5  14
ATOM     14  C   UNL     1      33.511 -21.309 -19.526  0.00  0.00    +0.051 C 
ATOM     15  C   UNL     1      33.086 -20.325 -20.420  0.00  0.00    +0.015 C 
ATOM     16  C   UNL     1      34.838 -21.737 -19.539  0.00  0.00    +0.015 C 
ATOM     17  C   UNL     1      33.989 -19.771 -21.328  0.00  0.00    +0.001 C 
ATOM     18  C   UNL     1      35.740 -21.182 -20.447  0.00  0.00    +0.001 C 
ATOM     19  C   UNL     1      35.316 -20.200 -21.341  0.00  0.00    +0.000 C 
ENDBRANCH   5  14
BRANCH  10  21
ATOM     20  N   UNL     1      30.224 -25.117 -12.803  0.00  0.00    -0.195 NA
ATOM     21  C   UNL     1      30.482 -24.574 -13.795  0.00  0.00    +0.087 C 
ENDBRANCH  10  21
BRANCH   1  22
ATOM     22  C   UNL     1      35.902 -23.962 -14.006  0.00  0.00    +0.099 C 
BRANCH  22  23
ATOM     23  C   UNL     1      37.412 -24.184 -13.939  0.00  0.00    +0.020 C 
ATOM     24  C   UNL     1      37.733 -25.508 -13.234  0.00  0.00    +0.002 C 
ATOM     25  C   UNL     1      38.027 -24.150 -15.345  0.00  0.00    +0.002 C 
ATOM     26  C   UNL     1      39.236 -25.780 -13.202  0.00  0.00    +0.000 C 
ATOM     27  C   UNL     1      39.529 -24.424 -15.309  0.00  0.00    +0.000 C 
ATOM     28  C   UNL     1      39.846 -25.737 -14.599  0.00  0.00    +0.000 C 
ENDBRANCH  22  23
ENDBRANCH   1  22
TORSDOF 4
ENDMDL
MODEL 6
REMARK VINA RESULT:      -9.1      1.364      6.799
REMARK  Name = 24779675
REMARK  4 active torsions:
REMARK  status: ('A' for Active; 'I' for Inactive)
REMARK    1  A    between atoms: N_1  and  C_22
REMARK    2  A    between atoms: N_5  and  C_14
REMARK    3  A    between atoms: C_10  and  C_21
REMARK    4  A    between atoms: C_22  and  C_23
REMARK                            x       y       z     vdW  Elec       q    Type
REMARK                         _______ _______ _______ _____ _____    ______ ____
ROOT
ATOM      1  N   UNL     1      35.538 -23.913 -16.084  0.00  0.00    -0.259 N 
ATOM      2  N   UNL     1      33.292 -23.967 -15.604  0.00  0.00    -0.314 NA
ATOM      3  N   UNL     1      34.091 -22.699 -17.463  0.00  0.00    -0.295 NA
ATOM      4  N   UNL     1      31.850 -22.741 -17.001  0.00  0.00    -0.123 N 
ATOM      5  N   UNL     1      32.605 -21.477 -18.848  0.00  0.00    -0.274 N 
ATOM      6  N   UNL     1      30.565 -22.409 -17.218  0.00  0.00    -0.170 NA
ATOM      7  C   UNL     1      34.273 -23.536 -16.365  0.00  0.00    +0.203 C 
ATOM      8  C   UNL     1      32.043 -23.561 -15.928  0.00  0.00    +0.219 C 
ATOM      9  C   UNL     1      32.898 -22.297 -17.792  0.00  0.00    +0.279 C 
ATOM     10  C   UNL     1      30.789 -23.783 -15.404  0.00  0.00    +0.203 C 
ATOM     11  C   UNL     1      29.921 -23.050 -16.238  0.00  0.00    +0.116 C 
ATOM     12  H   UNL     1      36.264 -23.584 -16.662  0.00  0.00    +0.160 HD
ATOM     13  H   UNL     1      31.655 -21.252 -18.980  0.00  0.00    +0.156 HD
ENDROOT
BRANCH   5  14
ATOM     14  C   UNL     1      33.509 -20.927 -19.758  0.00  0.00    +0.051 C 
ATOM     15  C   UNL     1      34.865 -21.240 -19.669  0.00  0.00    +0.015 C 
ATOM     16  C   UNL     1      33.056 -20.063 -20.755  0.00  0.00    +0.015 C 
ATOM     17  C   UNL     1      35.770 -20.689 -20.578  0.00  0.00    +0.001 C 
ATOM     18  C   UNL     1      33.960 -19.512 -21.664  0.00  0.00    +0.001 C 
ATOM     19  C   UNL     1      35.317 -19.825 -21.575  0.00  0.00    +0.000 C 
ENDBRANCH   5  14
BRANCH  10  21
ATOM     20  N   UNL     1      30.209 -25.227 -13.345  0.00  0.00    -0.195 NA
ATOM     21  C   UNL     1      30.469 -24.578 -14.272  0.00  0.00    +0.087 C 
ENDBRANCH  10  21
BRANCH   1  22
ATOM     22  C   UNL     1      35.878 -24.774 -14.981  0.00  0.00    +0.099 C 
BRANCH  22  23
ATOM     23  C   UNL     1      36.004 -23.946 -13.704  0.00  0.00    +0.020 C 
ATOM     24  C   UNL     1      35.257 -24.621 -12.545  0.00  0.00    +0.002 C 
ATOM     25  C   UNL     1      37.479 -23.724 -13.345  0.00  0.00    +0.002 C 
ATOM     26  C   UNL     1      35.412 -23.840 -11.242  0.00  0.00    +0.000 C 
ATOM     27  C   UNL     1      37.631 -22.944 -12.041  0.00  0.00    +0.000 C 
ATOM     28  C   UNL     1      36.879 -23.613 -10.894  0.00  0.00    +0.000 C 
ENDBRANCH  22  23
ENDBRANCH   1  22
TORSDOF 4
ENDMDL
