MODEL 1
REMARK VINA RESULT:     -11.3      0.000      0.000
REMARK  Name = 2765355
REMARK  2 active torsions:
REMARK  status: ('A' for Active; 'I' for Inactive)
REMARK    1  A    between atoms: C_4  and  C_20
REMARK    2  A    between atoms: C_6  and  C_13
REMARK                            x       y       z     vdW  Elec       q    Type
REMARK                         _______ _______ _______ _____ _____    ______ ____
ROOT
ATOM      1  O   UNL     1      34.972 -18.038 -24.833  0.00  0.00    -0.353 OA
ATOM      2  N   UNL     1      34.566 -17.131 -25.803  0.00  0.00    -0.077 NA
ATOM      3  C   UNL     1      34.097 -16.339 -23.735  0.00  0.00    +0.058 A 
ATOM      4  C   UNL     1      34.689 -17.558 -23.594  0.00  0.00    +0.177 A 
ATOM      5  C   UNL     1      34.028 -16.085 -25.150  0.00  0.00    +0.123 A 
ATOM      6  C   UNL     1      33.095 -14.332 -23.221  0.00  0.00    +0.031 C 
ATOM      7  C   UNL     1      33.655 -15.519 -22.707  0.00  0.00    +0.007 C 
ATOM      8  C   UNL     1      33.463 -14.894 -25.638  0.00  0.00    +0.023 C 
ATOM      9  C   UNL     1      33.002 -14.032 -24.618  0.00  0.00    +0.004 C 
ENDROOT
BRANCH   6  13
ATOM     10  N   UNL     1      32.222 -12.179 -22.825  0.00  0.00    -0.338 NA
ATOM     11  N   UNL     1      31.600 -11.435 -20.619  0.00  0.00    -0.170 NA
ATOM     12  N   UNL     1      31.357 -10.024 -22.479  0.00  0.00    -0.293 N 
ATOM     13  C   UNL     1      32.581 -13.356 -22.280  0.00  0.00    +0.146 C 
ATOM     14  C   UNL     1      32.485 -13.651 -20.938  0.00  0.00    +0.055 C 
ATOM     15  C   UNL     1      31.981 -12.639 -20.145  0.00  0.00    +0.114 C 
ATOM     16  C   UNL     1      31.746 -11.275 -21.948  0.00  0.00    +0.141 C 
ATOM     17  H   UNL     1      31.442  -9.852 -23.445  0.00  0.00    +0.155 HD
ATOM     18  H   UNL     1      31.002  -9.327 -21.883  0.00  0.00    +0.155 HD
ENDBRANCH   6  13
BRANCH   4  20
ATOM     19 CL   UNL     1      36.241 -21.098 -19.067  0.00  0.00    -0.082 Cl
ATOM     20  C   UNL     1      35.063 -18.410 -22.502  0.00  0.00    +0.037 C 
ATOM     21  C   UNL     1      36.373 -18.394 -22.013  0.00  0.00    +0.004 C 
ATOM     22  C   UNL     1      34.121 -19.264 -21.921  0.00  0.00    +0.004 C 
ATOM     23  C   UNL     1      36.737 -19.223 -20.951  0.00  0.00    +0.011 C 
ATOM     24  C   UNL     1      34.485 -20.094 -20.860  0.00  0.00    +0.011 C 
ATOM     25  C   UNL     1      35.793 -20.074 -20.376  0.00  0.00    +0.058 C 
ENDBRANCH   4  20
TORSDOF 2
ENDMDL
MODEL 2
REMARK VINA RESULT:     -11.3      0.044      1.008
REMARK  Name = 2765355
REMARK  2 active torsions:
REMARK  status: ('A' for Active; 'I' for Inactive)
REMARK    1  A    between atoms: C_4  and  C_20
REMARK    2  A    between atoms: C_6  and  C_13
REMARK                            x       y       z     vdW  Elec       q    Type
REMARK                         _______ _______ _______ _____ _____    ______ ____
ROOT
ATOM      1  O   UNL     1      34.971 -17.986 -24.847  0.00  0.00    -0.353 OA
ATOM      2  N   UNL     1      34.560 -17.075 -25.810  0.00  0.00    -0.077 NA
ATOM      3  C   UNL     1      34.091 -16.297 -23.736  0.00  0.00    +0.058 A 
ATOM      4  C   UNL     1      34.687 -17.515 -23.605  0.00  0.00    +0.177 A 
ATOM      5  C   UNL     1      34.020 -16.034 -25.150  0.00  0.00    +0.123 A 
ATOM      6  C   UNL     1      33.084 -14.297 -23.209  0.00  0.00    +0.031 C 
ATOM      7  C   UNL     1      33.648 -15.485 -22.703  0.00  0.00    +0.007 C 
ATOM      8  C   UNL     1      33.451 -14.842 -25.630  0.00  0.00    +0.023 C 
ATOM      9  C   UNL     1      32.988 -13.988 -24.603  0.00  0.00    +0.004 C 
ENDROOT
BRANCH   6  13
ATOM     10  N   UNL     1      32.197 -12.152 -22.799  0.00  0.00    -0.338 NA
ATOM     11  N   UNL     1      31.581 -11.422 -20.586  0.00  0.00    -0.170 NA
ATOM     12  N   UNL     1      31.318 -10.006 -22.439  0.00  0.00    -0.293 N 
ATOM     13  C   UNL     1      32.568 -13.329 -22.260  0.00  0.00    +0.146 C 
ATOM     14  C   UNL     1      32.481 -13.630 -20.920  0.00  0.00    +0.055 C 
ATOM     15  C   UNL     1      31.974 -12.626 -20.120  0.00  0.00    +0.114 C 
ATOM     16  C   UNL     1      31.719 -11.255 -21.916  0.00  0.00    +0.141 C 
ATOM     17  H   UNL     1      31.396  -9.829 -23.405  0.00  0.00    +0.155 HD
ATOM     18  H   UNL     1      30.961  -9.313 -21.839  0.00  0.00    +0.155 HD
ENDBRANCH   6  13
BRANCH   4  20
ATOM     19 CL   UNL     1      36.259 -21.071 -19.096  0.00  0.00    -0.082 Cl
ATOM     20  C   UNL     1      35.066 -18.373 -22.518  0.00  0.00    +0.037 C 
ATOM     21  C   UNL     1      34.124 -19.220 -21.929  0.00  0.00    +0.004 C 
ATOM     22  C   UNL     1      36.380 -18.366 -22.041  0.00  0.00    +0.004 C 
ATOM     23  C   UNL     1      34.492 -20.055 -20.872  0.00  0.00    +0.011 C 
ATOM     24  C   UNL     1      36.749 -19.200 -20.985  0.00  0.00    +0.011 C 
ATOM     25  C   UNL     1      35.805 -20.043 -20.400  0.00  0.00    +0.058 C 
ENDBRANCH   4  20
TORSDOF 2
ENDMDL
MODEL 3
REMARK VINA RESULT:     -11.0      3.618      6.880
REMARK  Name = 2765355
REMARK  2 active torsions:
REMARK  status: ('A' for Active; 'I' for Inactive)
REMARK    1  A    between atoms: C_4  and  C_20
REMARK    2  A    between atoms: C_6  and  C_13
REMARK                            x       y       z     vdW  Elec       q    Type
REMARK                         _______ _______ _______ _____ _____    ______ ____
ROOT
ATOM      1  O   UNL     1      33.299 -14.538 -24.767  0.00  0.00    -0.353 OA
ATOM      2  N   UNL     1      33.823 -15.523 -25.594  0.00  0.00    -0.077 NA
ATOM      3  C   UNL     1      33.913 -16.179 -23.429  0.00  0.00    +0.058 A 
ATOM      4  C   UNL     1      33.356 -14.937 -23.470  0.00  0.00    +0.177 A 
ATOM      5  C   UNL     1      34.203 -16.536 -24.794  0.00  0.00    +0.123 A 
ATOM      6  C   UNL     1      34.735 -18.173 -22.626  0.00  0.00    +0.031 C 
ATOM      7  C   UNL     1      34.146 -16.937 -22.291  0.00  0.00    +0.007 C 
ATOM      8  C   UNL     1      34.791 -17.774 -25.102  0.00  0.00    +0.023 C 
ATOM      9  C   UNL     1      35.043 -18.574 -23.964  0.00  0.00    +0.004 C 
ENDROOT
BRANCH   6  13
ATOM     10  N   UNL     1      33.995 -19.784 -21.072  0.00  0.00    -0.338 NA
ATOM     11  N   UNL     1      35.499 -20.858 -19.526  0.00  0.00    -0.170 NA
ATOM     12  N   UNL     1      33.211 -21.381 -19.541  0.00  0.00    -0.293 N 
ATOM     13  C   UNL     1      35.047 -19.094 -21.550  0.00  0.00    +0.146 C 
ATOM     14  C   UNL     1      36.336 -19.224 -21.083  0.00  0.00    +0.055 C 
ATOM     15  C   UNL     1      36.505 -20.132 -20.057  0.00  0.00    +0.114 C 
ATOM     16  C   UNL     1      34.289 -20.637 -20.073  0.00  0.00    +0.141 C 
ATOM     17  H   UNL     1      32.304 -21.261 -19.904  0.00  0.00    +0.155 HD
ATOM     18  H   UNL     1      33.369 -22.020 -18.810  0.00  0.00    +0.155 HD
ENDBRANCH   6  13
BRANCH   4  20
ATOM     19 CL   UNL     1      31.220 -11.044 -19.505  0.00  0.00    -0.082 Cl
ATOM     20  C   UNL     1      32.842 -13.999 -22.513  0.00  0.00    +0.037 C 
ATOM     21  C   UNL     1      32.844 -14.309 -21.150  0.00  0.00    +0.004 C 
ATOM     22  C   UNL     1      32.334 -12.767 -22.938  0.00  0.00    +0.004 C 
ATOM     23  C   UNL     1      32.344 -13.396 -20.221  0.00  0.00    +0.011 C 
ATOM     24  C   UNL     1      31.834 -11.855 -22.010  0.00  0.00    +0.011 C 
ATOM     25  C   UNL     1      31.838 -12.169 -20.651  0.00  0.00    +0.058 C 
ENDBRANCH   4  20
TORSDOF 2
ENDMDL
MODEL 4
REMARK VINA RESULT:     -10.8      7.563     10.589
REMARK  Name = 2765355
REMARK  2 active torsions:
REMARK  status: ('A' for Active; 'I' for Inactive)
REMARK    1  A    between atoms: C_4  and  C_20
REMARK    2  A    between atoms: C_6  and  C_13
REMARK                            x       y       z     vdW  Elec       q    Type
REMARK                         _______ _______ _______ _____ _____    ______ ____
ROOT
ATOM      1  O   UNL     1      36.477 -22.760 -16.930  0.00  0.00    -0.353 OA
ATOM      2  N   UNL     1      36.458 -23.513 -15.763  0.00  0.00    -0.077 NA
ATOM      3  C   UNL     1      34.351 -23.170 -16.517  0.00  0.00    +0.058 A 
ATOM      4  C   UNL     1      35.211 -22.558 -17.377  0.00  0.00    +0.177 A 
ATOM      5  C   UNL     1      35.166 -23.774 -15.495  0.00  0.00    +0.123 A 
ATOM      6  C   UNL     1      32.403 -23.924 -15.554  0.00  0.00    +0.031 C 
ATOM      7  C   UNL     1      32.968 -23.198 -16.620  0.00  0.00    +0.007 C 
ATOM      8  C   UNL     1      34.578 -24.493 -14.440  0.00  0.00    +0.023 C 
ATOM      9  C   UNL     1      33.167 -24.542 -14.513  0.00  0.00    +0.004 C 
ENDROOT
BRANCH   6  13
ATOM     10  N   UNL     1      30.288 -23.226 -16.328  0.00  0.00    -0.338 NA
ATOM     11  N   UNL     1      28.240 -24.197 -15.511  0.00  0.00    -0.170 NA
ATOM     12  N   UNL     1      28.206 -22.497 -17.129  0.00  0.00    -0.293 N 
ATOM     13  C   UNL     1      30.959 -24.054 -15.506  0.00  0.00    +0.146 C 
ATOM     14  C   UNL     1      30.359 -24.968 -14.669  0.00  0.00    +0.055 C 
ATOM     15  C   UNL     1      28.980 -24.995 -14.714  0.00  0.00    +0.114 C 
ATOM     16  C   UNL     1      28.949 -23.349 -16.281  0.00  0.00    +0.141 C 
ATOM     17  H   UNL     1      28.673 -21.857 -17.714  0.00  0.00    +0.155 HD
ATOM     18  H   UNL     1      27.224 -22.544 -17.135  0.00  0.00    +0.155 HD
ENDBRANCH   6  13
BRANCH   4  20
ATOM     19 CL   UNL     1      34.745 -19.360 -22.377  0.00  0.00    -0.082 Cl
ATOM     20  C   UNL     1      35.099 -21.787 -18.583  0.00  0.00    +0.037 C 
ATOM     21  C   UNL     1      36.243 -21.265 -19.194  0.00  0.00    +0.004 C 
ATOM     22  C   UNL     1      33.845 -21.552 -19.155  0.00  0.00    +0.004 C 
ATOM     23  C   UNL     1      36.134 -20.516 -20.367  0.00  0.00    +0.011 C 
ATOM     24  C   UNL     1      33.736 -20.803 -20.327  0.00  0.00    +0.011 C 
ATOM     25  C   UNL     1      34.880 -20.284 -20.932  0.00  0.00    +0.058 C 
ENDBRANCH   4  20
TORSDOF 2
ENDMDL
MODEL 5
REMARK VINA RESULT:     -10.6      7.796     11.448
REMARK  Name = 2765355
REMARK  2 active torsions:
REMARK  status: ('A' for Active; 'I' for Inactive)
REMARK    1  A    between atoms: C_4  and  C_20
REMARK    2  A    between atoms: C_6  and  C_13
REMARK                            x       y       z     vdW  Elec       q    Type
REMARK                         _______ _______ _______ _____ _____    ______ ____
ROOT
ATOM      1  O   UNL     1      31.632 -22.649 -17.714  0.00  0.00    -0.353 OA
ATOM      2  N   UNL     1      31.187 -23.358 -16.607  0.00  0.00    -0.077 NA
ATOM      3  C   UNL     1      33.433 -23.089 -16.521  0.00  0.00    +0.058 A 
ATOM      4  C   UNL     1      32.980 -22.491 -17.658  0.00  0.00    +0.177 A 
ATOM      5  C   UNL     1      32.274 -23.635 -15.864  0.00  0.00    +0.123 A 
ATOM      6  C   UNL     1      34.851 -23.845 -14.875  0.00  0.00    +0.031 C 
ATOM      7  C   UNL     1      34.752 -23.149 -16.096  0.00  0.00    +0.007 C 
ATOM      8  C   UNL     1      32.399 -24.327 -14.647  0.00  0.00    +0.023 C 
ATOM      9  C   UNL     1      33.732 -24.408 -14.182  0.00  0.00    +0.004 C 
ENDROOT
BRANCH   6  13
ATOM     10  N   UNL     1      37.099 -24.517 -15.105  0.00  0.00    -0.338 NA
ATOM     11  N   UNL     1      38.678 -24.348 -13.293  0.00  0.00    -0.170 NA
ATOM     12  N   UNL     1      39.327 -25.201 -15.381  0.00  0.00    -0.293 N 
ATOM     13  C   UNL     1      36.166 -24.002 -14.283  0.00  0.00    +0.146 C 
ATOM     14  C   UNL     1      36.400 -23.639 -12.976  0.00  0.00    +0.055 C 
ATOM     15  C   UNL     1      37.691 -23.837 -12.529  0.00  0.00    +0.114 C 
ATOM     16  C   UNL     1      38.318 -24.662 -14.552  0.00  0.00    +0.141 C 
ATOM     17  H   UNL     1      39.119 -25.448 -16.312  0.00  0.00    +0.155 HD
ATOM     18  H   UNL     1      40.236 -25.328 -15.029  0.00  0.00    +0.155 HD
ENDBRANCH   6  13
BRANCH   4  20
ATOM     19 CL   UNL     1      35.393 -19.498 -22.203  0.00  0.00    -0.082 Cl
ATOM     20  C   UNL     1      33.562 -21.770 -18.754  0.00  0.00    +0.037 C 
ATOM     21  C   UNL     1      34.923 -21.907 -19.044  0.00  0.00    +0.004 C 
ATOM     22  C   UNL     1      32.772 -20.925 -19.540  0.00  0.00    +0.004 C 
ATOM     23  C   UNL     1      35.489 -21.206 -20.110  0.00  0.00    +0.011 C 
ATOM     24  C   UNL     1      33.338 -20.224 -20.605  0.00  0.00    +0.011 C 
ATOM     25  C   UNL     1      34.695 -20.363 -20.890  0.00  0.00    +0.058 C 
ENDBRANCH   4  20
TORSDOF 2
ENDMDL
MODEL 6
REMARK VINA RESULT:     -10.5      5.007      8.899
REMARK  Name = 2765355
REMARK  2 active torsions:
REMARK  status: ('A' for Active; 'I' for Inactive)
REMARK    1  A    between atoms: C_4  and  C_20
REMARK    2  A    between atoms: C_6  and  C_13
REMARK                            x       y       z     vdW  Elec       q    Type
REMARK                         _______ _______ _______ _____ _____    ______ ____
ROOT
ATOM      1  O   UNL     1      31.643  -9.750 -20.684  0.00  0.00    -0.353 OA
ATOM      2  N   UNL     1      31.521 -10.934 -19.969  0.00  0.00    -0.077 NA
ATOM      3  C   UNL     1      32.239 -11.353 -22.074  0.00  0.00    +0.058 A 
ATOM      4  C   UNL     1      32.074 -10.008 -21.946  0.00  0.00    +0.177 A 
ATOM      5  C   UNL     1      31.882 -11.926 -20.802  0.00  0.00    +0.123 A 
ATOM      6  C   UNL     1      32.725 -13.411 -22.981  0.00  0.00    +0.031 C 
ATOM      7  C   UNL     1      32.669 -12.022 -23.211  0.00  0.00    +0.007 C 
ATOM      8  C   UNL     1      31.945 -13.315 -20.599  0.00  0.00    +0.023 C 
ATOM      9  C   UNL     1      32.380 -14.030 -21.738  0.00  0.00    +0.004 C 
ENDROOT
BRANCH   6  13
ATOM     10  N   UNL     1      33.948 -15.292 -23.705  0.00  0.00    -0.338 NA
ATOM     11  N   UNL     1      34.037 -15.948 -26.022  0.00  0.00    -0.170 NA
ATOM     12  N   UNL     1      35.181 -17.172 -24.378  0.00  0.00    -0.293 N 
ATOM     13  C   UNL     1      33.156 -14.267 -24.070  0.00  0.00    +0.146 C 
ATOM     14  C   UNL     1      32.763 -14.014 -25.365  0.00  0.00    +0.055 C 
ATOM     15  C   UNL     1      33.240 -14.899 -26.311  0.00  0.00    +0.114 C 
ATOM     16  C   UNL     1      34.348 -16.083 -24.718  0.00  0.00    +0.141 C 
ATOM     17  H   UNL     1      35.440 -17.319 -23.439  0.00  0.00    +0.155 HD
ATOM     18  H   UNL     1      35.502 -17.783 -25.079  0.00  0.00    +0.155 HD
ENDBRANCH   6  13
BRANCH   4  20
ATOM     19 CL   UNL     1      32.755  -5.231 -25.433  0.00  0.00    -0.082 Cl
ATOM     20  C   UNL     1      32.239  -8.857 -22.788  0.00  0.00    +0.037 C 
ATOM     21  C   UNL     1      33.513  -8.330 -23.020  0.00  0.00    +0.004 C 
ATOM     22  C   UNL     1      31.126  -8.252 -23.380  0.00  0.00    +0.004 C 
ATOM     23  C   UNL     1      33.673  -7.211 -23.838  0.00  0.00    +0.011 C 
ATOM     24  C   UNL     1      31.285  -7.133 -24.197  0.00  0.00    +0.011 C 
ATOM     25  C   UNL     1      32.558  -6.612 -24.426  0.00  0.00    +0.058 C 
ENDBRANCH   4  20
TORSDOF 2
ENDMDL
MODEL 7
REMARK VINA RESULT:     -10.5      8.013     11.506
REMARK  Name = 2765355
REMARK  2 active torsions:
REMARK  status: ('A' for Active; 'I' for Inactive)
REMARK    1  A    between atoms: C_4  and  C_20
REMARK    2  A    between atoms: C_6  and  C_13
REMARK                            x       y       z     vdW  Elec       q    Type
REMARK                         _______ _______ _______ _____ _____    ______ ____
ROOT
ATOM      1  O   UNL     1      31.610 -22.600 -17.699  0.00  0.00    -0.353 OA
ATOM      2  N   UNL     1      31.170 -23.314 -16.592  0.00  0.00    -0.077 NA
ATOM      3  C   UNL     1      33.423 -23.099 -16.548  0.00  0.00    +0.058 A 
ATOM      4  C   UNL     1      32.962 -22.475 -17.668  0.00  0.00    +0.177 A 
ATOM      5  C   UNL     1      32.264 -23.627 -15.875  0.00  0.00    +0.123 A 
ATOM      6  C   UNL     1      34.855 -23.911 -14.940  0.00  0.00    +0.031 C 
ATOM      7  C   UNL     1      34.748 -23.196 -16.150  0.00  0.00    +0.007 C 
ATOM      8  C   UNL     1      32.397 -24.338 -14.670  0.00  0.00    +0.023 C 
ATOM      9  C   UNL     1      33.736 -24.456 -14.233  0.00  0.00    +0.004 C 
ENDROOT
BRANCH   6  13
ATOM     10  N   UNL     1      36.339 -23.623 -13.132  0.00  0.00    -0.338 NA
ATOM     11  N   UNL     1      38.615 -24.410 -13.205  0.00  0.00    -0.170 NA
ATOM     12  N   UNL     1      37.781 -23.312 -11.306  0.00  0.00    -0.293 N 
ATOM     13  C   UNL     1      36.177 -24.107 -14.377  0.00  0.00    +0.146 C 
ATOM     14  C   UNL     1      37.163 -24.744 -15.095  0.00  0.00    +0.055 C 
ATOM     15  C   UNL     1      38.378 -24.869 -14.451  0.00  0.00    +0.114 C 
ATOM     16  C   UNL     1      37.568 -23.806 -12.612  0.00  0.00    +0.141 C 
ATOM     17  H   UNL     1      37.049 -22.862 -10.824  0.00  0.00    +0.155 HD
ATOM     18  H   UNL     1      38.660 -23.419 -10.877  0.00  0.00    +0.155 HD
ENDBRANCH   6  13
BRANCH   4  20
ATOM     19 CL   UNL     1      35.357 -19.486 -22.225  0.00  0.00    -0.082 Cl
ATOM     20  C   UNL     1      33.540 -21.753 -18.766  0.00  0.00    +0.037 C 
ATOM     21  C   UNL     1      32.746 -20.910 -19.550  0.00  0.00    +0.004 C 
ATOM     22  C   UNL     1      34.900 -21.890 -19.061  0.00  0.00    +0.004 C 
ATOM     23  C   UNL     1      33.308 -20.209 -20.618  0.00  0.00    +0.011 C 
ATOM     24  C   UNL     1      35.461 -21.189 -20.129  0.00  0.00    +0.011 C 
ATOM     25  C   UNL     1      34.665 -20.350 -20.908  0.00  0.00    +0.058 C 
ENDBRANCH   4  20
TORSDOF 2
ENDMDL
MODEL 8
REMARK VINA RESULT:     -10.2      5.124      9.001
REMARK  Name = 2765355
REMARK  2 active torsions:
REMARK  status: ('A' for Active; 'I' for Inactive)
REMARK    1  A    between atoms: C_4  and  C_20
REMARK    2  A    between atoms: C_6  and  C_13
REMARK                            x       y       z     vdW  Elec       q    Type
REMARK                         _______ _______ _______ _____ _____    ______ ____
ROOT
ATOM      1  O   UNL     1      31.621  -9.423 -20.684  0.00  0.00    -0.353 OA
ATOM      2  N   UNL     1      31.518 -10.594 -19.945  0.00  0.00    -0.077 NA
ATOM      3  C   UNL     1      32.207 -11.049 -22.053  0.00  0.00    +0.058 A 
ATOM      4  C   UNL     1      32.035  -9.703 -21.948  0.00  0.00    +0.177 A 
ATOM      5  C   UNL     1      31.873 -11.600 -20.765  0.00  0.00    +0.123 A 
ATOM      6  C   UNL     1      32.691 -13.121 -22.928  0.00  0.00    +0.031 C 
ATOM      7  C   UNL     1      32.623 -11.737 -23.183  0.00  0.00    +0.007 C 
ATOM      8  C   UNL     1      31.947 -12.984 -20.536  0.00  0.00    +0.023 C 
ATOM      9  C   UNL     1      32.369 -13.719 -21.668  0.00  0.00    +0.004 C 
ENDROOT
BRANCH   6  13
ATOM     10  N   UNL     1      33.004 -13.464 -25.239  0.00  0.00    -0.338 NA
ATOM     11  N   UNL     1      33.868 -15.533 -26.122  0.00  0.00    -0.170 NA
ATOM     12  N   UNL     1      33.297 -13.759 -27.549  0.00  0.00    -0.293 N 
ATOM     13  C   UNL     1      33.111 -13.995 -24.007  0.00  0.00    +0.146 C 
ATOM     14  C   UNL     1      33.579 -15.263 -23.748  0.00  0.00    +0.055 C 
ATOM     15  C   UNL     1      33.947 -15.997 -24.858  0.00  0.00    +0.114 C 
ATOM     16  C   UNL     1      33.394 -14.278 -26.238  0.00  0.00    +0.141 C 
ATOM     17  H   UNL     1      32.957 -12.846 -27.693  0.00  0.00    +0.155 HD
ATOM     18  H   UNL     1      33.569 -14.311 -28.317  0.00  0.00    +0.155 HD
ENDBRANCH   6  13
BRANCH   4  20
ATOM     19 CL   UNL     1      32.636  -4.995 -25.543  0.00  0.00    -0.082 Cl
ATOM     20  C   UNL     1      32.179  -8.567 -22.814  0.00  0.00    +0.037 C 
ATOM     21  C   UNL     1      31.053  -7.978 -23.397  0.00  0.00    +0.004 C 
ATOM     22  C   UNL     1      33.447  -8.043 -23.082  0.00  0.00    +0.004 C 
ATOM     23  C   UNL     1      31.194  -6.874 -24.239  0.00  0.00    +0.011 C 
ATOM     24  C   UNL     1      33.588  -6.940 -23.924  0.00  0.00    +0.011 C 
ATOM     25  C   UNL     1      32.462  -6.356 -24.503  0.00  0.00    +0.058 C 
ENDBRANCH   4  20
TORSDOF 2
ENDMDL
MODEL 9
REMARK VINA RESULT:      -9.9      5.537      9.525
REMARK  Name = 2765355
REMARK  2 active torsions:
REMARK  status: ('A' for Active; 'I' for Inactive)
REMARK    1  A    between atoms: C_4  and  C_20
REMARK    2  A    between atoms: C_6  and  C_13
REMARK                            x       y       z     vdW  Elec       q    Type
REMARK                         _______ _______ _______ _____ _____    ______ ____
ROOT
ATOM      1  O   UNL     1      31.968  -7.170 -20.579  0.00  0.00    -0.353 OA
ATOM      2  N   UNL     1      31.589  -7.925 -19.476  0.00  0.00    -0.077 NA
ATOM      3  C   UNL     1      32.205  -9.276 -21.185  0.00  0.00    +0.058 A 
ATOM      4  C   UNL     1      32.336  -7.986 -21.601  0.00  0.00    +0.177 A 
ATOM      5  C   UNL     1      31.729  -9.216 -19.828  0.00  0.00    +0.123 A 
ATOM      6  C   UNL     1      32.234 -11.577 -21.183  0.00  0.00    +0.031 C 
ATOM      7  C   UNL     1      32.482 -10.411 -21.933  0.00  0.00    +0.007 C 
ATOM      8  C   UNL     1      31.488 -10.394 -19.100  0.00  0.00    +0.023 C 
ATOM      9  C   UNL     1      31.760 -11.572 -19.832  0.00  0.00    +0.004 C 
ENDROOT
BRANCH   6  13
ATOM     10  N   UNL     1      32.622 -12.813 -23.152  0.00  0.00    -0.338 NA
ATOM     11  N   UNL     1      32.926 -15.204 -23.125  0.00  0.00    -0.170 NA
ATOM     12  N   UNL     1      33.004 -14.002 -25.139  0.00  0.00    -0.293 N 
ATOM     13  C   UNL     1      32.473 -12.860 -21.815  0.00  0.00    +0.146 C 
ATOM     14  C   UNL     1      32.535 -14.015 -21.069  0.00  0.00    +0.055 C 
ATOM     15  C   UNL     1      32.766 -15.172 -21.786  0.00  0.00    +0.114 C 
ATOM     16  C   UNL     1      32.843 -14.006 -23.736  0.00  0.00    +0.141 C 
ATOM     17  H   UNL     1      32.954 -13.154 -25.638  0.00  0.00    +0.155 HD
ATOM     18  H   UNL     1      33.168 -14.846 -25.618  0.00  0.00    +0.155 HD
ENDBRANCH   6  13
BRANCH   4  20
ATOM     19 CL   UNL     1      34.049  -5.216 -26.584  0.00  0.00    -0.082 Cl
ATOM     20  C   UNL     1      32.749  -7.319 -22.803  0.00  0.00    +0.037 C 
ATOM     21  C   UNL     1      34.053  -7.473 -23.281  0.00  0.00    +0.004 C 
ATOM     22  C   UNL     1      31.850  -6.509 -23.503  0.00  0.00    +0.004 C 
ATOM     23  C   UNL     1      34.455  -6.825 -24.450  0.00  0.00    +0.011 C 
ATOM     24  C   UNL     1      32.251  -5.860 -24.671  0.00  0.00    +0.011 C 
ATOM     25  C   UNL     1      33.554  -6.017 -25.144  0.00  0.00    +0.058 C 
ENDBRANCH   4  20
TORSDOF 2
ENDMDL
