MODEL 1
REMARK VINA RESULT:      -6.7      0.000      0.000
REMARK  Name = 68712
REMARK  3 active torsions:
REMARK  status: ('A' for Active; 'I' for Inactive)
REMARK    1  A    between atoms: N_2  and  C_8
REMARK    2  A    between atoms: C_8  and  C_9
REMARK    3  A    between atoms: C_8  and  C_12
REMARK                            x       y       z     vdW  Elec       q    Type
REMARK                         _______ _______ _______ _____ _____    ______ ____
ROOT
ATOM      1  O   UNL     1      33.369 -20.500 -20.212  0.00  0.00    -0.448 OA
ATOM      2  N   UNL     1      34.187 -18.708 -21.365  0.00  0.00    -0.291 N 
ATOM      3  N   UNL     1      35.635 -20.223 -20.212  0.00  0.00    -0.220 NA
ATOM      4  C   UNL     1      34.472 -19.796 -20.597  0.00  0.00    +0.280 C 
ATOM      5  C   UNL     1      33.880 -21.691 -19.634  0.00  0.00    +0.235 C 
ATOM      6  C   UNL     1      35.329 -21.374 -19.358  0.00  0.00    +0.177 C 
ATOM      7  H   UNL     1      33.246 -18.501 -21.563  0.00  0.00    +0.151 HD
ENDROOT
BRANCH   2   8
ATOM      8  C   UNL     1      35.229 -17.836 -21.906  0.00  0.00    +0.073 C 
BRANCH   8   9
ATOM      9  C   UNL     1      34.758 -16.385 -21.904  0.00  0.00    +0.018 C 
ATOM     10  C   UNL     1      34.681 -15.686 -20.601  0.00  0.00    +0.002 C 
ATOM     11  C   UNL     1      33.429 -16.091 -21.323  0.00  0.00    +0.002 C 
ENDBRANCH   8   9
BRANCH   8  12
ATOM     12  C   UNL     1      35.593 -18.292 -23.315  0.00  0.00    +0.018 C 
ATOM     13  C   UNL     1      34.560 -19.010 -24.097  0.00  0.00    +0.002 C 
ATOM     14  C   UNL     1      34.945 -17.604 -24.454  0.00  0.00    +0.002 C 
ENDBRANCH   8  12
ENDBRANCH   2   8
TORSDOF 3
ENDMDL
MODEL 2
REMARK VINA RESULT:      -6.6      1.308      2.980
REMARK  Name = 68712
REMARK  3 active torsions:
REMARK  status: ('A' for Active; 'I' for Inactive)
REMARK    1  A    between atoms: N_2  and  C_8
REMARK    2  A    between atoms: C_8  and  C_9
REMARK    3  A    between atoms: C_8  and  C_12
REMARK                            x       y       z     vdW  Elec       q    Type
REMARK                         _______ _______ _______ _____ _____    ______ ____
ROOT
ATOM      1  O   UNL     1      36.886 -19.966 -19.817  0.00  0.00    -0.448 OA
ATOM      2  N   UNL     1      36.044 -18.462 -21.315  0.00  0.00    -0.291 N 
ATOM      3  N   UNL     1      34.835 -20.434 -20.705  0.00  0.00    -0.220 NA
ATOM      4  C   UNL     1      35.854 -19.634 -20.646  0.00  0.00    +0.280 C 
ATOM      5  C   UNL     1      36.405 -21.065 -19.060  0.00  0.00    +0.235 C 
ATOM      6  C   UNL     1      35.211 -21.556 -19.840  0.00  0.00    +0.177 C 
ATOM      7  H   UNL     1      36.884 -17.969 -21.177  0.00  0.00    +0.151 HD
ENDROOT
BRANCH   2   8
ATOM      8  C   UNL     1      35.045 -17.912 -22.230  0.00  0.00    +0.073 C 
BRANCH   8   9
ATOM      9  C   UNL     1      35.428 -18.215 -23.676  0.00  0.00    +0.018 C 
ATOM     10  C   UNL     1      34.559 -17.681 -24.747  0.00  0.00    +0.002 C 
ATOM     11  C   UNL     1      34.570 -19.149 -24.436  0.00  0.00    +0.002 C 
ENDBRANCH   8   9
BRANCH   8  12
ATOM     12  C   UNL     1      34.918 -16.410 -22.000  0.00  0.00    +0.018 C 
ATOM     13  C   UNL     1      33.593 -15.880 -21.605  0.00  0.00    +0.002 C 
ATOM     14  C   UNL     1      34.716 -15.938 -20.612  0.00  0.00    +0.002 C 
ENDBRANCH   8  12
ENDBRANCH   2   8
TORSDOF 3
ENDMDL
MODEL 3
REMARK VINA RESULT:      -6.6      9.085     11.080
REMARK  Name = 68712
REMARK  3 active torsions:
REMARK  status: ('A' for Active; 'I' for Inactive)
REMARK    1  A    between atoms: N_2  and  C_8
REMARK    2  A    between atoms: C_8  and  C_9
REMARK    3  A    between atoms: C_8  and  C_12
REMARK                            x       y       z     vdW  Elec       q    Type
REMARK                         _______ _______ _______ _____ _____    ______ ____
ROOT
ATOM      1  O   UNL     1      32.279  -9.306 -19.296  0.00  0.00    -0.448 OA
ATOM      2  N   UNL     1      32.824  -7.915 -21.023  0.00  0.00    -0.291 N 
ATOM      3  N   UNL     1      31.673  -9.979 -21.392  0.00  0.00    -0.220 NA
ATOM      4  C   UNL     1      32.242  -9.087 -20.642  0.00  0.00    +0.280 C 
ATOM      5  C   UNL     1      31.441 -10.431 -19.087  0.00  0.00    +0.235 C 
ATOM      6  C   UNL     1      31.300 -11.045 -20.457  0.00  0.00    +0.177 C 
ATOM      7  H   UNL     1      33.232  -7.343 -20.334  0.00  0.00    +0.151 HD
ENDROOT
BRANCH   2   8
ATOM      8  C   UNL     1      32.865  -7.477 -22.418  0.00  0.00    +0.073 C 
BRANCH   8   9
ATOM      9  C   UNL     1      34.298  -7.515 -22.942  0.00  0.00    +0.018 C 
ATOM     10  C   UNL     1      34.529  -7.112 -24.347  0.00  0.00    +0.002 C 
ATOM     11  C   UNL     1      34.641  -8.552 -23.939  0.00  0.00    +0.002 C 
ENDBRANCH   8   9
BRANCH   8  12
ATOM     12  C   UNL     1      32.277  -6.074 -22.527  0.00  0.00    +0.018 C 
ATOM     13  C   UNL     1      31.210  -5.847 -23.528  0.00  0.00    +0.002 C 
ATOM     14  C   UNL     1      30.887  -5.869 -22.063  0.00  0.00    +0.002 C 
ENDBRANCH   8  12
ENDBRANCH   2   8
TORSDOF 3
ENDMDL
MODEL 4
REMARK VINA RESULT:      -6.5      8.995     10.648
REMARK  Name = 68712
REMARK  3 active torsions:
REMARK  status: ('A' for Active; 'I' for Inactive)
REMARK    1  A    between atoms: N_2  and  C_8
REMARK    2  A    between atoms: C_8  and  C_9
REMARK    3  A    between atoms: C_8  and  C_12
REMARK                            x       y       z     vdW  Elec       q    Type
REMARK                         _______ _______ _______ _____ _____    ______ ____
ROOT
ATOM      1  O   UNL     1      31.419 -10.571 -21.338  0.00  0.00    -0.448 OA
ATOM      2  N   UNL     1      32.410  -8.708 -22.209  0.00  0.00    -0.291 N 
ATOM      3  N   UNL     1      32.346  -9.108 -19.851  0.00  0.00    -0.220 NA
ATOM      4  C   UNL     1      32.089  -9.409 -21.086  0.00  0.00    +0.280 C 
ATOM      5  C   UNL     1      31.382 -11.248 -20.092  0.00  0.00    +0.235 C 
ATOM      6  C   UNL     1      31.705 -10.177 -19.080  0.00  0.00    +0.177 C 
ATOM      7  H   UNL     1      32.131  -9.060 -23.084  0.00  0.00    +0.151 HD
ENDROOT
BRANCH   2   8
ATOM      8  C   UNL     1      33.156  -7.451 -22.161  0.00  0.00    +0.073 C 
BRANCH   8   9
ATOM      9  C   UNL     1      32.316  -6.316 -22.740  0.00  0.00    +0.018 C 
ATOM     10  C   UNL     1      31.132  -5.871 -21.972  0.00  0.00    +0.002 C 
ATOM     11  C   UNL     1      30.966  -6.645 -23.247  0.00  0.00    +0.002 C 
ENDBRANCH   8   9
BRANCH   8  12
ATOM     12  C   UNL     1      34.467  -7.608 -22.923  0.00  0.00    +0.018 C 
ATOM     13  C   UNL     1      34.514  -8.601 -24.020  0.00  0.00    +0.002 C 
ATOM     14  C   UNL     1      34.514  -7.131 -24.323  0.00  0.00    +0.002 C 
ENDBRANCH   8  12
ENDBRANCH   2   8
TORSDOF 3
ENDMDL
MODEL 5
REMARK VINA RESULT:      -6.3      3.241      5.128
REMARK  Name = 68712
REMARK  3 active torsions:
REMARK  status: ('A' for Active; 'I' for Inactive)
REMARK    1  A    between atoms: N_2  and  C_8
REMARK    2  A    between atoms: C_8  and  C_9
REMARK    3  A    between atoms: C_8  and  C_12
REMARK                            x       y       z     vdW  Elec       q    Type
REMARK                         _______ _______ _______ _____ _____    ______ ____
ROOT
ATOM      1  O   UNL     1      34.209 -13.471 -23.212  0.00  0.00    -0.448 OA
ATOM      2  N   UNL     1      34.791 -15.678 -23.178  0.00  0.00    -0.291 N 
ATOM      3  N   UNL     1      32.741 -14.908 -22.216  0.00  0.00    -0.220 NA
ATOM      4  C   UNL     1      33.869 -14.737 -22.834  0.00  0.00    +0.280 C 
ATOM      5  C   UNL     1      33.045 -12.695 -22.977  0.00  0.00    +0.235 C 
ATOM      6  C   UNL     1      32.211 -13.551 -22.057  0.00  0.00    +0.177 C 
ATOM      7  H   UNL     1      35.614 -15.391 -23.635  0.00  0.00    +0.151 HD
ENDROOT
BRANCH   2   8
ATOM      8  C   UNL     1      34.604 -17.100 -22.892  0.00  0.00    +0.073 C 
BRANCH   8   9
ATOM      9  C   UNL     1      35.283 -17.468 -21.576  0.00  0.00    +0.018 C 
ATOM     10  C   UNL     1      36.313 -18.530 -21.604  0.00  0.00    +0.002 C 
ATOM     11  C   UNL     1      34.971 -18.788 -20.984  0.00  0.00    +0.002 C 
ENDBRANCH   8   9
BRANCH   8  12
ATOM     12  C   UNL     1      35.160 -17.927 -24.046  0.00  0.00    +0.018 C 
ATOM     13  C   UNL     1      34.275 -18.945 -24.657  0.00  0.00    +0.002 C 
ATOM     14  C   UNL     1      34.611 -17.684 -25.399  0.00  0.00    +0.002 C 
ENDBRANCH   8  12
ENDBRANCH   2   8
TORSDOF 3
ENDMDL
MODEL 6
REMARK VINA RESULT:      -6.3      1.720      3.404
REMARK  Name = 68712
REMARK  3 active torsions:
REMARK  status: ('A' for Active; 'I' for Inactive)
REMARK    1  A    between atoms: N_2  and  C_8
REMARK    2  A    between atoms: C_8  and  C_9
REMARK    3  A    between atoms: C_8  and  C_12
REMARK                            x       y       z     vdW  Elec       q    Type
REMARK                         _______ _______ _______ _____ _____    ______ ____
ROOT
ATOM      1  O   UNL     1      36.095 -18.910 -20.661  0.00  0.00    -0.448 OA
ATOM      2  N   UNL     1      35.271 -16.987 -21.574  0.00  0.00    -0.291 N 
ATOM      3  N   UNL     1      33.929 -18.957 -21.380  0.00  0.00    -0.220 NA
ATOM      4  C   UNL     1      35.027 -18.283 -21.233  0.00  0.00    +0.280 C 
ATOM      5  C   UNL     1      35.580 -20.141 -20.180  0.00  0.00    +0.235 C 
ATOM      6  C   UNL     1      34.269 -20.303 -20.908  0.00  0.00    +0.177 C 
ATOM      7  H   UNL     1      36.168 -16.615 -21.413  0.00  0.00    +0.151 HD
ENDROOT
BRANCH   2   8
ATOM      8  C   UNL     1      34.249 -16.128 -22.172  0.00  0.00    +0.073 C 
BRANCH   8   9
ATOM      9  C   UNL     1      34.718 -15.615 -23.531  0.00  0.00    +0.018 C 
ATOM     10  C   UNL     1      33.720 -15.532 -24.619  0.00  0.00    +0.002 C 
ATOM     11  C   UNL     1      34.790 -16.584 -24.647  0.00  0.00    +0.002 C 
ENDBRANCH   8   9
BRANCH   8  12
ATOM     12  C   UNL     1      33.940 -14.973 -21.226  0.00  0.00    +0.018 C 
ATOM     13  C   UNL     1      32.674 -14.232 -21.430  0.00  0.00    +0.002 C 
ATOM     14  C   UNL     1      32.837 -15.151 -20.255  0.00  0.00    +0.002 C 
ENDBRANCH   8  12
ENDBRANCH   2   8
TORSDOF 3
ENDMDL
MODEL 7
REMARK VINA RESULT:      -6.2      1.878      4.242
REMARK  Name = 68712
REMARK  3 active torsions:
REMARK  status: ('A' for Active; 'I' for Inactive)
REMARK    1  A    between atoms: N_2  and  C_8
REMARK    2  A    between atoms: C_8  and  C_9
REMARK    3  A    between atoms: C_8  and  C_12
REMARK                            x       y       z     vdW  Elec       q    Type
REMARK                         _______ _______ _______ _____ _____    ______ ____
ROOT
ATOM      1  O   UNL     1      34.988 -15.697 -20.292  0.00  0.00    -0.448 OA
ATOM      2  N   UNL     1      34.915 -17.751 -21.285  0.00  0.00    -0.291 N 
ATOM      3  N   UNL     1      33.397 -16.007 -21.899  0.00  0.00    -0.220 NA
ATOM      4  C   UNL     1      34.380 -16.501 -21.211  0.00  0.00    +0.280 C 
ATOM      5  C   UNL     1      34.454 -14.404 -20.527  0.00  0.00    +0.235 C 
ATOM      6  C   UNL     1      33.215 -14.661 -21.348  0.00  0.00    +0.177 C 
ATOM      7  H   UNL     1      35.656 -17.986 -20.682  0.00  0.00    +0.151 HD
ENDROOT
BRANCH   2   8
ATOM      8  C   UNL     1      34.428 -18.758 -22.228  0.00  0.00    +0.073 C 
BRANCH   8   9
ATOM      9  C   UNL     1      34.509 -20.148 -21.605  0.00  0.00    +0.018 C 
ATOM     10  C   UNL     1      33.821 -20.367 -20.313  0.00  0.00    +0.002 C 
ATOM     11  C   UNL     1      35.320 -20.309 -20.378  0.00  0.00    +0.002 C 
ENDBRANCH   8   9
BRANCH   8  12
ATOM     12  C   UNL     1      35.243 -18.684 -23.514  0.00  0.00    +0.018 C 
ATOM     13  C   UNL     1      34.801 -19.510 -24.662  0.00  0.00    +0.002 C 
ATOM     14  C   UNL     1      34.630 -18.019 -24.685  0.00  0.00    +0.002 C 
ENDBRANCH   8  12
ENDBRANCH   2   8
TORSDOF 3
ENDMDL
MODEL 8
REMARK VINA RESULT:      -6.1      1.900      4.476
REMARK  Name = 68712
REMARK  3 active torsions:
REMARK  status: ('A' for Active; 'I' for Inactive)
REMARK    1  A    between atoms: N_2  and  C_8
REMARK    2  A    between atoms: C_8  and  C_9
REMARK    3  A    between atoms: C_8  and  C_12
REMARK                            x       y       z     vdW  Elec       q    Type
REMARK                         _______ _______ _______ _____ _____    ______ ____
ROOT
ATOM      1  O   UNL     1      32.665 -15.740 -21.259  0.00  0.00    -0.448 OA
ATOM      2  N   UNL     1      33.697 -17.724 -21.714  0.00  0.00    -0.291 N 
ATOM      3  N   UNL     1      34.895 -15.873 -20.788  0.00  0.00    -0.220 NA
ATOM      4  C   UNL     1      33.827 -16.454 -21.242  0.00  0.00    +0.280 C 
ATOM      5  C   UNL     1      32.953 -14.556 -20.532  0.00  0.00    +0.235 C 
ATOM      6  C   UNL     1      34.460 -14.504 -20.495  0.00  0.00    +0.177 C 
ATOM      7  H   UNL     1      32.817 -18.021 -22.041  0.00  0.00    +0.151 HD
ENDROOT
BRANCH   2   8
ATOM      8  C   UNL     1      34.816 -18.665 -21.753  0.00  0.00    +0.073 C 
BRANCH   8   9
ATOM      9  C   UNL     1      35.490 -18.628 -23.122  0.00  0.00    +0.018 C 
ATOM     10  C   UNL     1      34.747 -18.006 -24.241  0.00  0.00    +0.002 C 
ATOM     11  C   UNL     1      34.938 -19.494 -24.187  0.00  0.00    +0.002 C 
ENDBRANCH   8   9
BRANCH   8  12
ATOM     12  C   UNL     1      34.313 -20.067 -21.427  0.00  0.00    +0.018 C 
ATOM     13  C   UNL     1      34.543 -20.582 -20.058  0.00  0.00    +0.002 C 
ATOM     14  C   UNL     1      33.164 -20.192 -20.503  0.00  0.00    +0.002 C 
ENDBRANCH   8  12
ENDBRANCH   2   8
TORSDOF 3
ENDMDL
MODEL 9
REMARK VINA RESULT:      -6.1      3.397      5.979
REMARK  Name = 68712
REMARK  3 active torsions:
REMARK  status: ('A' for Active; 'I' for Inactive)
REMARK    1  A    between atoms: N_2  and  C_8
REMARK    2  A    between atoms: C_8  and  C_9
REMARK    3  A    between atoms: C_8  and  C_12
REMARK                            x       y       z     vdW  Elec       q    Type
REMARK                         _______ _______ _______ _____ _____    ______ ____
ROOT
ATOM      1  O   UNL     1      33.571 -15.940 -25.753  0.00  0.00    -0.448 OA
ATOM      2  N   UNL     1      34.045 -16.145 -23.530  0.00  0.00    -0.291 N 
ATOM      3  N   UNL     1      33.482 -14.033 -24.501  0.00  0.00    -0.220 NA
ATOM      4  C   UNL     1      33.700 -15.311 -24.549  0.00  0.00    +0.280 C 
ATOM      5  C   UNL     1      32.997 -14.969 -26.612  0.00  0.00    +0.235 C 
ATOM      6  C   UNL     1      33.224 -13.661 -25.896  0.00  0.00    +0.177 C 
ATOM      7  H   UNL     1      34.192 -17.098 -23.725  0.00  0.00    +0.151 HD
ENDROOT
BRANCH   2   8
ATOM      8  C   UNL     1      34.204 -15.676 -22.153  0.00  0.00    +0.073 C 
BRANCH   8   9
ATOM      9  C   UNL     1      34.871 -16.753 -21.302  0.00  0.00    +0.018 C 
ATOM     10  C   UNL     1      35.620 -17.820 -22.001  0.00  0.00    +0.002 C 
ATOM     11  C   UNL     1      34.303 -18.118 -21.346  0.00  0.00    +0.002 C 
ENDBRANCH   8   9
BRANCH   8  12
ATOM     12  C   UNL     1      32.842 -15.293 -21.586  0.00  0.00    +0.018 C 
ATOM     13  C   UNL     1      32.740 -15.063 -20.127  0.00  0.00    +0.002 C 
ATOM     14  C   UNL     1      32.665 -13.911 -21.086  0.00  0.00    +0.002 C 
ENDBRANCH   8  12
ENDBRANCH   2   8
TORSDOF 3
ENDMDL
