MODEL 1
REMARK VINA RESULT:      -9.3      0.000      0.000
REMARK  Name = 3407
REMARK  6 active torsions:
REMARK  status: ('A' for Active; 'I' for Inactive)
REMARK    1  A    between atoms: C_2  and  C_18
REMARK    2  A    between atoms: C_3  and  N_9
REMARK    3  A    between atoms: C_10  and  C_12
REMARK    4  A    between atoms: C_18  and  N_19
REMARK    5  A    between atoms: N_19  and  C_22
REMARK    6  A    between atoms: C_22  and  C_30
REMARK                            x       y       z     vdW  Elec       q    Type
REMARK                         _______ _______ _______ _____ _____    ______ ____
ROOT
ATOM      1 CL   UNL     1      31.093 -12.218 -20.707  0.00  0.00    -0.083 Cl
ATOM      2  C   UNL     1      32.031  -9.855 -21.700  0.00  0.00    -0.019 C 
ATOM      3  C   UNL     1      32.463  -8.541 -21.571  0.00  0.00    +0.045 C 
ATOM      4  C   UNL     1      31.636 -10.583 -20.583  0.00  0.00    +0.053 C 
ATOM      5  C   UNL     1      32.501  -7.945 -20.310  0.00  0.00    +0.014 C 
ATOM      6  C   UNL     1      31.673  -9.989 -19.322  0.00  0.00    +0.011 C 
ATOM      7  C   UNL     1      32.106  -8.669 -19.185  0.00  0.00    +0.002 C 
ENDROOT
BRANCH   3   9
ATOM      8  O   UNL     1      31.094  -6.276 -22.981  0.00  0.00    -0.270 OA
ATOM      9  N   UNL     1      32.863  -7.795 -22.683  0.00  0.00    -0.281 N 
ATOM     10  C   UNL     1      32.181  -6.742 -23.305  0.00  0.00    +0.249 C 
ATOM     11  H   UNL     1      33.731  -8.040 -23.078  0.00  0.00    +0.155 HD
BRANCH  10  12
ATOM     12  C   UNL     1      32.857  -6.162 -24.494  0.00  0.00    +0.054 C 
ATOM     13  C   UNL     1      34.140  -6.572 -24.796  0.00  0.00    +0.005 C 
ATOM     14  C   UNL     1      32.182  -5.233 -25.258  0.00  0.00    +0.005 C 
ATOM     15  C   UNL     1      34.774  -6.027 -25.913  0.00  0.00    +0.000 C 
ATOM     16  C   UNL     1      32.816  -4.690 -26.374  0.00  0.00    +0.000 C 
ATOM     17  C   UNL     1      34.113  -5.087 -26.703  0.00  0.00    +0.000 C 
ENDBRANCH  10  12
ENDBRANCH   3   9
BRANCH   2  18
ATOM     18  C   UNL     1      31.994 -10.487 -23.067  0.00  0.00    -0.047 C 
BRANCH  18  19
ATOM     19  N   UNL     1      33.057 -11.484 -23.237  0.00  0.00    +0.394 N 
ATOM     20  C   UNL     1      34.059 -10.988 -24.189  0.00  0.00    -0.100 C 
ATOM     21  H   UNL     1      33.510 -11.637 -22.336  0.00  0.00    -0.079 HD
BRANCH  19  22
ATOM     22  C   UNL     1      32.514 -12.753 -23.670  0.00  0.00    +0.010 C 
BRANCH  22  30
ATOM     23  O   UNL     1      34.325 -17.047 -25.671  0.00  0.00    -0.350 OA
ATOM     24  O   UNL     1      33.790 -13.821 -21.982  0.00  0.00    -0.277 OA
ATOM     25  N   UNL     1      33.918 -14.734 -24.113  0.00  0.00    -0.276 N 
ATOM     26  C   UNL     1      34.941 -15.713 -23.745  0.00  0.00    +0.125 C 
ATOM     27  C   UNL     1      33.550 -14.751 -25.532  0.00  0.00    +0.125 C 
ATOM     28  C   UNL     1      34.562 -17.094 -24.261  0.00  0.00    +0.164 C 
ATOM     29  C   UNL     1      33.234 -16.174 -25.978  0.00  0.00    +0.164 C 
ATOM     30  C   UNL     1      33.465 -13.812 -23.171  0.00  0.00    +0.205 C 
ENDBRANCH  22  30
ENDBRANCH  19  22
ENDBRANCH  18  19
ENDBRANCH   2  18
TORSDOF 6
ENDMDL
MODEL 2
REMARK VINA RESULT:      -9.3      3.153      5.389
REMARK  Name = 3407
REMARK  6 active torsions:
REMARK  status: ('A' for Active; 'I' for Inactive)
REMARK    1  A    between atoms: C_2  and  C_18
REMARK    2  A    between atoms: C_3  and  N_9
REMARK    3  A    between atoms: C_10  and  C_12
REMARK    4  A    between atoms: C_18  and  N_19
REMARK    5  A    between atoms: N_19  and  C_22
REMARK    6  A    between atoms: C_22  and  C_30
REMARK                            x       y       z     vdW  Elec       q    Type
REMARK                         _______ _______ _______ _____ _____    ______ ____
ROOT
ATOM      1 CL   UNL     1      34.178 -16.928 -24.144  0.00  0.00    -0.083 Cl
ATOM      2  C   UNL     1      33.735 -14.246 -24.382  0.00  0.00    -0.019 C 
ATOM      3  C   UNL     1      33.366 -13.108 -25.091  0.00  0.00    +0.045 C 
ATOM      4  C   UNL     1      33.725 -15.494 -24.995  0.00  0.00    +0.053 C 
ATOM      5  C   UNL     1      32.982 -13.219 -26.427  0.00  0.00    +0.014 C 
ATOM      6  C   UNL     1      33.342 -15.607 -26.331  0.00  0.00    +0.011 C 
ATOM      7  C   UNL     1      32.971 -14.468 -27.049  0.00  0.00    +0.002 C 
ENDROOT
BRANCH   3   9
ATOM      8  O   UNL     1      35.150 -10.745 -25.560  0.00  0.00    -0.270 OA
ATOM      9  N   UNL     1      33.370 -11.846 -24.491  0.00  0.00    -0.281 N 
ATOM     10  C   UNL     1      34.230 -10.772 -24.750  0.00  0.00    +0.249 C 
ATOM     11  H   UNL     1      32.683 -11.692 -23.803  0.00  0.00    +0.155 HD
BRANCH  10  12
ATOM     12  C   UNL     1      33.999  -9.560 -23.922  0.00  0.00    +0.054 C 
ATOM     13  C   UNL     1      34.885  -8.506 -24.024  0.00  0.00    +0.005 C 
ATOM     14  C   UNL     1      32.909  -9.526 -23.079  0.00  0.00    +0.005 C 
ATOM     15  C   UNL     1      34.668  -7.368 -23.247  0.00  0.00    +0.000 C 
ATOM     16  C   UNL     1      32.693  -8.388 -22.303  0.00  0.00    +0.000 C 
ATOM     17  C   UNL     1      33.573  -7.308 -22.387  0.00  0.00    +0.000 C 
ENDBRANCH  10  12
ENDBRANCH   3   9
BRANCH   2  18
ATOM     18  C   UNL     1      34.147 -14.113 -22.940  0.00  0.00    -0.047 C 
BRANCH  18  19
ATOM     19  N   UNL     1      33.045 -14.434 -22.025  0.00  0.00    +0.394 N 
ATOM     20  C   UNL     1      32.305 -13.212 -21.687  0.00  0.00    -0.100 C 
ATOM     21  H   UNL     1      32.411 -15.082 -22.491  0.00  0.00    -0.079 HD
BRANCH  19  22
ATOM     22  C   UNL     1      33.535 -15.090 -20.832  0.00  0.00    +0.010 C 
BRANCH  22  30
ATOM     23  O   UNL     1      35.516 -19.691 -21.618  0.00  0.00    -0.350 OA
ATOM     24  O   UNL     1      31.731 -16.627 -20.852  0.00  0.00    -0.277 OA
ATOM     25  N   UNL     1      33.869 -17.534 -20.859  0.00  0.00    -0.276 N 
ATOM     26  C   UNL     1      33.396 -18.914 -20.742  0.00  0.00    +0.125 C 
ATOM     27  C   UNL     1      35.328 -17.395 -20.855  0.00  0.00    +0.125 C 
ATOM     28  C   UNL     1      34.097 -19.803 -21.760  0.00  0.00    +0.164 C 
ATOM     29  C   UNL     1      35.952 -18.351 -21.864  0.00  0.00    +0.164 C 
ATOM     30  C   UNL     1      32.956 -16.481 -20.847  0.00  0.00    +0.205 C 
ENDBRANCH  22  30
ENDBRANCH  19  22
ENDBRANCH  18  19
ENDBRANCH   2  18
TORSDOF 6
ENDMDL
MODEL 3
REMARK VINA RESULT:      -9.0     13.281     16.234
REMARK  Name = 3407
REMARK  6 active torsions:
REMARK  status: ('A' for Active; 'I' for Inactive)
REMARK    1  A    between atoms: C_2  and  C_18
REMARK    2  A    between atoms: C_3  and  N_9
REMARK    3  A    between atoms: C_10  and  C_12
REMARK    4  A    between atoms: C_18  and  N_19
REMARK    5  A    between atoms: N_19  and  C_22
REMARK    6  A    between atoms: C_22  and  C_30
REMARK                            x       y       z     vdW  Elec       q    Type
REMARK                         _______ _______ _______ _____ _____    ______ ____
ROOT
ATOM      1 CL   UNL     1      35.991 -24.413 -10.832  0.00  0.00    -0.083 Cl
ATOM      2  C   UNL     1      36.329 -23.986 -13.506  0.00  0.00    -0.019 C 
ATOM      3  C   UNL     1      37.013 -24.129 -14.708  0.00  0.00    +0.045 C 
ATOM      4  C   UNL     1      36.815 -24.572 -12.342  0.00  0.00    +0.053 C 
ATOM      5  C   UNL     1      38.197 -24.867 -14.747  0.00  0.00    +0.014 C 
ATOM      6  C   UNL     1      37.998 -25.309 -12.380  0.00  0.00    +0.011 C 
ATOM      7  C   UNL     1      38.690 -25.456 -13.583  0.00  0.00    +0.002 C 
ENDROOT
BRANCH   3   9
ATOM      8  O   UNL     1      37.814 -21.581 -16.070  0.00  0.00    -0.270 OA
ATOM      9  N   UNL     1      36.539 -23.548 -15.887  0.00  0.00    -0.281 N 
ATOM     10  C   UNL     1      36.951 -22.349 -16.482  0.00  0.00    +0.249 C 
ATOM     11  H   UNL     1      35.829 -24.042 -16.358  0.00  0.00    +0.155 HD
BRANCH  10  12
ATOM     12  C   UNL     1      36.232 -21.980 -17.729  0.00  0.00    +0.054 C 
ATOM     13  C   UNL     1      34.930 -22.406 -17.898  0.00  0.00    +0.005 C 
ATOM     14  C   UNL     1      36.888 -21.223 -18.677  0.00  0.00    +0.005 C 
ATOM     15  C   UNL     1      34.256 -22.059 -19.069  0.00  0.00    +0.000 C 
ATOM     16  C   UNL     1      36.213 -20.877 -19.847  0.00  0.00    +0.000 C 
ATOM     17  C   UNL     1      34.896 -21.294 -20.043  0.00  0.00    +0.000 C 
ENDBRANCH  10  12
ENDBRANCH   3   9
BRANCH   2  18
ATOM     18  C   UNL     1      35.053 -23.188 -13.477  0.00  0.00    -0.047 C 
BRANCH  18  19
ATOM     19  N   UNL     1      33.867 -24.050 -13.541  0.00  0.00    +0.394 N 
ATOM     20  C   UNL     1      33.979 -24.968 -14.682  0.00  0.00    -0.100 C 
ATOM     21  H   UNL     1      33.815 -24.600 -12.684  0.00  0.00    -0.079 HD
BRANCH  19  22
ATOM     22  C   UNL     1      32.656 -23.264 -13.626  0.00  0.00    +0.010 C 
BRANCH  22  30
ATOM     23  O   UNL     1      28.933 -23.487 -17.062  0.00  0.00    -0.350 OA
ATOM     24  O   UNL     1      31.277 -25.098 -13.035  0.00  0.00    -0.277 OA
ATOM     25  N   UNL     1      30.847 -24.094 -15.084  0.00  0.00    -0.276 N 
ATOM     26  C   UNL     1      29.834 -25.076 -15.470  0.00  0.00    +0.125 C 
ATOM     27  C   UNL     1      31.128 -23.083 -16.109  0.00  0.00    +0.125 C 
ATOM     28  C   UNL     1      28.588 -24.374 -15.994  0.00  0.00    +0.164 C 
ATOM     29  C   UNL     1      29.829 -22.467 -16.611  0.00  0.00    +0.164 C 
ATOM     30  C   UNL     1      31.535 -24.239 -13.881  0.00  0.00    +0.205 C 
ENDBRANCH  22  30
ENDBRANCH  19  22
ENDBRANCH  18  19
ENDBRANCH   2  18
TORSDOF 6
ENDMDL
MODEL 4
REMARK VINA RESULT:      -8.8     12.193     16.183
REMARK  Name = 3407
REMARK  6 active torsions:
REMARK  status: ('A' for Active; 'I' for Inactive)
REMARK    1  A    between atoms: C_2  and  C_18
REMARK    2  A    between atoms: C_3  and  N_9
REMARK    3  A    between atoms: C_10  and  C_12
REMARK    4  A    between atoms: C_18  and  N_19
REMARK    5  A    between atoms: N_19  and  C_22
REMARK    6  A    between atoms: C_22  and  C_30
REMARK                            x       y       z     vdW  Elec       q    Type
REMARK                         _______ _______ _______ _____ _____    ______ ____
ROOT
ATOM      1 CL   UNL     1      37.128 -21.278 -19.701  0.00  0.00    -0.083 Cl
ATOM      2  C   UNL     1      34.804 -22.079 -18.516  0.00  0.00    -0.019 C 
ATOM      3  C   UNL     1      33.420 -22.095 -18.386  0.00  0.00    +0.045 C 
ATOM      4  C   UNL     1      35.412 -21.321 -19.512  0.00  0.00    +0.053 C 
ATOM      5  C   UNL     1      32.634 -21.345 -19.260  0.00  0.00    +0.014 C 
ATOM      6  C   UNL     1      34.627 -20.570 -20.386  0.00  0.00    +0.011 C 
ATOM      7  C   UNL     1      33.237 -20.581 -20.260  0.00  0.00    +0.002 C 
ENDROOT
BRANCH   3   9
ATOM      8  O   UNL     1      30.593 -22.023 -17.390  0.00  0.00    -0.270 OA
ATOM      9  N   UNL     1      32.793 -22.851 -17.392  0.00  0.00    -0.281 N 
ATOM     10  C   UNL     1      31.462 -22.777 -16.964  0.00  0.00    +0.249 C 
ATOM     11  H   UNL     1      33.356 -23.519 -16.937  0.00  0.00    +0.155 HD
BRANCH  10  12
ATOM     12  C   UNL     1      31.097 -23.701 -15.859  0.00  0.00    +0.054 C 
ATOM     13  C   UNL     1      29.811 -24.198 -15.805  0.00  0.00    +0.005 C 
ATOM     14  C   UNL     1      32.054 -24.031 -14.924  0.00  0.00    +0.005 C 
ATOM     15  C   UNL     1      29.468 -25.065 -14.767  0.00  0.00    +0.000 C 
ATOM     16  C   UNL     1      31.711 -24.899 -13.887  0.00  0.00    +0.000 C 
ATOM     17  C   UNL     1      30.418 -25.416 -13.808  0.00  0.00    +0.000 C 
ENDBRANCH  10  12
ENDBRANCH   3   9
BRANCH   2  18
ATOM     18  C   UNL     1      35.641 -22.894 -17.567  0.00  0.00    -0.047 C 
BRANCH  18  19
ATOM     19  N   UNL     1      36.023 -22.125 -16.376  0.00  0.00    +0.394 N 
ATOM     20  C   UNL     1      37.476 -22.195 -16.181  0.00  0.00    -0.100 C 
ATOM     21  H   UNL     1      35.759 -21.150 -16.518  0.00  0.00    -0.079 HD
BRANCH  19  22
ATOM     22  C   UNL     1      35.319 -22.598 -15.204  0.00  0.00    +0.010 C 
BRANCH  22  30
ATOM     23  O   UNL     1      38.059 -24.654 -11.466  0.00  0.00    -0.350 OA
ATOM     24  O   UNL     1      35.777 -24.837 -15.832  0.00  0.00    -0.277 OA
ATOM     25  N   UNL     1      36.349 -24.228 -13.665  0.00  0.00    -0.276 N 
ATOM     26  C   UNL     1      36.747 -25.581 -13.279  0.00  0.00    +0.125 C 
ATOM     27  C   UNL     1      36.429 -23.244 -12.581  0.00  0.00    +0.125 C 
ATOM     28  C   UNL     1      38.097 -25.556 -12.575  0.00  0.00    +0.164 C 
ATOM     29  C   UNL     1      37.791 -23.318 -11.901  0.00  0.00    +0.164 C 
ATOM     30  C   UNL     1      35.831 -23.990 -14.937  0.00  0.00    +0.205 C 
ENDBRANCH  22  30
ENDBRANCH  19  22
ENDBRANCH  18  19
ENDBRANCH   2  18
TORSDOF 6
ENDMDL
MODEL 5
REMARK VINA RESULT:      -8.7      2.833      9.568
REMARK  Name = 3407
REMARK  6 active torsions:
REMARK  status: ('A' for Active; 'I' for Inactive)
REMARK    1  A    between atoms: C_2  and  C_18
REMARK    2  A    between atoms: C_3  and  N_9
REMARK    3  A    between atoms: C_10  and  C_12
REMARK    4  A    between atoms: C_18  and  N_19
REMARK    5  A    between atoms: N_19  and  C_22
REMARK    6  A    between atoms: C_22  and  C_30
REMARK                            x       y       z     vdW  Elec       q    Type
REMARK                         _______ _______ _______ _____ _____    ______ ____
ROOT
ATOM      1 CL   UNL     1      33.477 -11.623 -24.453  0.00  0.00    -0.083 Cl
ATOM      2  C   UNL     1      33.871 -14.268 -23.910  0.00  0.00    -0.019 C 
ATOM      3  C   UNL     1      33.881 -15.616 -24.250  0.00  0.00    +0.045 C 
ATOM      4  C   UNL     1      33.502 -13.305 -24.843  0.00  0.00    +0.053 C 
ATOM      5  C   UNL     1      33.517 -16.006 -25.539  0.00  0.00    +0.014 C 
ATOM      6  C   UNL     1      33.137 -13.695 -26.131  0.00  0.00    +0.011 C 
ATOM      7  C   UNL     1      33.144 -15.047 -26.480  0.00  0.00    +0.002 C 
ENDROOT
BRANCH   3   9
ATOM      8  O   UNL     1      35.042 -18.347 -24.679  0.00  0.00    -0.270 OA
ATOM      9  N   UNL     1      34.250 -16.596 -23.325  0.00  0.00    -0.281 N 
ATOM     10  C   UNL     1      34.791 -17.862 -23.581  0.00  0.00    +0.249 C 
ATOM     11  H   UNL     1      34.113 -16.369 -22.377  0.00  0.00    +0.155 HD
BRANCH  10  12
ATOM     12  C   UNL     1      35.054 -18.695 -22.379  0.00  0.00    +0.054 C 
ATOM     13  C   UNL     1      34.023 -19.442 -21.847  0.00  0.00    +0.005 C 
ATOM     14  C   UNL     1      36.320 -18.694 -21.832  0.00  0.00    +0.005 C 
ATOM     15  C   UNL     1      34.270 -20.223 -20.719  0.00  0.00    +0.000 C 
ATOM     16  C   UNL     1      36.567 -19.475 -20.704  0.00  0.00    +0.000 C 
ATOM     17  C   UNL     1      35.542 -20.241 -20.147  0.00  0.00    +0.000 C 
ENDBRANCH  10  12
ENDBRANCH   3   9
BRANCH   2  18
ATOM     18  C   UNL     1      34.266 -13.859 -22.515  0.00  0.00    -0.047 C 
BRANCH  18  19
ATOM     19  N   UNL     1      33.124 -13.884 -21.594  0.00  0.00    +0.394 N 
ATOM     20  C   UNL     1      32.536 -15.229 -21.566  0.00  0.00    -0.100 C 
ATOM     21  H   UNL     1      33.454 -13.653 -20.657  0.00  0.00    -0.079 HD
BRANCH  19  22
ATOM     22  C   UNL     1      32.136 -12.894 -21.962  0.00  0.00    +0.010 C 
BRANCH  22  30
ATOM     23  O   UNL     1      31.898  -7.864 -21.367  0.00  0.00    -0.350 OA
ATOM     24  O   UNL     1      32.078 -12.474 -19.630  0.00  0.00    -0.277 OA
ATOM     25  N   UNL     1      31.703 -10.654 -21.022  0.00  0.00    -0.276 N 
ATOM     26  C   UNL     1      31.399  -9.741 -19.921  0.00  0.00    +0.125 C 
ATOM     27  C   UNL     1      31.569 -10.056 -22.354  0.00  0.00    +0.125 C 
ATOM     28  C   UNL     1      32.167  -8.437 -20.084  0.00  0.00    +0.164 C 
ATOM     29  C   UNL     1      32.326  -8.735 -22.418  0.00  0.00    +0.164 C 
ATOM     30  C   UNL     1      31.970 -11.997 -20.762  0.00  0.00    +0.205 C 
ENDBRANCH  22  30
ENDBRANCH  19  22
ENDBRANCH  18  19
ENDBRANCH   2  18
TORSDOF 6
ENDMDL
MODEL 6
REMARK VINA RESULT:      -8.5      2.076      7.881
REMARK  Name = 3407
REMARK  6 active torsions:
REMARK  status: ('A' for Active; 'I' for Inactive)
REMARK    1  A    between atoms: C_2  and  C_18
REMARK    2  A    between atoms: C_3  and  N_9
REMARK    3  A    between atoms: C_10  and  C_12
REMARK    4  A    between atoms: C_18  and  N_19
REMARK    5  A    between atoms: N_19  and  C_22
REMARK    6  A    between atoms: C_22  and  C_30
REMARK                            x       y       z     vdW  Elec       q    Type
REMARK                         _______ _______ _______ _____ _____    ______ ____
ROOT
ATOM      1 CL   UNL     1      32.397  -7.327 -19.918  0.00  0.00    -0.083 Cl
ATOM      2  C   UNL     1      32.335  -9.553 -21.495  0.00  0.00    -0.019 C 
ATOM      3  C   UNL     1      32.048 -10.891 -21.740  0.00  0.00    +0.045 C 
ATOM      4  C   UNL     1      32.052  -8.985 -20.257  0.00  0.00    +0.053 C 
ATOM      5  C   UNL     1      31.471 -11.670 -20.738  0.00  0.00    +0.014 C 
ATOM      6  C   UNL     1      31.475  -9.763 -19.254  0.00  0.00    +0.011 C 
ATOM      7  C   UNL     1      31.185 -11.107 -19.494  0.00  0.00    +0.002 C 
ENDROOT
BRANCH   3   9
ATOM      8  O   UNL     1      33.609 -13.363 -22.406  0.00  0.00    -0.270 OA
ATOM      9  N   UNL     1      32.326 -11.478 -22.978  0.00  0.00    -0.281 N 
ATOM     10  C   UNL     1      33.064 -12.640 -23.234  0.00  0.00    +0.249 C 
ATOM     11  H   UNL     1      31.957 -11.019 -23.767  0.00  0.00    +0.155 HD
BRANCH  10  12
ATOM     12  C   UNL     1      33.209 -12.997 -24.669  0.00  0.00    +0.054 C 
ATOM     13  C   UNL     1      32.889 -14.278 -25.071  0.00  0.00    +0.005 C 
ATOM     14  C   UNL     1      33.659 -12.039 -25.552  0.00  0.00    +0.005 C 
ATOM     15  C   UNL     1      33.025 -14.613 -26.418  0.00  0.00    +0.000 C 
ATOM     16  C   UNL     1      33.795 -12.375 -26.898  0.00  0.00    +0.000 C 
ATOM     17  C   UNL     1      33.478 -13.663 -27.332  0.00  0.00    +0.000 C 
ENDBRANCH  10  12
ENDBRANCH   3   9
BRANCH   2  18
ATOM     18  C   UNL     1      32.958  -8.723 -22.585  0.00  0.00    -0.047 C 
BRANCH  18  19
ATOM     19  N   UNL     1      32.087  -7.614 -22.994  0.00  0.00    +0.394 N 
ATOM     20  C   UNL     1      31.031  -8.112 -23.884  0.00  0.00    -0.100 C 
ATOM     21  H   UNL     1      31.652  -7.216 -22.162  0.00  0.00    -0.079 HD
BRANCH  19  22
ATOM     22  C   UNL     1      32.849  -6.562 -23.630  0.00  0.00    +0.010 C 
BRANCH  22  30
ATOM     23  O   UNL     1      32.145  -2.636 -26.762  0.00  0.00    -0.350 OA
ATOM     24  O   UNL     1      31.447  -5.019 -22.503  0.00  0.00    -0.277 OA
ATOM     25  N   UNL     1      31.880  -4.584 -24.743  0.00  0.00    -0.276 N 
ATOM     26  C   UNL     1      30.968  -3.443 -24.805  0.00  0.00    +0.125 C 
ATOM     27  C   UNL     1      32.517  -4.917 -26.021  0.00  0.00    +0.125 C 
ATOM     28  C   UNL     1      31.647  -2.257 -25.476  0.00  0.00    +0.164 C 
ATOM     29  C   UNL     1      33.128  -3.669 -26.646  0.00  0.00    +0.164 C 
ATOM     30  C   UNL     1      31.993  -5.323 -23.566  0.00  0.00    +0.205 C 
ENDBRANCH  22  30
ENDBRANCH  19  22
ENDBRANCH  18  19
ENDBRANCH   2  18
TORSDOF 6
ENDMDL
MODEL 7
REMARK VINA RESULT:      -8.5     11.097     16.158
REMARK  Name = 3407
REMARK  6 active torsions:
REMARK  status: ('A' for Active; 'I' for Inactive)
REMARK    1  A    between atoms: C_2  and  C_18
REMARK    2  A    between atoms: C_3  and  N_9
REMARK    3  A    between atoms: C_10  and  C_12
REMARK    4  A    between atoms: C_18  and  N_19
REMARK    5  A    between atoms: N_19  and  C_22
REMARK    6  A    between atoms: C_22  and  C_30
REMARK                            x       y       z     vdW  Elec       q    Type
REMARK                         _______ _______ _______ _____ _____    ______ ____
ROOT
ATOM      1 CL   UNL     1      30.458 -22.227 -16.821  0.00  0.00    -0.083 Cl
ATOM      2  C   UNL     1      32.380 -23.559 -15.412  0.00  0.00    -0.019 C 
ATOM      3  C   UNL     1      32.806 -24.473 -14.456  0.00  0.00    +0.045 C 
ATOM      4  C   UNL     1      31.023 -23.356 -15.641  0.00  0.00    +0.053 C 
ATOM      5  C   UNL     1      31.866 -25.193 -13.719  0.00  0.00    +0.014 C 
ATOM      6  C   UNL     1      30.082 -24.075 -14.905  0.00  0.00    +0.011 C 
ATOM      7  C   UNL     1      30.503 -24.994 -13.942  0.00  0.00    +0.002 C 
ENDROOT
BRANCH   3   9
ATOM      8  O   UNL     1      34.480 -23.791 -12.064  0.00  0.00    -0.270 OA
ATOM      9  N   UNL     1      34.165 -24.689 -14.213  0.00  0.00    -0.281 N 
ATOM     10  C   UNL     1      34.901 -24.349 -13.072  0.00  0.00    +0.249 C 
ATOM     11  H   UNL     1      34.667 -25.136 -14.933  0.00  0.00    +0.155 HD
BRANCH  10  12
ATOM     12  C   UNL     1      36.347 -24.688 -13.124  0.00  0.00    +0.054 C 
ATOM     13  C   UNL     1      36.802 -25.508 -14.136  0.00  0.00    +0.005 C 
ATOM     14  C   UNL     1      37.187 -24.173 -12.160  0.00  0.00    +0.005 C 
ATOM     15  C   UNL     1      38.160 -25.826 -14.185  0.00  0.00    +0.000 C 
ATOM     16  C   UNL     1      38.544 -24.491 -12.209  0.00  0.00    +0.000 C 
ATOM     17  C   UNL     1      39.031 -25.318 -13.222  0.00  0.00    +0.000 C 
ENDBRANCH  10  12
ENDBRANCH   3   9
BRANCH   2  18
ATOM     18  C   UNL     1      33.405 -22.788 -16.201  0.00  0.00    -0.047 C 
BRANCH  18  19
ATOM     19  N   UNL     1      33.341 -23.101 -17.634  0.00  0.00    +0.394 N 
ATOM     20  C   UNL     1      33.387 -24.555 -17.829  0.00  0.00    -0.100 C 
ATOM     21  H   UNL     1      32.459 -22.749 -18.007  0.00  0.00    -0.079 HD
BRANCH  19  22
ATOM     22  C   UNL     1      34.409 -22.446 -18.357  0.00  0.00    +0.010 C 
BRANCH  22  30
ATOM     23  O   UNL     1      36.187 -18.816 -21.419  0.00  0.00    -0.350 OA
ATOM     24  O   UNL     1      32.534 -21.245 -19.170  0.00  0.00    -0.277 OA
ATOM     25  N   UNL     1      34.585 -20.750 -20.140  0.00  0.00    -0.276 N 
ATOM     26  C   UNL     1      34.012 -19.844 -21.136  0.00  0.00    +0.125 C 
ATOM     27  C   UNL     1      36.032 -20.945 -20.266  0.00  0.00    +0.125 C 
ATOM     28  C   UNL     1      34.802 -18.543 -21.186  0.00  0.00    +0.164 C 
ATOM     29  C   UNL     1      36.740 -19.600 -20.358  0.00  0.00    +0.164 C 
ATOM     30  C   UNL     1      33.750 -21.430 -19.255  0.00  0.00    +0.205 C 
ENDBRANCH  22  30
ENDBRANCH  19  22
ENDBRANCH  18  19
ENDBRANCH   2  18
TORSDOF 6
ENDMDL
MODEL 8
REMARK VINA RESULT:      -8.5      1.349      1.858
REMARK  Name = 3407
REMARK  6 active torsions:
REMARK  status: ('A' for Active; 'I' for Inactive)
REMARK    1  A    between atoms: C_2  and  C_18
REMARK    2  A    between atoms: C_3  and  N_9
REMARK    3  A    between atoms: C_10  and  C_12
REMARK    4  A    between atoms: C_18  and  N_19
REMARK    5  A    between atoms: N_19  and  C_22
REMARK    6  A    between atoms: C_22  and  C_30
REMARK                            x       y       z     vdW  Elec       q    Type
REMARK                         _______ _______ _______ _____ _____    ______ ____
ROOT
ATOM      1 CL   UNL     1      31.740 -10.923 -20.972  0.00  0.00    -0.083 Cl
ATOM      2  C   UNL     1      32.161  -8.503 -22.162  0.00  0.00    -0.019 C 
ATOM      3  C   UNL     1      32.344  -7.126 -22.140  0.00  0.00    +0.045 C 
ATOM      4  C   UNL     1      31.972  -9.211 -20.980  0.00  0.00    +0.053 C 
ATOM      5  C   UNL     1      32.338  -6.446 -20.922  0.00  0.00    +0.014 C 
ATOM      6  C   UNL     1      31.965  -8.533 -19.761  0.00  0.00    +0.011 C 
ATOM      7  C   UNL     1      32.148  -7.149 -19.732  0.00  0.00    +0.002 C 
ENDROOT
BRANCH   3   9
ATOM      8  O   UNL     1      30.648  -4.999 -23.403  0.00  0.00    -0.270 OA
ATOM      9  N   UNL     1      32.535  -6.399 -23.318  0.00  0.00    -0.281 N 
ATOM     10  C   UNL     1      31.707  -5.411 -23.865  0.00  0.00    +0.249 C 
ATOM     11  H   UNL     1      33.353  -6.607 -23.826  0.00  0.00    +0.155 HD
BRANCH  10  12
ATOM     12  C   UNL     1      32.170  -4.837 -25.155  0.00  0.00    +0.054 C 
ATOM     13  C   UNL     1      31.547  -3.705 -25.641  0.00  0.00    +0.005 C 
ATOM     14  C   UNL     1      33.206  -5.453 -25.825  0.00  0.00    +0.005 C 
ATOM     15  C   UNL     1      31.982  -3.166 -26.852  0.00  0.00    +0.000 C 
ATOM     16  C   UNL     1      33.640  -4.913 -27.036  0.00  0.00    +0.000 C 
ATOM     17  C   UNL     1      33.028  -3.770 -27.549  0.00  0.00    +0.000 C 
ENDBRANCH  10  12
ENDBRANCH   3   9
BRANCH   2  18
ATOM     18  C   UNL     1      32.169  -9.225 -23.484  0.00  0.00    -0.047 C 
BRANCH  18  19
ATOM     19  N   UNL     1      33.358 -10.072 -23.637  0.00  0.00    +0.394 N 
ATOM     20  C   UNL     1      34.522  -9.241 -23.970  0.00  0.00    -0.100 C 
ATOM     21  H   UNL     1      33.538 -10.547 -22.753  0.00  0.00    -0.079 HD
BRANCH  19  22
ATOM     22  C   UNL     1      33.144 -11.091 -24.641  0.00  0.00    +0.010 C 
BRANCH  22  30
ATOM     23  O   UNL     1      33.457 -15.848 -26.370  0.00  0.00    -0.350 OA
ATOM     24  O   UNL     1      33.829 -12.446 -22.821  0.00  0.00    -0.277 OA
ATOM     25  N   UNL     1      33.782 -13.459 -24.911  0.00  0.00    -0.276 N 
ATOM     26  C   UNL     1      34.361 -14.714 -24.430  0.00  0.00    +0.125 C 
ATOM     27  C   UNL     1      33.539 -13.422 -26.356  0.00  0.00    +0.125 C 
ATOM     28  C   UNL     1      33.557 -15.900 -24.945  0.00  0.00    +0.164 C 
ATOM     29  C   UNL     1      32.773 -14.665 -26.793  0.00  0.00    +0.164 C 
ATOM     30  C   UNL     1      33.618 -12.387 -24.035  0.00  0.00    +0.205 C 
ENDBRANCH  22  30
ENDBRANCH  19  22
ENDBRANCH  18  19
ENDBRANCH   2  18
TORSDOF 6
ENDMDL
MODEL 9
REMARK VINA RESULT:      -8.3      1.339      1.855
REMARK  Name = 3407
REMARK  6 active torsions:
REMARK  status: ('A' for Active; 'I' for Inactive)
REMARK    1  A    between atoms: C_2  and  C_18
REMARK    2  A    between atoms: C_3  and  N_9
REMARK    3  A    between atoms: C_10  and  C_12
REMARK    4  A    between atoms: C_18  and  N_19
REMARK    5  A    between atoms: N_19  and  C_22
REMARK    6  A    between atoms: C_22  and  C_30
REMARK                            x       y       z     vdW  Elec       q    Type
REMARK                         _______ _______ _______ _____ _____    ______ ____
ROOT
ATOM      1 CL   UNL     1      31.051 -11.625 -20.684  0.00  0.00    -0.083 Cl
ATOM      2  C   UNL     1      32.042  -9.324 -21.769  0.00  0.00    -0.019 C 
ATOM      3  C   UNL     1      32.518  -8.021 -21.690  0.00  0.00    +0.045 C 
ATOM      4  C   UNL     1      31.649 -10.005 -20.622  0.00  0.00    +0.053 C 
ATOM      5  C   UNL     1      32.602  -7.389 -20.449  0.00  0.00    +0.014 C 
ATOM      6  C   UNL     1      31.732  -9.374 -19.381  0.00  0.00    +0.011 C 
ATOM      7  C   UNL     1      32.208  -8.065 -19.294  0.00  0.00    +0.002 C 
ENDROOT
BRANCH   3   9
ATOM      8  O   UNL     1      30.969  -6.173 -23.473  0.00  0.00    -0.270 OA
ATOM      9  N   UNL     1      32.917  -7.323 -22.833  0.00  0.00    -0.281 N 
ATOM     10  C   UNL     1      32.149  -6.468 -23.632  0.00  0.00    +0.249 C 
ATOM     11  H   UNL     1      33.854  -7.447 -23.110  0.00  0.00    +0.155 HD
BRANCH  10  12
ATOM     12  C   UNL     1      32.855  -5.891 -24.806  0.00  0.00    +0.054 C 
ATOM     13  C   UNL     1      34.120  -6.350 -25.113  0.00  0.00    +0.005 C 
ATOM     14  C   UNL     1      32.224  -4.917 -25.551  0.00  0.00    +0.005 C 
ATOM     15  C   UNL     1      34.783  -5.808 -26.215  0.00  0.00    +0.000 C 
ATOM     16  C   UNL     1      32.887  -4.377 -26.652  0.00  0.00    +0.000 C 
ATOM     17  C   UNL     1      34.166  -4.822 -26.985  0.00  0.00    +0.000 C 
ENDBRANCH  10  12
ENDBRANCH   3   9
BRANCH   2  18
ATOM     18  C   UNL     1      31.956  -9.996 -23.115  0.00  0.00    -0.047 C 
BRANCH  18  19
ATOM     19  N   UNL     1      32.940 -11.076 -23.251  0.00  0.00    +0.394 N 
ATOM     20  C   UNL     1      34.045 -10.637 -24.113  0.00  0.00    -0.100 C 
ATOM     21  H   UNL     1      33.314 -11.297 -22.328  0.00  0.00    -0.079 HD
BRANCH  19  22
ATOM     22  C   UNL     1      32.325 -12.278 -23.769  0.00  0.00    +0.010 C 
BRANCH  22  30
ATOM     23  O   UNL     1      33.825 -16.054 -20.734  0.00  0.00    -0.350 OA
ATOM     24  O   UNL     1      34.295 -13.189 -24.719  0.00  0.00    -0.277 OA
ATOM     25  N   UNL     1      33.370 -14.351 -22.933  0.00  0.00    -0.276 N 
ATOM     26  C   UNL     1      34.317 -15.462 -23.031  0.00  0.00    +0.125 C 
ATOM     27  C   UNL     1      32.346 -14.521 -21.898  0.00  0.00    +0.125 C 
ATOM     28  C   UNL     1      34.885 -15.796 -21.659  0.00  0.00    +0.164 C 
ATOM     29  C   UNL     1      32.995 -14.900 -20.572  0.00  0.00    +0.164 C 
ATOM     30  C   UNL     1      33.421 -13.309 -23.858  0.00  0.00    +0.205 C 
ENDBRANCH  22  30
ENDBRANCH  19  22
ENDBRANCH  18  19
ENDBRANCH   2  18
TORSDOF 6
ENDMDL
