MODEL 1
REMARK VINA RESULT:      -8.5      0.000      0.000
REMARK  Name = 11338033
REMARK  4 active torsions:
REMARK  status: ('A' for Active; 'I' for Inactive)
REMARK    1  A    between atoms: C_3  and  C_9
REMARK    2  A    between atoms: C_4  and  N_20
REMARK    3  A    between atoms: N_8  and  C_12
REMARK    4  A    between atoms: C_21  and  C_25
REMARK                            x       y       z     vdW  Elec       q    Type
REMARK                         _______ _______ _______ _____ _____    ______ ____
ROOT
ATOM      1  N   UNL     1      32.197 -24.512 -14.703  0.00  0.00    -0.230 N 
ATOM      2  N   UNL     1      31.050 -23.967 -15.142  0.00  0.00    -0.178 NA
ATOM      3  C   UNL     1      33.272 -24.018 -15.336  0.00  0.00    +0.133 C 
ATOM      4  C   UNL     1      32.860 -23.107 -16.237  0.00  0.00    +0.091 C 
ATOM      5  C   UNL     1      31.461 -23.109 -16.079  0.00  0.00    +0.134 C 
ATOM      6  H   UNL     1      32.244 -25.197 -13.997  0.00  0.00    +0.175 HD
ENDROOT
BRANCH   3   9
ATOM      7  O   UNL     1      35.431 -24.803 -15.915  0.00  0.00    -0.269 OA
ATOM      8  N   UNL     1      34.985 -24.480 -13.684  0.00  0.00    -0.302 N 
ATOM      9  C   UNL     1      34.642 -24.455 -15.034  0.00  0.00    +0.262 C 
ATOM     10  H   UNL     1      34.321 -24.193 -13.018  0.00  0.00    +0.150 HD
BRANCH   8  12
ATOM     11  N   UNL     1      37.199 -23.245 -10.996  0.00  0.00    +0.384 N 
ATOM     12  C   UNL     1      36.286 -24.917 -13.230  0.00  0.00    +0.068 C 
ATOM     13  C   UNL     1      36.230 -25.383 -11.772  0.00  0.00    -0.004 C 
ATOM     14  C   UNL     1      37.335 -23.815 -13.401  0.00  0.00    -0.004 C 
ATOM     15  C   UNL     1      36.119 -24.211 -10.796  0.00  0.00    -0.080 C 
ATOM     16  C   UNL     1      37.191 -22.707 -12.356  0.00  0.00    -0.080 C 
ATOM     17  H   UNL     1      38.092 -23.708 -10.828  0.00  0.00    -0.085 HD
ATOM     18  H   UNL     1      37.062 -22.472 -10.344  0.00  0.00    -0.085 HD
ENDBRANCH   8  12
ENDBRANCH   3   9
BRANCH   4  20
ATOM     19  O   UNL     1      33.876 -23.778 -18.960  0.00  0.00    -0.270 OA
ATOM     20  N   UNL     1      33.621 -22.356 -17.101  0.00  0.00    -0.278 N 
ATOM     21  C   UNL     1      34.077 -22.716 -18.380  0.00  0.00    +0.251 C 
ATOM     22  H   UNL     1      33.876 -21.459 -16.788  0.00  0.00    +0.155 HD
BRANCH  21  25
ATOM     23 CL   UNL     1      36.988 -22.418 -17.546  0.00  0.00    -0.082 Cl
ATOM     24 CL   UNL     1      32.582 -21.137 -20.508  0.00  0.00    -0.082 Cl
ATOM     25  C   UNL     1      34.861 -21.676 -19.096  0.00  0.00    +0.075 C 
ATOM     26  C   UNL     1      36.191 -21.489 -18.765  0.00  0.00    +0.063 C 
ATOM     27  C   UNL     1      34.241 -20.923 -20.077  0.00  0.00    +0.063 C 
ATOM     28  C   UNL     1      36.927 -20.514 -19.439  0.00  0.00    +0.012 C 
ATOM     29  C   UNL     1      34.978 -19.948 -20.751  0.00  0.00    +0.012 C 
ATOM     30  C   UNL     1      36.320 -19.745 -20.432  0.00  0.00    +0.002 C 
ENDBRANCH  21  25
ENDBRANCH   4  20
TORSDOF 4
ENDMDL
MODEL 2
REMARK VINA RESULT:      -8.5      0.051      1.823
REMARK  Name = 11338033
REMARK  4 active torsions:
REMARK  status: ('A' for Active; 'I' for Inactive)
REMARK    1  A    between atoms: C_3  and  C_9
REMARK    2  A    between atoms: C_4  and  N_20
REMARK    3  A    between atoms: N_8  and  C_12
REMARK    4  A    between atoms: C_21  and  C_25
REMARK                            x       y       z     vdW  Elec       q    Type
REMARK                         _______ _______ _______ _____ _____    ______ ____
ROOT
ATOM      1  N   UNL     1      32.231 -24.548 -14.732  0.00  0.00    -0.230 N 
ATOM      2  N   UNL     1      31.084 -24.000 -15.167  0.00  0.00    -0.178 NA
ATOM      3  C   UNL     1      33.306 -24.048 -15.360  0.00  0.00    +0.133 C 
ATOM      4  C   UNL     1      32.894 -23.127 -16.252  0.00  0.00    +0.091 C 
ATOM      5  C   UNL     1      31.495 -23.132 -16.095  0.00  0.00    +0.134 C 
ATOM      6  H   UNL     1      32.278 -25.240 -14.033  0.00  0.00    +0.175 HD
ENDROOT
BRANCH   3   9
ATOM      7  O   UNL     1      35.453 -24.859 -15.943  0.00  0.00    -0.269 OA
ATOM      8  N   UNL     1      35.033 -24.484 -13.716  0.00  0.00    -0.302 N 
ATOM      9  C   UNL     1      34.676 -24.486 -15.062  0.00  0.00    +0.262 C 
ATOM     10  H   UNL     1      34.377 -24.177 -13.049  0.00  0.00    +0.150 HD
BRANCH   8  12
ATOM     11  N   UNL     1      37.227 -23.282 -10.996  0.00  0.00    +0.384 N 
ATOM     12  C   UNL     1      36.335 -24.918 -13.265  0.00  0.00    +0.068 C 
ATOM     13  C   UNL     1      36.278 -25.412 -11.817  0.00  0.00    -0.004 C 
ATOM     14  C   UNL     1      37.376 -23.805 -13.411  0.00  0.00    -0.004 C 
ATOM     15  C   UNL     1      36.154 -24.260 -10.819  0.00  0.00    -0.080 C 
ATOM     16  C   UNL     1      37.219 -22.718 -12.346  0.00  0.00    -0.080 C 
ATOM     17  H   UNL     1      38.123 -23.740 -10.834  0.00  0.00    -0.085 HD
ATOM     18  H   UNL     1      37.081 -22.523 -10.331  0.00  0.00    -0.085 HD
ENDBRANCH   8  12
ENDBRANCH   3   9
BRANCH   4  20
ATOM     19  O   UNL     1      33.827 -23.731 -19.020  0.00  0.00    -0.270 OA
ATOM     20  N   UNL     1      33.654 -22.368 -17.109  0.00  0.00    -0.278 N 
ATOM     21  C   UNL     1      34.070 -22.695 -18.410  0.00  0.00    +0.251 C 
ATOM     22  H   UNL     1      33.940 -21.489 -16.771  0.00  0.00    +0.155 HD
BRANCH  21  25
ATOM     23 CL   UNL     1      32.597 -21.078 -20.525  0.00  0.00    -0.082 Cl
ATOM     24 CL   UNL     1      36.978 -22.429 -17.557  0.00  0.00    -0.082 Cl
ATOM     25  C   UNL     1      34.865 -21.652 -19.109  0.00  0.00    +0.075 C 
ATOM     26  C   UNL     1      34.256 -20.881 -20.083  0.00  0.00    +0.063 C 
ATOM     27  C   UNL     1      36.194 -21.478 -18.769  0.00  0.00    +0.063 C 
ATOM     28  C   UNL     1      35.002 -19.901 -20.738  0.00  0.00    +0.012 C 
ATOM     29  C   UNL     1      36.940 -20.498 -19.424  0.00  0.00    +0.012 C 
ATOM     30  C   UNL     1      36.343 -19.710 -20.407  0.00  0.00    +0.002 C 
ENDBRANCH  21  25
ENDBRANCH   4  20
TORSDOF 4
ENDMDL
MODEL 3
REMARK VINA RESULT:      -8.5     10.642     14.276
REMARK  Name = 11338033
REMARK  4 active torsions:
REMARK  status: ('A' for Active; 'I' for Inactive)
REMARK    1  A    between atoms: C_3  and  C_9
REMARK    2  A    between atoms: C_4  and  N_20
REMARK    3  A    between atoms: N_8  and  C_12
REMARK    4  A    between atoms: C_21  and  C_25
REMARK                            x       y       z     vdW  Elec       q    Type
REMARK                         _______ _______ _______ _____ _____    ______ ____
ROOT
ATOM      1  N   UNL     1      35.050 -11.434 -26.495  0.00  0.00    -0.230 N 
ATOM      2  N   UNL     1      35.607 -10.212 -26.456  0.00  0.00    -0.178 NA
ATOM      3  C   UNL     1      34.312 -11.694 -25.405  0.00  0.00    +0.133 C 
ATOM      4  C   UNL     1      34.358 -10.625 -24.589  0.00  0.00    +0.091 C 
ATOM      5  C   UNL     1      35.180  -9.722 -25.289  0.00  0.00    +0.134 C 
ATOM      6  H   UNL     1      35.169 -12.068 -27.239  0.00  0.00    +0.175 HD
ENDROOT
BRANCH   3   9
ATOM      7  O   UNL     1      32.756 -13.375 -26.009  0.00  0.00    -0.269 OA
ATOM      8  N   UNL     1      33.920 -13.667 -24.050  0.00  0.00    -0.302 N 
ATOM      9  C   UNL     1      33.601 -12.965 -25.211  0.00  0.00    +0.262 C 
ATOM     10  H   UNL     1      34.602 -13.299 -23.443  0.00  0.00    +0.150 HD
BRANCH   8  12
ATOM     11  N   UNL     1      35.079 -16.564 -22.071  0.00  0.00    +0.384 N 
ATOM     12  C   UNL     1      33.282 -14.916 -23.707  0.00  0.00    +0.068 C 
ATOM     13  C   UNL     1      33.125 -15.054 -22.190  0.00  0.00    -0.004 C 
ATOM     14  C   UNL     1      34.051 -16.111 -24.277  0.00  0.00    -0.004 C 
ATOM     15  C   UNL     1      34.452 -15.373 -21.500  0.00  0.00    -0.080 C 
ATOM     16  C   UNL     1      35.338 -16.399 -23.502  0.00  0.00    -0.080 C 
ATOM     17  H   UNL     1      34.458 -17.362 -21.938  0.00  0.00    -0.085 HD
ATOM     18  H   UNL     1      35.970 -16.715 -21.600  0.00  0.00    -0.085 HD
ENDBRANCH   8  12
ENDBRANCH   3   9
BRANCH   4  20
ATOM     19  O   UNL     1      31.892  -9.103 -23.880  0.00  0.00    -0.270 OA
ATOM     20  N   UNL     1      33.750 -10.455 -23.368  0.00  0.00    -0.278 N 
ATOM     21  C   UNL     1      32.584  -9.726 -23.082  0.00  0.00    +0.251 C 
ATOM     22  H   UNL     1      34.182 -10.898 -22.603  0.00  0.00    +0.155 HD
BRANCH  21  25
ATOM     23 CL   UNL     1      31.285 -12.304 -22.116  0.00  0.00    -0.082 Cl
ATOM     24 CL   UNL     1      33.095  -7.190 -21.481  0.00  0.00    -0.082 Cl
ATOM     25  C   UNL     1      32.147  -9.749 -21.661  0.00  0.00    +0.075 C 
ATOM     26  C   UNL     1      31.550 -10.890 -21.158  0.00  0.00    +0.063 C 
ATOM     27  C   UNL     1      32.351  -8.628 -20.877  0.00  0.00    +0.063 C 
ATOM     28  C   UNL     1      31.142 -10.912 -19.824  0.00  0.00    +0.012 C 
ATOM     29  C   UNL     1      31.944  -8.649 -19.543  0.00  0.00    +0.012 C 
ATOM     30  C   UNL     1      31.340  -9.792 -19.017  0.00  0.00    +0.002 C 
ENDBRANCH  21  25
ENDBRANCH   4  20
TORSDOF 4
ENDMDL
MODEL 4
REMARK VINA RESULT:      -8.5      1.367      1.953
REMARK  Name = 11338033
REMARK  4 active torsions:
REMARK  status: ('A' for Active; 'I' for Inactive)
REMARK    1  A    between atoms: C_3  and  C_9
REMARK    2  A    between atoms: C_4  and  N_20
REMARK    3  A    between atoms: N_8  and  C_12
REMARK    4  A    between atoms: C_21  and  C_25
REMARK                            x       y       z     vdW  Elec       q    Type
REMARK                         _______ _______ _______ _____ _____    ______ ____
ROOT
ATOM      1  N   UNL     1      32.778 -24.136 -14.961  0.00  0.00    -0.230 N 
ATOM      2  N   UNL     1      31.644 -24.160 -15.682  0.00  0.00    -0.178 NA
ATOM      3  C   UNL     1      33.731 -23.385 -15.533  0.00  0.00    +0.133 C 
ATOM      4  C   UNL     1      33.246 -22.874 -16.680  0.00  0.00    +0.091 C 
ATOM      5  C   UNL     1      31.936 -23.387 -16.731  0.00  0.00    +0.134 C 
ATOM      6  H   UNL     1      32.896 -24.616 -14.109  0.00  0.00    +0.175 HD
ENDROOT
BRANCH   3   9
ATOM      7  O   UNL     1      35.788 -22.251 -15.232  0.00  0.00    -0.269 OA
ATOM      8  N   UNL     1      35.465 -24.189 -14.042  0.00  0.00    -0.302 N 
ATOM      9  C   UNL     1      35.062 -23.202 -14.938  0.00  0.00    +0.262 C 
ATOM     10  H   UNL     1      34.850 -24.930 -13.839  0.00  0.00    +0.150 HD
BRANCH   8  12
ATOM     11  N   UNL     1      38.231 -26.638 -13.970  0.00  0.00    +0.384 N 
ATOM     12  C   UNL     1      36.760 -24.162 -13.400  0.00  0.00    +0.068 C 
ATOM     13  C   UNL     1      37.887 -24.235 -14.434  0.00  0.00    -0.004 C 
ATOM     14  C   UNL     1      36.898 -25.292 -12.376  0.00  0.00    -0.004 C 
ATOM     15  C   UNL     1      38.042 -25.639 -15.020  0.00  0.00    -0.080 C 
ATOM     16  C   UNL     1      37.103 -26.656 -13.038  0.00  0.00    -0.080 C 
ATOM     17  H   UNL     1      39.083 -26.419 -13.453  0.00  0.00    -0.085 HD
ATOM     18  H   UNL     1      38.299 -27.556 -14.409  0.00  0.00    -0.085 HD
ENDBRANCH   8  12
ENDBRANCH   3   9
BRANCH   4  20
ATOM     19  O   UNL     1      33.966 -23.368 -19.532  0.00  0.00    -0.270 OA
ATOM     20  N   UNL     1      33.877 -22.052 -17.583  0.00  0.00    -0.278 N 
ATOM     21  C   UNL     1      34.196 -22.329 -18.922  0.00  0.00    +0.251 C 
ATOM     22  H   UNL     1      34.135 -21.162 -17.252  0.00  0.00    +0.155 HD
BRANCH  21  25
ATOM     23 CL   UNL     1      37.178 -21.976 -18.429  0.00  0.00    -0.082 Cl
ATOM     24 CL   UNL     1      32.408 -20.688 -20.757  0.00  0.00    -0.082 Cl
ATOM     25  C   UNL     1      34.857 -21.225 -19.665  0.00  0.00    +0.075 C 
ATOM     26  C   UNL     1      36.211 -21.009 -19.486  0.00  0.00    +0.063 C 
ATOM     27  C   UNL     1      34.101 -20.440 -20.517  0.00  0.00    +0.063 C 
ATOM     28  C   UNL     1      36.832 -19.974 -20.185  0.00  0.00    +0.012 C 
ATOM     29  C   UNL     1      34.722 -19.404 -21.216  0.00  0.00    +0.012 C 
ATOM     30  C   UNL     1      36.087 -19.172 -21.050  0.00  0.00    +0.002 C 
ENDBRANCH  21  25
ENDBRANCH   4  20
TORSDOF 4
ENDMDL
MODEL 5
REMARK VINA RESULT:      -8.3      2.871      6.874
REMARK  Name = 11338033
REMARK  4 active torsions:
REMARK  status: ('A' for Active; 'I' for Inactive)
REMARK    1  A    between atoms: C_3  and  C_9
REMARK    2  A    between atoms: C_4  and  N_20
REMARK    3  A    between atoms: N_8  and  C_12
REMARK    4  A    between atoms: C_21  and  C_25
REMARK                            x       y       z     vdW  Elec       q    Type
REMARK                         _______ _______ _______ _____ _____    ______ ____
ROOT
ATOM      1  N   UNL     1      32.926 -22.784 -18.302  0.00  0.00    -0.230 N 
ATOM      2  N   UNL     1      34.003 -22.314 -18.952  0.00  0.00    -0.178 NA
ATOM      3  C   UNL     1      33.211 -23.157 -17.045  0.00  0.00    +0.133 C 
ATOM      4  C   UNL     1      34.520 -22.938 -16.817  0.00  0.00    +0.091 C 
ATOM      5  C   UNL     1      34.974 -22.411 -18.041  0.00  0.00    +0.134 C 
ATOM      6  H   UNL     1      32.029 -22.848 -18.701  0.00  0.00    +0.175 HD
ENDROOT
BRANCH   3   9
ATOM      7  O   UNL     1      32.496 -24.180 -15.032  0.00  0.00    -0.269 OA
ATOM      8  N   UNL     1      30.887 -23.679 -16.594  0.00  0.00    -0.302 N 
ATOM      9  C   UNL     1      32.201 -23.704 -16.130  0.00  0.00    +0.262 C 
ATOM     10  H   UNL     1      30.701 -23.289 -17.478  0.00  0.00    +0.150 HD
BRANCH   8  12
ATOM     11  N   UNL     1      27.473 -22.410 -15.971  0.00  0.00    +0.384 N 
ATOM     12  C   UNL     1      29.788 -24.210 -15.820  0.00  0.00    +0.068 C 
ATOM     13  C   UNL     1      28.576 -24.495 -16.712  0.00  0.00    -0.004 C 
ATOM     14  C   UNL     1      29.403 -23.266 -14.678  0.00  0.00    -0.004 C 
ATOM     15  C   UNL     1      27.855 -23.213 -17.132  0.00  0.00    -0.080 C 
ATOM     16  C   UNL     1      28.640 -22.035 -15.172  0.00  0.00    -0.080 C 
ATOM     17  H   UNL     1      26.834 -22.952 -15.389  0.00  0.00    -0.085 HD
ATOM     18  H   UNL     1      27.025 -21.557 -16.305  0.00  0.00    -0.085 HD
ENDBRANCH   8  12
ENDBRANCH   3   9
BRANCH   4  20
ATOM     19  O   UNL     1      35.625 -25.495 -15.751  0.00  0.00    -0.270 OA
ATOM     20  N   UNL     1      35.239 -23.175 -15.670  0.00  0.00    -0.278 N 
ATOM     21  C   UNL     1      35.741 -24.402 -15.207  0.00  0.00    +0.251 C 
ATOM     22  H   UNL     1      35.425 -22.390 -15.105  0.00  0.00    +0.155 HD
BRANCH  21  25
ATOM     23 CL   UNL     1      34.101 -24.284 -12.647  0.00  0.00    -0.082 Cl
ATOM     24 CL   UNL     1      38.771 -24.410 -15.474  0.00  0.00    -0.082 Cl
ATOM     25  C   UNL     1      36.511 -24.341 -13.937  0.00  0.00    +0.075 C 
ATOM     26  C   UNL     1      35.826 -24.285 -12.737  0.00  0.00    +0.063 C 
ATOM     27  C   UNL     1      37.893 -24.341 -13.988  0.00  0.00    +0.063 C 
ATOM     28  C   UNL     1      36.549 -24.230 -11.545  0.00  0.00    +0.012 C 
ATOM     29  C   UNL     1      38.616 -24.286 -12.796  0.00  0.00    +0.012 C 
ATOM     30  C   UNL     1      37.944 -24.230 -11.575  0.00  0.00    +0.002 C 
ENDBRANCH  21  25
ENDBRANCH   4  20
TORSDOF 4
ENDMDL
MODEL 6
REMARK VINA RESULT:      -8.3      2.865      6.793
REMARK  Name = 11338033
REMARK  4 active torsions:
REMARK  status: ('A' for Active; 'I' for Inactive)
REMARK    1  A    between atoms: C_3  and  C_9
REMARK    2  A    between atoms: C_4  and  N_20
REMARK    3  A    between atoms: N_8  and  C_12
REMARK    4  A    between atoms: C_21  and  C_25
REMARK                            x       y       z     vdW  Elec       q    Type
REMARK                         _______ _______ _______ _____ _____    ______ ____
ROOT
ATOM      1  N   UNL     1      32.935 -22.748 -18.324  0.00  0.00    -0.230 N 
ATOM      2  N   UNL     1      34.021 -22.287 -18.965  0.00  0.00    -0.178 NA
ATOM      3  C   UNL     1      33.207 -23.124 -17.065  0.00  0.00    +0.133 C 
ATOM      4  C   UNL     1      34.515 -22.917 -16.826  0.00  0.00    +0.091 C 
ATOM      5  C   UNL     1      34.984 -22.393 -18.046  0.00  0.00    +0.134 C 
ATOM      6  H   UNL     1      32.040 -22.805 -18.731  0.00  0.00    +0.175 HD
ENDROOT
BRANCH   3   9
ATOM      7  O   UNL     1      32.467 -24.148 -15.060  0.00  0.00    -0.269 OA
ATOM      8  N   UNL     1      30.874 -23.620 -16.629  0.00  0.00    -0.302 N 
ATOM      9  C   UNL     1      32.184 -23.663 -16.158  0.00  0.00    +0.262 C 
ATOM     10  H   UNL     1      30.697 -23.223 -17.513  0.00  0.00    +0.150 HD
BRANCH   8  12
ATOM     11  N   UNL     1      27.451 -22.343 -16.070  0.00  0.00    +0.384 N 
ATOM     12  C   UNL     1      29.764 -24.141 -15.865  0.00  0.00    +0.068 C 
ATOM     13  C   UNL     1      28.565 -24.437 -16.769  0.00  0.00    -0.004 C 
ATOM     14  C   UNL     1      29.363 -23.182 -14.740  0.00  0.00    -0.004 C 
ATOM     15  C   UNL     1      27.850 -23.161 -17.215  0.00  0.00    -0.080 C 
ATOM     16  C   UNL     1      28.607 -21.958 -15.260  0.00  0.00    -0.080 C 
ATOM     17  H   UNL     1      26.804 -22.878 -15.490  0.00  0.00    -0.085 HD
ATOM     18  H   UNL     1      27.009 -21.494 -16.421  0.00  0.00    -0.085 HD
ENDBRANCH   8  12
ENDBRANCH   3   9
BRANCH   4  20
ATOM     19  O   UNL     1      35.638 -25.474 -15.779  0.00  0.00    -0.270 OA
ATOM     20  N   UNL     1      35.222 -23.160 -15.673  0.00  0.00    -0.278 N 
ATOM     21  C   UNL     1      35.734 -24.387 -15.220  0.00  0.00    +0.251 C 
ATOM     22  H   UNL     1      35.392 -22.381 -15.097  0.00  0.00    +0.155 HD
BRANCH  21  25
ATOM     23 CL   UNL     1      38.768 -24.401 -15.447  0.00  0.00    -0.082 Cl
ATOM     24 CL   UNL     1      34.060 -24.275 -12.681  0.00  0.00    -0.082 Cl
ATOM     25  C   UNL     1      36.487 -24.333 -13.940  0.00  0.00    +0.075 C 
ATOM     26  C   UNL     1      37.870 -24.337 -13.973  0.00  0.00    +0.063 C 
ATOM     27  C   UNL     1      35.787 -24.280 -12.748  0.00  0.00    +0.063 C 
ATOM     28  C   UNL     1      38.577 -24.284 -12.771  0.00  0.00    +0.012 C 
ATOM     29  C   UNL     1      36.494 -24.227 -11.547  0.00  0.00    +0.012 C 
ATOM     30  C   UNL     1      37.889 -24.229 -11.559  0.00  0.00    +0.002 C 
ENDBRANCH  21  25
ENDBRANCH   4  20
TORSDOF 4
ENDMDL
MODEL 7
REMARK VINA RESULT:      -8.2      9.666     13.844
REMARK  Name = 11338033
REMARK  4 active torsions:
REMARK  status: ('A' for Active; 'I' for Inactive)
REMARK    1  A    between atoms: C_3  and  C_9
REMARK    2  A    between atoms: C_4  and  N_20
REMARK    3  A    between atoms: N_8  and  C_12
REMARK    4  A    between atoms: C_21  and  C_25
REMARK                            x       y       z     vdW  Elec       q    Type
REMARK                         _______ _______ _______ _____ _____    ______ ____
ROOT
ATOM      1  N   UNL     1      33.075 -12.333 -26.616  0.00  0.00    -0.230 N 
ATOM      2  N   UNL     1      32.981 -13.258 -27.586  0.00  0.00    -0.178 NA
ATOM      3  C   UNL     1      33.329 -12.877 -25.416  0.00  0.00    +0.133 C 
ATOM      4  C   UNL     1      33.416 -14.213 -25.558  0.00  0.00    +0.091 C 
ATOM      5  C   UNL     1      33.191 -14.404 -26.934  0.00  0.00    +0.134 C 
ATOM      6  H   UNL     1      32.968 -11.366 -26.767  0.00  0.00    +0.175 HD
ENDROOT
BRANCH   3   9
ATOM      7  O   UNL     1      33.473 -12.579 -23.070  0.00  0.00    -0.269 OA
ATOM      8  N   UNL     1      33.590 -10.698 -24.385  0.00  0.00    -0.302 N 
ATOM      9  C   UNL     1      33.476 -12.074 -24.195  0.00  0.00    +0.262 C 
ATOM     10  H   UNL     1      33.587 -10.342 -25.302  0.00  0.00    +0.150 HD
BRANCH   8  12
ATOM     11  N   UNL     1      32.538  -7.178 -23.986  0.00  0.00    +0.384 N 
ATOM     12  C   UNL     1      33.709  -9.776 -23.279  0.00  0.00    +0.068 C 
ATOM     13  C   UNL     1      32.330  -9.329 -22.785  0.00  0.00    -0.004 C 
ATOM     14  C   UNL     1      34.563  -8.563 -23.654  0.00  0.00    -0.004 C 
ATOM     15  C   UNL     1      31.672  -8.331 -23.739  0.00  0.00    -0.080 C 
ATOM     16  C   UNL     1      33.819  -7.586 -24.565  0.00  0.00    -0.080 C 
ATOM     17  H   UNL     1      32.713  -6.699 -23.103  0.00  0.00    -0.085 HD
ATOM     18  H   UNL     1      32.069  -6.561 -24.648  0.00  0.00    -0.085 HD
ENDBRANCH   8  12
ENDBRANCH   3   9
BRANCH   4  20
ATOM     19  O   UNL     1      35.176 -16.619 -25.654  0.00  0.00    -0.270 OA
ATOM     20  N   UNL     1      33.664 -15.160 -24.594  0.00  0.00    -0.278 N 
ATOM     21  C   UNL     1      34.505 -16.281 -24.685  0.00  0.00    +0.251 C 
ATOM     22  H   UNL     1      33.197 -15.038 -23.736  0.00  0.00    +0.155 HD
BRANCH  21  25
ATOM     23 CL   UNL     1      34.291 -19.290 -25.089  0.00  0.00    -0.082 Cl
ATOM     24 CL   UNL     1      34.881 -14.780 -22.065  0.00  0.00    -0.082 Cl
ATOM     25  C   UNL     1      34.595 -17.116 -23.458  0.00  0.00    +0.075 C 
ATOM     26  C   UNL     1      34.505 -18.491 -23.572  0.00  0.00    +0.063 C 
ATOM     27  C   UNL     1      34.766 -16.496 -22.233  0.00  0.00    +0.063 C 
ATOM     28  C   UNL     1      34.591 -19.275 -22.420  0.00  0.00    +0.012 C 
ATOM     29  C   UNL     1      34.853 -17.279 -21.082  0.00  0.00    +0.012 C 
ATOM     30  C   UNL     1      34.765 -18.668 -21.176  0.00  0.00    +0.002 C 
ENDBRANCH  21  25
ENDBRANCH   4  20
TORSDOF 4
ENDMDL
MODEL 8
REMARK VINA RESULT:      -8.2      2.678      4.173
REMARK  Name = 11338033
REMARK  4 active torsions:
REMARK  status: ('A' for Active; 'I' for Inactive)
REMARK    1  A    between atoms: C_3  and  C_9
REMARK    2  A    between atoms: C_4  and  N_20
REMARK    3  A    between atoms: N_8  and  C_12
REMARK    4  A    between atoms: C_21  and  C_25
REMARK                            x       y       z     vdW  Elec       q    Type
REMARK                         _______ _______ _______ _____ _____    ______ ____
ROOT
ATOM      1  N   UNL     1      36.006 -23.805 -15.464  0.00  0.00    -0.230 N 
ATOM      2  N   UNL     1      37.280 -23.379 -15.422  0.00  0.00    -0.178 NA
ATOM      3  C   UNL     1      35.277 -23.145 -16.376  0.00  0.00    +0.133 C 
ATOM      4  C   UNL     1      36.065 -22.239 -16.984  0.00  0.00    +0.091 C 
ATOM      5  C   UNL     1      37.310 -22.422 -16.353  0.00  0.00    +0.134 C 
ATOM      6  H   UNL     1      35.648 -24.521 -14.890  0.00  0.00    +0.175 HD
ENDROOT
BRANCH   3   9
ATOM      7  O   UNL     1      33.433 -23.819 -17.701  0.00  0.00    -0.269 OA
ATOM      8  N   UNL     1      33.004 -23.197 -15.532  0.00  0.00    -0.302 N 
ATOM      9  C   UNL     1      33.854 -23.428 -16.611  0.00  0.00    +0.262 C 
ATOM     10  H   UNL     1      33.388 -22.885 -14.681  0.00  0.00    +0.150 HD
BRANCH   8  12
ATOM     11  N   UNL     1      30.542 -24.486 -13.096  0.00  0.00    +0.384 N 
ATOM     12  C   UNL     1      31.576 -23.399 -15.620  0.00  0.00    +0.068 C 
ATOM     13  C   UNL     1      30.835 -22.540 -14.592  0.00  0.00    -0.004 C 
ATOM     14  C   UNL     1      31.210 -24.876 -15.448  0.00  0.00    -0.004 C 
ATOM     15  C   UNL     1      30.974 -23.091 -13.173  0.00  0.00    -0.080 C 
ATOM     16  C   UNL     1      31.323 -25.338 -13.994  0.00  0.00    -0.080 C 
ATOM     17  H   UNL     1      29.558 -24.544 -13.359  0.00  0.00    -0.085 HD
ATOM     18  H   UNL     1      30.683 -24.814 -12.141  0.00  0.00    -0.085 HD
ENDBRANCH   8  12
ENDBRANCH   3   9
BRANCH   4  20
ATOM     19  O   UNL     1      35.493 -22.728 -19.870  0.00  0.00    -0.270 OA
ATOM     20  N   UNL     1      35.734 -21.349 -17.978  0.00  0.00    -0.278 N 
ATOM     21  C   UNL     1      35.471 -21.628 -19.329  0.00  0.00    +0.251 C 
ATOM     22  H   UNL     1      35.671 -20.404 -17.711  0.00  0.00    +0.155 HD
BRANCH  21  25
ATOM     23 CL   UNL     1      37.791 -20.027 -20.477  0.00  0.00    -0.082 Cl
ATOM     24 CL   UNL     1      32.496 -21.110 -19.693  0.00  0.00    -0.082 Cl
ATOM     25  C   UNL     1      35.108 -20.454 -20.166  0.00  0.00    +0.075 C 
ATOM     26  C   UNL     1      36.115 -19.684 -20.718  0.00  0.00    +0.063 C 
ATOM     27  C   UNL     1      33.771 -20.163 -20.372  0.00  0.00    +0.063 C 
ATOM     28  C   UNL     1      35.773 -18.583 -21.505  0.00  0.00    +0.012 C 
ATOM     29  C   UNL     1      33.430 -19.063 -21.159  0.00  0.00    +0.012 C 
ATOM     30  C   UNL     1      34.431 -18.274 -21.725  0.00  0.00    +0.002 C 
ENDBRANCH  21  25
ENDBRANCH   4  20
TORSDOF 4
ENDMDL
MODEL 9
REMARK VINA RESULT:      -8.1      9.147     12.471
REMARK  Name = 11338033
REMARK  4 active torsions:
REMARK  status: ('A' for Active; 'I' for Inactive)
REMARK    1  A    between atoms: C_3  and  C_9
REMARK    2  A    between atoms: C_4  and  N_20
REMARK    3  A    between atoms: N_8  and  C_12
REMARK    4  A    between atoms: C_21  and  C_25
REMARK                            x       y       z     vdW  Elec       q    Type
REMARK                         _______ _______ _______ _____ _____    ______ ____
ROOT
ATOM      1  N   UNL     1      33.819 -15.765 -25.649  0.00  0.00    -0.230 N 
ATOM      2  N   UNL     1      33.241 -15.233 -26.739  0.00  0.00    -0.178 NA
ATOM      3  C   UNL     1      33.801 -14.928 -24.601  0.00  0.00    +0.133 C 
ATOM      4  C   UNL     1      33.193 -13.786 -24.973  0.00  0.00    +0.091 C 
ATOM      5  C   UNL     1      32.860 -14.024 -26.320  0.00  0.00    +0.134 C 
ATOM      6  H   UNL     1      34.212 -16.668 -25.622  0.00  0.00    +0.175 HD
ENDROOT
BRANCH   3   9
ATOM      7  O   UNL     1      34.568 -14.437 -22.414  0.00  0.00    -0.269 OA
ATOM      8  N   UNL     1      34.708 -16.619 -23.120  0.00  0.00    -0.302 N 
ATOM      9  C   UNL     1      34.372 -15.278 -23.294  0.00  0.00    +0.262 C 
ATOM     10  H   UNL     1      34.533 -17.254 -23.852  0.00  0.00    +0.150 HD
BRANCH   8  12
ATOM     11  N   UNL     1      34.306 -19.799 -21.281  0.00  0.00    +0.384 N 
ATOM     12  C   UNL     1      35.308 -17.110 -21.900  0.00  0.00    +0.068 C 
ATOM     13  C   UNL     1      36.126 -18.378 -22.162  0.00  0.00    -0.004 C 
ATOM     14  C   UNL     1      34.252 -17.367 -20.823  0.00  0.00    -0.004 C 
ATOM     15  C   UNL     1      35.237 -19.601 -22.391  0.00  0.00    -0.080 C 
ATOM     16  C   UNL     1      33.439 -18.634 -21.094  0.00  0.00    -0.080 C 
ATOM     17  H   UNL     1      34.838 -19.955 -20.425  0.00  0.00    -0.085 HD
ATOM     18  H   UNL     1      33.718 -20.604 -21.495  0.00  0.00    -0.085 HD
ENDBRANCH   8  12
ENDBRANCH   3   9
BRANCH   4  20
ATOM     19  O   UNL     1      34.683 -11.204 -24.881  0.00  0.00    -0.270 OA
ATOM     20  N   UNL     1      32.956 -12.660 -24.221  0.00  0.00    -0.278 N 
ATOM     21  C   UNL     1      33.689 -11.462 -24.212  0.00  0.00    +0.251 C 
ATOM     22  H   UNL     1      32.179 -12.698 -23.617  0.00  0.00    +0.155 HD
BRANCH  21  25
ATOM     23 CL   UNL     1      34.738  -8.648 -24.703  0.00  0.00    -0.082 Cl
ATOM     24 CL   UNL     1      31.703 -12.361 -22.089  0.00  0.00    -0.082 Cl
ATOM     25  C   UNL     1      33.170 -10.402 -23.308  0.00  0.00    +0.075 C 
ATOM     26  C   UNL     1      33.607  -9.100 -23.477  0.00  0.00    +0.063 C 
ATOM     27  C   UNL     1      32.264 -10.743 -22.321  0.00  0.00    +0.063 C 
ATOM     28  C   UNL     1      33.119  -8.105 -22.630  0.00  0.00    +0.012 C 
ATOM     29  C   UNL     1      31.776  -9.748 -21.473  0.00  0.00    +0.012 C 
ATOM     30  C   UNL     1      32.203  -8.429 -21.629  0.00  0.00    +0.002 C 
ENDBRANCH  21  25
ENDBRANCH   4  20
TORSDOF 4
ENDMDL
