MODEL 1
REMARK VINA RESULT:      -7.0      0.000      0.000
REMARK  Name = 7436
REMARK  5 active torsions:
REMARK  status: ('A' for Active; 'I' for Inactive)
REMARK    1  A    between atoms: C_1  and  C_8
REMARK    2  A    between atoms: C_4  and  O_14
REMARK    3  A    between atoms: C_6  and  O_16
REMARK    4  A    between atoms: C_8  and  C_9
REMARK    5  A    between atoms: C_9  and  N_10
REMARK                            x       y       z     vdW  Elec       q    Type
REMARK                         _______ _______ _______ _____ _____    ______ ____
ROOT
ATOM      1  C   UNL     1      35.086 -19.464 -20.995  0.00  0.00    +0.036 C 
ATOM      2  C   UNL     1      35.685 -20.479 -20.250  0.00  0.00    +0.043 C 
ATOM      3  C   UNL     1      33.695 -19.367 -21.050  0.00  0.00    +0.006 C 
ATOM      4  C   UNL     1      34.894 -21.398 -19.561  0.00  0.00    +0.168 C 
ATOM      5  C   UNL     1      32.904 -20.285 -20.361  0.00  0.00    +0.040 C 
ATOM      6  C   UNL     1      33.503 -21.301 -19.616  0.00  0.00    +0.167 C 
ENDROOT
BRANCH   1   8
ATOM      7  O   UNL     1      37.148 -18.655 -21.777  0.00  0.00    -0.294 OA
ATOM      8  C   UNL     1      35.910 -18.506 -21.716  0.00  0.00    +0.152 C 
BRANCH   8   9
ATOM      9  C   UNL     1      35.251 -17.302 -22.406  0.00  0.00    -0.011 C 
BRANCH   9  10
ATOM     10  N   UNL     1      35.546 -17.310 -23.834  0.00  0.00    +0.387 N 
ATOM     11  C   UNL     1      34.640 -18.198 -24.547  0.00  0.00    -0.105 C 
ATOM     12  H   UNL     1      36.506 -17.627 -23.975  0.00  0.00    -0.084 HD
ATOM     13  H   UNL     1      35.429 -16.363 -24.196  0.00  0.00    -0.084 HD
ENDBRANCH   9  10
ENDBRANCH   8   9
ENDBRANCH   1   8
BRANCH   4  14
ATOM     14  O   UNL     1      35.491 -22.386 -18.837  0.00  0.00    -0.503 OA
ATOM     15  H   UNL     1      35.216 -23.275 -18.941  0.00  0.00    +0.292 HD
ENDBRANCH   4  14
BRANCH   6  16
ATOM     16  O   UNL     1      32.721 -22.192 -18.947  0.00  0.00    -0.503 OA
ATOM     17  H   UNL     1      33.090 -22.990 -18.622  0.00  0.00    +0.292 HD
ENDBRANCH   6  16
TORSDOF 5
ENDMDL
MODEL 2
REMARK VINA RESULT:      -6.9      1.198      2.113
REMARK  Name = 7436
REMARK  5 active torsions:
REMARK  status: ('A' for Active; 'I' for Inactive)
REMARK    1  A    between atoms: C_1  and  C_8
REMARK    2  A    between atoms: C_4  and  O_14
REMARK    3  A    between atoms: C_6  and  O_16
REMARK    4  A    between atoms: C_8  and  C_9
REMARK    5  A    between atoms: C_9  and  N_10
REMARK                            x       y       z     vdW  Elec       q    Type
REMARK                         _______ _______ _______ _____ _____    ______ ____
ROOT
ATOM      1  C   UNL     1      34.793 -19.472 -21.046  0.00  0.00    +0.036 C 
ATOM      2  C   UNL     1      33.661 -20.141 -20.580  0.00  0.00    +0.043 C 
ATOM      3  C   UNL     1      36.063 -19.882 -20.639  0.00  0.00    +0.006 C 
ATOM      4  C   UNL     1      33.800 -21.220 -19.706  0.00  0.00    +0.168 C 
ATOM      5  C   UNL     1      36.202 -20.960 -19.766  0.00  0.00    +0.040 C 
ATOM      6  C   UNL     1      35.070 -21.630 -19.299  0.00  0.00    +0.167 C 
ENDROOT
BRANCH   1   8
ATOM      7  O   UNL     1      34.239 -17.242 -21.537  0.00  0.00    -0.294 OA
ATOM      8  C   UNL     1      34.649 -18.345 -21.955  0.00  0.00    +0.152 C 
BRANCH   8   9
ATOM      9  C   UNL     1      35.004 -18.516 -23.440  0.00  0.00    -0.011 C 
BRANCH   9  10
ATOM     10  N   UNL     1      35.458 -17.249 -24.003  0.00  0.00    +0.387 N 
ATOM     11  C   UNL     1      34.672 -16.889 -25.174  0.00  0.00    -0.105 C 
ATOM     12  H   UNL     1      36.439 -17.335 -24.271  0.00  0.00    -0.084 HD
ATOM     13  H   UNL     1      35.346 -16.520 -23.297  0.00  0.00    -0.084 HD
ENDBRANCH   9  10
ENDBRANCH   8   9
ENDBRANCH   1   8
BRANCH   4  14
ATOM     14  O   UNL     1      32.688 -21.866 -19.258  0.00  0.00    -0.503 OA
ATOM     15  H   UNL     1      32.740 -22.763 -18.995  0.00  0.00    +0.292 HD
ENDBRANCH   4  14
BRANCH   6  16
ATOM     16  O   UNL     1      35.218 -22.681 -18.447  0.00  0.00    -0.503 OA
ATOM     17  H   UNL     1      35.625 -22.556 -17.612  0.00  0.00    +0.292 HD
ENDBRANCH   6  16
TORSDOF 5
ENDMDL
MODEL 3
REMARK VINA RESULT:      -6.7      2.681      5.462
REMARK  Name = 7436
REMARK  5 active torsions:
REMARK  status: ('A' for Active; 'I' for Inactive)
REMARK    1  A    between atoms: C_1  and  C_8
REMARK    2  A    between atoms: C_4  and  O_14
REMARK    3  A    between atoms: C_6  and  O_16
REMARK    4  A    between atoms: C_8  and  C_9
REMARK    5  A    between atoms: C_9  and  N_10
REMARK                            x       y       z     vdW  Elec       q    Type
REMARK                         _______ _______ _______ _____ _____    ______ ____
ROOT
ATOM      1  C   UNL     1      35.027 -18.595 -22.281  0.00  0.00    +0.036 C 
ATOM      2  C   UNL     1      35.106 -17.202 -22.290  0.00  0.00    +0.043 C 
ATOM      3  C   UNL     1      34.782 -19.287 -23.468  0.00  0.00    +0.006 C 
ATOM      4  C   UNL     1      34.939 -16.502 -23.485  0.00  0.00    +0.168 C 
ATOM      5  C   UNL     1      34.615 -18.587 -24.662  0.00  0.00    +0.040 C 
ATOM      6  C   UNL     1      34.693 -17.194 -24.671  0.00  0.00    +0.167 C 
ENDROOT
BRANCH   1   8
ATOM      7  O   UNL     1      36.265 -19.236 -20.390  0.00  0.00    -0.294 OA
ATOM      8  C   UNL     1      35.199 -19.326 -21.036  0.00  0.00    +0.152 C 
BRANCH   8   9
ATOM      9  C   UNL     1      34.062 -20.217 -20.512  0.00  0.00    -0.011 C 
BRANCH   9  10
ATOM     10  N   UNL     1      34.598 -21.286 -19.676  0.00  0.00    +0.387 N 
ATOM     11  C   UNL     1      33.524 -22.045 -19.053  0.00  0.00    -0.105 C 
ATOM     12  H   UNL     1      35.186 -20.878 -18.949  0.00  0.00    -0.084 HD
ATOM     13  H   UNL     1      35.145 -21.915 -20.264  0.00  0.00    -0.084 HD
ENDBRANCH   9  10
ENDBRANCH   8   9
ENDBRANCH   1   8
BRANCH   4  14
ATOM     14  O   UNL     1      35.018 -15.142 -23.481  0.00  0.00    -0.503 OA
ATOM     15  H   UNL     1      35.052 -14.672 -24.290  0.00  0.00    +0.292 HD
ENDBRANCH   4  14
BRANCH   6  16
ATOM     16  O   UNL     1      34.528 -16.521 -25.843  0.00  0.00    -0.503 OA
ATOM     17  H   UNL     1      35.228 -16.484 -26.466  0.00  0.00    +0.292 HD
ENDBRANCH   6  16
TORSDOF 5
ENDMDL
MODEL 4
REMARK VINA RESULT:      -6.7      3.192      5.924
REMARK  Name = 7436
REMARK  5 active torsions:
REMARK  status: ('A' for Active; 'I' for Inactive)
REMARK    1  A    between atoms: C_1  and  C_8
REMARK    2  A    between atoms: C_4  and  O_14
REMARK    3  A    between atoms: C_6  and  O_16
REMARK    4  A    between atoms: C_8  and  C_9
REMARK    5  A    between atoms: C_9  and  N_10
REMARK                            x       y       z     vdW  Elec       q    Type
REMARK                         _______ _______ _______ _____ _____    ______ ____
ROOT
ATOM      1  C   UNL     1      34.906 -17.034 -22.762  0.00  0.00    +0.036 C 
ATOM      2  C   UNL     1      34.390 -15.745 -22.886  0.00  0.00    +0.043 C 
ATOM      3  C   UNL     1      34.975 -17.869 -23.878  0.00  0.00    +0.006 C 
ATOM      4  C   UNL     1      33.942 -15.289 -24.127  0.00  0.00    +0.168 C 
ATOM      5  C   UNL     1      34.527 -17.414 -25.118  0.00  0.00    +0.040 C 
ATOM      6  C   UNL     1      34.011 -16.124 -25.243  0.00  0.00    +0.167 C 
ENDROOT
BRANCH   1   8
ATOM      7  O   UNL     1      35.232 -16.806 -20.447  0.00  0.00    -0.294 OA
ATOM      8  C   UNL     1      35.371 -17.511 -21.469  0.00  0.00    +0.152 C 
BRANCH   8   9
ATOM      9  C   UNL     1      36.039 -18.890 -21.361  0.00  0.00    -0.011 C 
BRANCH   9  10
ATOM     10  N   UNL     1      35.365 -19.704 -20.355  0.00  0.00    +0.387 N 
ATOM     11  C   UNL     1      34.012 -20.036 -20.777  0.00  0.00    -0.105 C 
ATOM     12  H   UNL     1      35.324 -19.184 -19.478  0.00  0.00    -0.084 HD
ATOM     13  H   UNL     1      35.890 -20.569 -20.231  0.00  0.00    -0.084 HD
ENDBRANCH   9  10
ENDBRANCH   8   9
ENDBRANCH   1   8
BRANCH   4  14
ATOM     14  O   UNL     1      33.440 -14.027 -24.236  0.00  0.00    -0.503 OA
ATOM     15  H   UNL     1      32.686 -13.778 -23.741  0.00  0.00    +0.292 HD
ENDBRANCH   4  14
BRANCH   6  16
ATOM     16  O   UNL     1      33.578 -15.690 -26.459  0.00  0.00    -0.503 OA
ATOM     17  H   UNL     1      33.396 -16.308 -27.140  0.00  0.00    +0.292 HD
ENDBRANCH   6  16
TORSDOF 5
ENDMDL
MODEL 5
REMARK VINA RESULT:      -6.6      3.085      4.687
REMARK  Name = 7436
REMARK  5 active torsions:
REMARK  status: ('A' for Active; 'I' for Inactive)
REMARK    1  A    between atoms: C_1  and  C_8
REMARK    2  A    between atoms: C_4  and  O_14
REMARK    3  A    between atoms: C_6  and  O_16
REMARK    4  A    between atoms: C_8  and  C_9
REMARK    5  A    between atoms: C_9  and  N_10
REMARK                            x       y       z     vdW  Elec       q    Type
REMARK                         _______ _______ _______ _____ _____    ______ ____
ROOT
ATOM      1  C   UNL     1      34.639 -16.807 -23.746  0.00  0.00    +0.036 C 
ATOM      2  C   UNL     1      34.632 -16.152 -22.515  0.00  0.00    +0.043 C 
ATOM      3  C   UNL     1      35.069 -18.132 -23.829  0.00  0.00    +0.006 C 
ATOM      4  C   UNL     1      35.055 -16.822 -21.366  0.00  0.00    +0.168 C 
ATOM      5  C   UNL     1      35.492 -18.801 -22.682  0.00  0.00    +0.040 C 
ATOM      6  C   UNL     1      35.485 -18.147 -21.450  0.00  0.00    +0.167 C 
ENDROOT
BRANCH   1   8
ATOM      7  O   UNL     1      34.500 -16.543 -26.076  0.00  0.00    -0.294 OA
ATOM      8  C   UNL     1      34.200 -16.109 -24.944  0.00  0.00    +0.152 C 
BRANCH   8   9
ATOM      9  C   UNL     1      33.363 -14.827 -24.815  0.00  0.00    -0.011 C 
BRANCH   9  10
ATOM     10  N   UNL     1      32.591 -14.600 -26.032  0.00  0.00    +0.387 N 
ATOM     11  C   UNL     1      33.153 -13.504 -26.807  0.00  0.00    -0.105 C 
ATOM     12  H   UNL     1      31.629 -14.372 -25.779  0.00  0.00    -0.084 HD
ATOM     13  H   UNL     1      32.617 -15.448 -26.597  0.00  0.00    -0.084 HD
ENDBRANCH   9  10
ENDBRANCH   8   9
ENDBRANCH   1   8
BRANCH   4  14
ATOM     14  O   UNL     1      35.044 -16.172 -20.169  0.00  0.00    -0.503 OA
ATOM     15  H   UNL     1      34.294 -16.229 -19.612  0.00  0.00    +0.292 HD
ENDBRANCH   4  14
BRANCH   6  16
ATOM     16  O   UNL     1      35.900 -18.811 -20.336  0.00  0.00    -0.503 OA
ATOM     17  H   UNL     1      35.688 -18.479 -19.485  0.00  0.00    +0.292 HD
ENDBRANCH   6  16
TORSDOF 5
ENDMDL
MODEL 6
REMARK VINA RESULT:      -6.6      1.340      1.443
REMARK  Name = 7436
REMARK  5 active torsions:
REMARK  status: ('A' for Active; 'I' for Inactive)
REMARK    1  A    between atoms: C_1  and  C_8
REMARK    2  A    between atoms: C_4  and  O_14
REMARK    3  A    between atoms: C_6  and  O_16
REMARK    4  A    between atoms: C_8  and  C_9
REMARK    5  A    between atoms: C_9  and  N_10
REMARK                            x       y       z     vdW  Elec       q    Type
REMARK                         _______ _______ _______ _____ _____    ______ ____
ROOT
ATOM      1  C   UNL     1      34.534 -19.391 -21.064  0.00  0.00    +0.036 C 
ATOM      2  C   UNL     1      35.714 -19.971 -20.599  0.00  0.00    +0.043 C 
ATOM      3  C   UNL     1      33.301 -19.938 -20.711  0.00  0.00    +0.006 C 
ATOM      4  C   UNL     1      35.660 -21.099 -19.780  0.00  0.00    +0.168 C 
ATOM      5  C   UNL     1      33.246 -21.066 -19.893  0.00  0.00    +0.040 C 
ATOM      6  C   UNL     1      34.426 -21.647 -19.427  0.00  0.00    +0.167 C 
ENDROOT
BRANCH   1   8
ATOM      7  O   UNL     1      34.168 -17.113 -21.510  0.00  0.00    -0.294 OA
ATOM      8  C   UNL     1      34.590 -18.215 -21.919  0.00  0.00    +0.152 C 
BRANCH   8   9
ATOM      9  C   UNL     1      35.170 -18.331 -23.337  0.00  0.00    -0.011 C 
BRANCH   9  10
ATOM     10  N   UNL     1      35.411 -17.006 -23.898  0.00  0.00    +0.387 N 
ATOM     11  C   UNL     1      34.690 -16.834 -25.151  0.00  0.00    -0.105 C 
ATOM     12  H   UNL     1      36.410 -16.891 -24.068  0.00  0.00    -0.084 HD
ATOM     13  H   UNL     1      35.081 -16.306 -23.232  0.00  0.00    -0.084 HD
ENDBRANCH   9  10
ENDBRANCH   8   9
ENDBRANCH   1   8
BRANCH   4  14
ATOM     14  O   UNL     1      36.819 -21.658 -19.331  0.00  0.00    -0.503 OA
ATOM     15  H   UNL     1      37.559 -21.115 -19.147  0.00  0.00    +0.292 HD
ENDBRANCH   4  14
BRANCH   6  16
ATOM     16  O   UNL     1      34.361 -22.748 -18.629  0.00  0.00    -0.503 OA
ATOM     17  H   UNL     1      35.113 -23.296 -18.523  0.00  0.00    +0.292 HD
ENDBRANCH   6  16
TORSDOF 5
ENDMDL
MODEL 7
REMARK VINA RESULT:      -6.5      3.103      5.422
REMARK  Name = 7436
REMARK  5 active torsions:
REMARK  status: ('A' for Active; 'I' for Inactive)
REMARK    1  A    between atoms: C_1  and  C_8
REMARK    2  A    between atoms: C_4  and  O_14
REMARK    3  A    between atoms: C_6  and  O_16
REMARK    4  A    between atoms: C_8  and  C_9
REMARK    5  A    between atoms: C_9  and  N_10
REMARK                            x       y       z     vdW  Elec       q    Type
REMARK                         _______ _______ _______ _____ _____    ______ ____
ROOT
ATOM      1  C   UNL     1      34.159 -21.548 -19.718  0.00  0.00    +0.036 C 
ATOM      2  C   UNL     1      35.479 -21.128 -19.880  0.00  0.00    +0.043 C 
ATOM      3  C   UNL     1      33.112 -20.755 -20.188  0.00  0.00    +0.006 C 
ATOM      4  C   UNL     1      35.752 -19.914 -20.511  0.00  0.00    +0.168 C 
ATOM      5  C   UNL     1      33.384 -19.541 -20.819  0.00  0.00    +0.040 C 
ATOM      6  C   UNL     1      34.705 -19.121 -20.981  0.00  0.00    +0.167 C 
ENDROOT
BRANCH   1   8
ATOM      7  O   UNL     1      34.029 -23.893 -19.666  0.00  0.00    -0.294 OA
ATOM      8  C   UNL     1      33.873 -22.812 -19.059  0.00  0.00    +0.152 C 
BRANCH   8   9
ATOM      9  C   UNL     1      33.375 -22.817 -17.605  0.00  0.00    -0.011 C 
BRANCH   9  10
ATOM     10  N   UNL     1      31.917 -22.783 -17.568  0.00  0.00    +0.387 N 
ATOM     11  C   UNL     1      31.423 -23.174 -16.256  0.00  0.00    -0.105 C 
ATOM     12  H   UNL     1      31.550 -23.426 -18.270  0.00  0.00    -0.084 HD
ATOM     13  H   UNL     1      31.609 -21.830 -17.763  0.00  0.00    -0.084 HD
ENDBRANCH   9  10
ENDBRANCH   8   9
ENDBRANCH   1   8
BRANCH   4  14
ATOM     14  O   UNL     1      37.046 -19.514 -20.664  0.00  0.00    -0.503 OA
ATOM     15  H   UNL     1      37.567 -19.317 -19.912  0.00  0.00    +0.292 HD
ENDBRANCH   4  14
BRANCH   6  16
ATOM     16  O   UNL     1      34.959 -17.934 -21.599  0.00  0.00    -0.503 OA
ATOM     17  H   UNL     1      34.685 -17.798 -22.484  0.00  0.00    +0.292 HD
ENDBRANCH   6  16
TORSDOF 5
ENDMDL
MODEL 8
REMARK VINA RESULT:      -6.3      4.089      5.538
REMARK  Name = 7436
REMARK  5 active torsions:
REMARK  status: ('A' for Active; 'I' for Inactive)
REMARK    1  A    between atoms: C_1  and  C_8
REMARK    2  A    between atoms: C_4  and  O_14
REMARK    3  A    between atoms: C_6  and  O_16
REMARK    4  A    between atoms: C_8  and  C_9
REMARK    5  A    between atoms: C_9  and  N_10
REMARK                            x       y       z     vdW  Elec       q    Type
REMARK                         _______ _______ _______ _____ _____    ______ ____
ROOT
ATOM      1  C   UNL     1      33.504 -23.071 -17.291  0.00  0.00    +0.036 C 
ATOM      2  C   UNL     1      34.534 -23.061 -16.352  0.00  0.00    +0.043 C 
ATOM      3  C   UNL     1      32.178 -23.187 -16.872  0.00  0.00    +0.006 C 
ATOM      4  C   UNL     1      34.239 -23.168 -14.992  0.00  0.00    +0.168 C 
ATOM      5  C   UNL     1      31.883 -23.294 -15.513  0.00  0.00    +0.040 C 
ATOM      6  C   UNL     1      32.913 -23.284 -14.573  0.00  0.00    +0.167 C 
ENDROOT
BRANCH   1   8
ATOM      7  O   UNL     1      33.900 -23.985 -19.419  0.00  0.00    -0.294 OA
ATOM      8  C   UNL     1      33.810 -22.961 -18.709  0.00  0.00    +0.152 C 
BRANCH   8   9
ATOM      9  C   UNL     1      34.026 -21.576 -19.337  0.00  0.00    -0.011 C 
BRANCH   9  10
ATOM     10  N   UNL     1      32.743 -20.935 -19.607  0.00  0.00    +0.387 N 
ATOM     11  C   UNL     1      32.864 -19.965 -20.685  0.00  0.00    -0.105 C 
ATOM     12  H   UNL     1      32.423 -20.459 -18.763  0.00  0.00    -0.084 HD
ATOM     13  H   UNL     1      32.073 -21.652 -19.885  0.00  0.00    -0.084 HD
ENDBRANCH   9  10
ENDBRANCH   8   9
ENDBRANCH   1   8
BRANCH   4  14
ATOM     14  O   UNL     1      35.254 -23.157 -14.083  0.00  0.00    -0.503 OA
ATOM     15  H   UNL     1      35.241 -22.546 -13.374  0.00  0.00    +0.292 HD
ENDBRANCH   4  14
BRANCH   6  16
ATOM     16  O   UNL     1      32.613 -23.389 -13.249  0.00  0.00    -0.503 OA
ATOM     17  H   UNL     1      31.991 -24.027 -12.958  0.00  0.00    +0.292 HD
ENDBRANCH   6  16
TORSDOF 5
ENDMDL
MODEL 9
REMARK VINA RESULT:      -6.2      9.085     10.058
REMARK  Name = 7436
REMARK  5 active torsions:
REMARK  status: ('A' for Active; 'I' for Inactive)
REMARK    1  A    between atoms: C_1  and  C_8
REMARK    2  A    between atoms: C_4  and  O_14
REMARK    3  A    between atoms: C_6  and  O_16
REMARK    4  A    between atoms: C_8  and  C_9
REMARK    5  A    between atoms: C_9  and  N_10
REMARK                            x       y       z     vdW  Elec       q    Type
REMARK                         _______ _______ _______ _____ _____    ______ ____
ROOT
ATOM      1  C   UNL     1      36.092 -24.879 -13.426  0.00  0.00    +0.036 C 
ATOM      2  C   UNL     1      36.089 -25.664 -14.578  0.00  0.00    +0.043 C 
ATOM      3  C   UNL     1      37.276 -24.695 -12.710  0.00  0.00    +0.006 C 
ATOM      4  C   UNL     1      37.270 -26.266 -15.015  0.00  0.00    +0.168 C 
ATOM      5  C   UNL     1      38.456 -25.296 -13.146  0.00  0.00    +0.040 C 
ATOM      6  C   UNL     1      38.453 -26.081 -14.299  0.00  0.00    +0.167 C 
ENDROOT
BRANCH   1   8
ATOM      7  O   UNL     1      34.776 -23.797 -11.808  0.00  0.00    -0.294 OA
ATOM      8  C   UNL     1      34.862 -24.253 -12.968  0.00  0.00    +0.152 C 
BRANCH   8   9
ATOM      9  C   UNL     1      33.659 -24.152 -13.919  0.00  0.00    -0.011 C 
BRANCH   9  10
ATOM     10  N   UNL     1      32.693 -25.206 -13.629  0.00  0.00    +0.387 N 
ATOM     11  C   UNL     1      31.332 -24.733 -13.836  0.00  0.00    -0.105 C 
ATOM     12  H   UNL     1      32.801 -25.501 -12.659  0.00  0.00    -0.084 HD
ATOM     13  H   UNL     1      32.866 -25.989 -14.260  0.00  0.00    -0.084 HD
ENDBRANCH   9  10
ENDBRANCH   8   9
ENDBRANCH   1   8
BRANCH   4  14
ATOM     14  O   UNL     1      37.255 -27.030 -16.143  0.00  0.00    -0.503 OA
ATOM     15  H   UNL     1      37.851 -27.746 -16.231  0.00  0.00    +0.292 HD
ENDBRANCH   4  14
BRANCH   6  16
ATOM     16  O   UNL     1      39.611 -26.664 -14.716  0.00  0.00    -0.503 OA
ATOM     17  H   UNL     1      40.425 -26.435 -14.310  0.00  0.00    +0.292 HD
ENDBRANCH   6  16
TORSDOF 5
ENDMDL
