MODEL 1
REMARK VINA RESULT:      -9.1      0.000      0.000
REMARK  Name = 5360515
REMARK  4 active torsions:
REMARK  status: ('A' for Active; 'I' for Inactive)
REMARK    1  A    between atoms: N_3  and  C_25
REMARK    2  A    between atoms: C_5  and  O_21
REMARK    3  A    between atoms: C_18  and  O_23
REMARK    4  A    between atoms: C_25  and  C_26
REMARK                            x       y       z     vdW  Elec       q    Type
REMARK                         _______ _______ _______ _____ _____    ______ ____
ROOT
ATOM      1  O   UNL     1      31.518 -10.924 -22.662  0.00  0.00    -0.469 OA
ATOM      2  O   UNL     1      31.990 -11.047 -20.001  0.00  0.00    -0.292 OA
ATOM      3  N   UNL     1      31.904  -5.872 -23.826  0.00  0.00    +0.390 N 
ATOM      4  C   UNL     1      31.668  -8.510 -22.636  0.00  0.00    +0.084 C 
ATOM      5  C   UNL     1      32.146  -7.294 -21.829  0.00  0.00    +0.079 C 
ATOM      6  C   UNL     1      32.900  -6.364 -22.839  0.00  0.00    -0.028 C 
ATOM      7  C   UNL     1      31.174  -9.745 -21.865  0.00  0.00    +0.228 C 
ATOM      8  C   UNL     1      30.670  -8.051 -23.725  0.00  0.00    -0.013 C 
ATOM      9  C   UNL     1      32.834  -9.165 -23.293  0.00  0.00    +0.016 C 
ATOM     10  C   UNL     1      32.979  -7.707 -20.602  0.00  0.00    +0.033 C 
ATOM     11  C   UNL     1      31.247  -6.926 -24.605  0.00  0.00    -0.077 C 
ATOM     12  C   UNL     1      34.153  -7.066 -23.474  0.00  0.00    +0.008 C 
ATOM     13  C   UNL     1      33.972  -8.534 -23.757  0.00  0.00    -0.025 C 
ATOM     14  C   UNL     1      32.202  -8.684 -19.721  0.00  0.00    +0.071 C 
ATOM     15  C   UNL     1      31.832  -9.929 -20.494  0.00  0.00    +0.191 C 
ATOM     16  C   UNL     1      32.652 -10.533 -23.336  0.00  0.00    +0.168 C 
ATOM     17  C   UNL     1      34.929  -9.341 -24.372  0.00  0.00    -0.001 C 
ATOM     18  C   UNL     1      33.576 -11.344 -23.952  0.00  0.00    +0.167 C 
ATOM     19  C   UNL     1      34.720 -10.733 -24.486  0.00  0.00    +0.039 C 
ATOM     20  H   UNL     1      31.176  -5.462 -23.241  0.00  0.00    -0.080 HD
ENDROOT
BRANCH   5  21
ATOM     21  O   UNL     1      31.004  -6.589 -21.315  0.00  0.00    -0.388 OA
ATOM     22  H   UNL     1      31.044  -5.660 -21.595  0.00  0.00    +0.210 HD
ENDBRANCH   5  21
BRANCH  18  23
ATOM     23  O   UNL     1      33.411 -12.688 -24.019  0.00  0.00    -0.503 OA
ATOM     24  H   UNL     1      32.731 -13.102 -23.524  0.00  0.00    +0.292 HD
ENDBRANCH  18  23
BRANCH   3  25
ATOM     25  C   UNL     1      32.409  -4.807 -24.686  0.00  0.00    -0.077 C 
BRANCH  25  26
ATOM     26  C   UNL     1      32.695  -5.311 -26.063  0.00  0.00    -0.021 C 
ATOM     27  C   UNL     1      32.964  -4.321 -27.152  0.00  0.00    -0.002 C 
ATOM     28  C   UNL     1      34.079  -5.168 -26.612  0.00  0.00    -0.002 C 
ENDBRANCH  25  26
ENDBRANCH   3  25
TORSDOF 4
ENDMDL
MODEL 2
REMARK VINA RESULT:      -6.9     16.978     19.130
REMARK  Name = 5360515
REMARK  4 active torsions:
REMARK  status: ('A' for Active; 'I' for Inactive)
REMARK    1  A    between atoms: N_3  and  C_25
REMARK    2  A    between atoms: C_5  and  O_21
REMARK    3  A    between atoms: C_18  and  O_23
REMARK    4  A    between atoms: C_25  and  C_26
REMARK                            x       y       z     vdW  Elec       q    Type
REMARK                         _______ _______ _______ _____ _____    ______ ____
ROOT
ATOM      1  O   UNL     1      38.625 -23.809 -14.193  0.00  0.00    -0.469 OA
ATOM      2  O   UNL     1      39.230 -26.427 -14.506  0.00  0.00    -0.292 OA
ATOM      3  N   UNL     1      33.566 -23.490 -15.345  0.00  0.00    +0.390 N 
ATOM      4  C   UNL     1      36.357 -24.183 -14.944  0.00  0.00    +0.084 C 
ATOM      5  C   UNL     1      35.282 -25.251 -15.197  0.00  0.00    +0.079 C 
ATOM      6  C   UNL     1      33.956 -24.698 -14.573  0.00  0.00    -0.028 C 
ATOM      7  C   UNL     1      37.830 -24.570 -15.158  0.00  0.00    +0.228 C 
ATOM      8  C   UNL     1      35.974 -22.876 -15.676  0.00  0.00    -0.013 C 
ATOM      9  C   UNL     1      36.456 -23.908 -13.483  0.00  0.00    +0.016 C 
ATOM     10  C   UNL     1      35.706 -26.632 -14.667  0.00  0.00    +0.033 C 
ATOM     11  C   UNL     1      34.552 -22.404 -15.317  0.00  0.00    -0.077 C 
ATOM     12  C   UNL     1      34.077 -24.468 -13.024  0.00  0.00    +0.008 C 
ATOM     13  C   UNL     1      35.421 -23.961 -12.569  0.00  0.00    -0.025 C 
ATOM     14  C   UNL     1      37.051 -27.052 -15.258  0.00  0.00    +0.071 C 
ATOM     15  C   UNL     1      38.129 -26.051 -14.909  0.00  0.00    +0.191 C 
ATOM     16  C   UNL     1      37.764 -23.636 -13.135  0.00  0.00    +0.168 C 
ATOM     17  C   UNL     1      35.733 -23.631 -11.250  0.00  0.00    -0.001 C 
ATOM     18  C   UNL     1      38.089 -23.293 -11.843  0.00  0.00    +0.167 C 
ATOM     19  C   UNL     1      37.055 -23.281 -10.897  0.00  0.00    +0.039 C 
ATOM     20  H   UNL     1      33.546 -23.823 -16.309  0.00  0.00    -0.080 HD
ENDROOT
BRANCH   5  21
ATOM     21  O   UNL     1      35.096 -25.407 -16.614  0.00  0.00    -0.388 OA
ATOM     22  H   UNL     1      34.148 -25.476 -16.810  0.00  0.00    +0.210 HD
ENDBRANCH   5  21
BRANCH  18  23
ATOM     23  O   UNL     1      39.364 -23.007 -11.483  0.00  0.00    -0.503 OA
ATOM     24  H   UNL     1      39.540 -22.279 -10.918  0.00  0.00    +0.292 HD
ENDBRANCH  18  23
BRANCH   3  25
ATOM     25  C   UNL     1      32.226 -23.003 -15.034  0.00  0.00    -0.077 C 
BRANCH  25  26
ATOM     26  C   UNL     1      31.243 -23.417 -16.081  0.00  0.00    -0.021 C 
ATOM     27  C   UNL     1      30.183 -24.410 -15.722  0.00  0.00    -0.002 C 
ATOM     28  C   UNL     1      29.820 -22.971 -15.950  0.00  0.00    -0.002 C 
ENDBRANCH  25  26
ENDBRANCH   3  25
TORSDOF 4
ENDMDL
MODEL 3
REMARK VINA RESULT:      -6.5      2.488      6.058
REMARK  Name = 5360515
REMARK  4 active torsions:
REMARK  status: ('A' for Active; 'I' for Inactive)
REMARK    1  A    between atoms: N_3  and  C_25
REMARK    2  A    between atoms: C_5  and  O_21
REMARK    3  A    between atoms: C_18  and  O_23
REMARK    4  A    between atoms: C_25  and  C_26
REMARK                            x       y       z     vdW  Elec       q    Type
REMARK                         _______ _______ _______ _____ _____    ______ ____
ROOT
ATOM      1  O   UNL     1      31.550  -5.732 -25.208  0.00  0.00    -0.469 OA
ATOM      2  O   UNL     1      34.113  -5.170 -25.868  0.00  0.00    -0.292 OA
ATOM      3  N   UNL     1      31.897  -9.732 -21.906  0.00  0.00    +0.390 N 
ATOM      4  C   UNL     1      32.248  -7.621 -23.869  0.00  0.00    +0.084 C 
ATOM      5  C   UNL     1      33.442  -8.286 -23.168  0.00  0.00    +0.079 C 
ATOM      6  C   UNL     1      32.944  -8.691 -21.739  0.00  0.00    -0.028 C 
ATOM      7  C   UNL     1      32.510  -6.835 -25.164  0.00  0.00    +0.228 C 
ATOM      8  C   UNL     1      31.097  -8.643 -24.017  0.00  0.00    -0.013 C 
ATOM      9  C   UNL     1      31.768  -6.468 -23.056  0.00  0.00    +0.016 C 
ATOM     10  C   UNL     1      34.689  -7.385 -23.174  0.00  0.00    +0.033 C 
ATOM     11  C   UNL     1      30.725  -9.299 -22.674  0.00  0.00    -0.077 C 
ATOM     12  C   UNL     1      32.495  -7.448 -20.890  0.00  0.00    +0.008 C 
ATOM     13  C   UNL     1      31.799  -6.369 -21.678  0.00  0.00    -0.025 C 
ATOM     14  C   UNL     1      35.049  -6.964 -24.599  0.00  0.00    +0.071 C 
ATOM     15  C   UNL     1      33.907  -6.211 -25.243  0.00  0.00    +0.191 C 
ATOM     16  C   UNL     1      31.322  -5.455 -23.880  0.00  0.00    +0.168 C 
ATOM     17  C   UNL     1      31.265  -5.208 -21.121  0.00  0.00    -0.001 C 
ATOM     18  C   UNL     1      30.776  -4.308 -23.351  0.00  0.00    +0.167 C 
ATOM     19  C   UNL     1      30.739  -4.195 -21.953  0.00  0.00    +0.039 C 
ATOM     20  H   UNL     1      32.359 -10.440 -22.477  0.00  0.00    -0.080 HD
ENDROOT
BRANCH   5  21
ATOM     21  O   UNL     1      33.807  -9.477 -23.885  0.00  0.00    -0.388 OA
ATOM     22  H   UNL     1      33.206  -9.599 -24.637  0.00  0.00    +0.210 HD
ENDBRANCH   5  21
BRANCH  18  23
ATOM     23  O   UNL     1      30.318  -3.307 -24.141  0.00  0.00    -0.503 OA
ATOM     24  H   UNL     1      30.795  -2.502 -24.203  0.00  0.00    +0.292 HD
ENDBRANCH  18  23
BRANCH   3  25
ATOM     25  C   UNL     1      31.510 -10.378 -20.656  0.00  0.00    -0.077 C 
BRANCH  25  26
ATOM     26  C   UNL     1      31.186 -11.822 -20.870  0.00  0.00    -0.021 C 
ATOM     27  C   UNL     1      31.969 -12.593 -21.885  0.00  0.00    -0.002 C 
ATOM     28  C   UNL     1      32.170 -12.856 -20.421  0.00  0.00    -0.002 C 
ENDBRANCH  25  26
ENDBRANCH   3  25
TORSDOF 4
ENDMDL
MODEL 4
REMARK VINA RESULT:      -6.5     17.215     18.981
REMARK  Name = 5360515
REMARK  4 active torsions:
REMARK  status: ('A' for Active; 'I' for Inactive)
REMARK    1  A    between atoms: N_3  and  C_25
REMARK    2  A    between atoms: C_5  and  O_21
REMARK    3  A    between atoms: C_18  and  O_23
REMARK    4  A    between atoms: C_25  and  C_26
REMARK                            x       y       z     vdW  Elec       q    Type
REMARK                         _______ _______ _______ _____ _____    ______ ____
ROOT
ATOM      1  O   UNL     1      38.142 -26.371 -13.717  0.00  0.00    -0.469 OA
ATOM      2  O   UNL     1      38.460 -25.497 -11.176  0.00  0.00    -0.292 OA
ATOM      3  N   UNL     1      33.856 -23.961 -15.403  0.00  0.00    +0.390 N 
ATOM      4  C   UNL     1      36.076 -25.136 -13.946  0.00  0.00    +0.084 C 
ATOM      5  C   UNL     1      35.218 -24.008 -13.351  0.00  0.00    +0.079 C 
ATOM      6  C   UNL     1      34.751 -23.127 -14.559  0.00  0.00    -0.028 C 
ATOM      7  C   UNL     1      36.936 -25.977 -12.988  0.00  0.00    +0.228 C 
ATOM      8  C   UNL     1      35.210 -26.006 -14.887  0.00  0.00    -0.013 C 
ATOM      9  C   UNL     1      37.201 -24.550 -14.728  0.00  0.00    +0.016 C 
ATOM     10  C   UNL     1      35.967 -23.234 -12.252  0.00  0.00    +0.033 C 
ATOM     11  C   UNL     1      34.486 -25.165 -15.955  0.00  0.00    -0.077 C 
ATOM     12  C   UNL     1      35.958 -22.483 -15.330  0.00  0.00    +0.008 C 
ATOM     13  C   UNL     1      37.175 -23.365 -15.437  0.00  0.00    -0.025 C 
ATOM     14  C   UNL     1      36.466 -24.182 -11.162  0.00  0.00    +0.071 C 
ATOM     15  C   UNL     1      37.399 -25.222 -11.739  0.00  0.00    +0.191 C 
ATOM     16  C   UNL     1      38.327 -25.340 -14.608  0.00  0.00    +0.168 C 
ATOM     17  C   UNL     1      38.337 -23.022 -16.128  0.00  0.00    -0.001 C 
ATOM     18  C   UNL     1      39.478 -25.028 -15.295  0.00  0.00    +0.167 C 
ATOM     19  C   UNL     1      39.472 -23.860 -16.071  0.00  0.00    +0.039 C 
ATOM     20  H   UNL     1      33.152 -24.292 -14.743  0.00  0.00    -0.080 HD
ENDROOT
BRANCH   5  21
ATOM     21  O   UNL     1      34.061 -24.579 -12.719  0.00  0.00    -0.388 OA
ATOM     22  H   UNL     1      34.318 -25.378 -12.232  0.00  0.00    +0.210 HD
ENDBRANCH   5  21
BRANCH  18  23
ATOM     23  O   UNL     1      40.591 -25.797 -15.205  0.00  0.00    -0.503 OA
ATOM     24  H   UNL     1      40.576 -26.681 -15.517  0.00  0.00    +0.292 HD
ENDBRANCH  18  23
BRANCH   3  25
ATOM     25  C   UNL     1      33.152 -23.205 -16.433  0.00  0.00    -0.077 C 
BRANCH  25  26
ATOM     26  C   UNL     1      31.681 -23.173 -16.173  0.00  0.00    -0.021 C 
ATOM     27  C   UNL     1      31.092 -24.181 -15.238  0.00  0.00    -0.002 C 
ATOM     28  C   UNL     1      31.196 -22.742 -14.825  0.00  0.00    -0.002 C 
ENDBRANCH  25  26
ENDBRANCH   3  25
TORSDOF 4
ENDMDL
