MODEL 1
REMARK VINA RESULT:      -8.9      0.000      0.000
REMARK  Name = 443405
REMARK  4 active torsions:
REMARK  status: ('A' for Active; 'I' for Inactive)
REMARK    1  A    between atoms: N_1  and  C_19
REMARK    2  A    between atoms: C_14  and  O_17
REMARK    3  A    between atoms: C_19  and  C_20
REMARK    4  A    between atoms: C_20  and  C_21
REMARK                            x       y       z     vdW  Elec       q    Type
REMARK                         _______ _______ _______ _____ _____    ______ ____
ROOT
ATOM      1  N   UNL     1      31.315  -6.308 -22.955  0.00  0.00    +0.389 N 
ATOM      2  C   UNL     1      31.548  -9.193 -22.477  0.00  0.00    +0.015 C 
ATOM      3  C   UNL     1      31.812  -8.121 -21.376  0.00  0.00    -0.015 C 
ATOM      4  C   UNL     1      32.360  -6.850 -22.061  0.00  0.00    -0.053 C 
ATOM      5  C   UNL     1      30.494  -8.597 -23.452  0.00  0.00    -0.019 C 
ATOM      6  C   UNL     1      33.723  -7.150 -22.721  0.00  0.00    +0.005 C 
ATOM      7  C   UNL     1      32.827  -9.482 -23.282  0.00  0.00    -0.024 C 
ATOM      8  C   UNL     1      30.892  -7.226 -24.014  0.00  0.00    -0.077 C 
ATOM      9  C   UNL     1      33.829  -8.494 -23.405  0.00  0.00    -0.028 C 
ATOM     10  C   UNL     1      30.947 -10.462 -21.831  0.00  0.00    +0.004 C 
ATOM     11  C   UNL     1      32.715  -8.599 -20.227  0.00  0.00    -0.002 C 
ATOM     12  C   UNL     1      33.006 -10.701 -23.962  0.00  0.00    +0.032 C 
ATOM     13  C   UNL     1      34.984  -8.758 -24.160  0.00  0.00    -0.002 C 
ATOM     14  C   UNL     1      34.156 -10.947 -24.714  0.00  0.00    +0.133 C 
ATOM     15  C   UNL     1      35.147  -9.978 -24.810  0.00  0.00    +0.036 C 
ATOM     16  H   UNL     1      30.509  -6.194 -22.341  0.00  0.00    -0.080 HD
ENDROOT
BRANCH  14  17
ATOM     17  O   UNL     1      34.304 -12.137 -25.357  0.00  0.00    -0.506 OA
ATOM     18  H   UNL     1      35.137 -12.566 -25.364  0.00  0.00    +0.292 HD
ENDBRANCH  14  17
BRANCH   1  19
ATOM     19  C   UNL     1      31.636  -4.990 -23.492  0.00  0.00    -0.072 C 
BRANCH  19  20
ATOM     20  C   UNL     1      31.293  -4.907 -24.981  0.00  0.00    +0.004 C 
BRANCH  20  21
ATOM     21  C   UNL     1      32.518  -4.639 -25.817  0.00  0.00    -0.024 C 
ATOM     22  C   UNL     1      32.608  -3.455 -26.534  0.00  0.00    -0.004 C 
ATOM     23  C   UNL     1      33.536  -5.581 -25.856  0.00  0.00    -0.004 C 
ATOM     24  C   UNL     1      33.742  -3.208 -27.308  0.00  0.00    -0.000 C 
ATOM     25  C   UNL     1      34.669  -5.332 -26.630  0.00  0.00    -0.000 C 
ATOM     26  C   UNL     1      34.772  -4.147 -27.356  0.00  0.00    -0.000 C 
ENDBRANCH  20  21
ENDBRANCH  19  20
ENDBRANCH   1  19
TORSDOF 4
ENDMDL
MODEL 2
REMARK VINA RESULT:      -7.6      8.006     10.897
REMARK  Name = 443405
REMARK  4 active torsions:
REMARK  status: ('A' for Active; 'I' for Inactive)
REMARK    1  A    between atoms: N_1  and  C_19
REMARK    2  A    between atoms: C_14  and  O_17
REMARK    3  A    between atoms: C_19  and  C_20
REMARK    4  A    between atoms: C_20  and  C_21
REMARK                            x       y       z     vdW  Elec       q    Type
REMARK                         _______ _______ _______ _____ _____    ______ ____
ROOT
ATOM      1  N   UNL     1      33.881 -16.432 -21.785  0.00  0.00    +0.389 N 
ATOM      2  C   UNL     1      35.909 -18.553 -21.791  0.00  0.00    +0.015 C 
ATOM      3  C   UNL     1      35.087 -18.154 -23.055  0.00  0.00    -0.015 C 
ATOM      4  C   UNL     1      33.699 -17.658 -22.592  0.00  0.00    -0.053 C 
ATOM      5  C   UNL     1      36.047 -17.277 -20.914  0.00  0.00    -0.019 C 
ATOM      6  C   UNL     1      32.927 -18.807 -21.907  0.00  0.00    +0.005 C 
ATOM      7  C   UNL     1      35.167 -19.617 -20.965  0.00  0.00    -0.024 C 
ATOM      8  C   UNL     1      34.701 -16.616 -20.586  0.00  0.00    -0.077 C 
ATOM      9  C   UNL     1      33.757 -19.702 -21.015  0.00  0.00    -0.028 C 
ATOM     10  C   UNL     1      37.324 -19.002 -22.216  0.00  0.00    +0.004 C 
ATOM     11  C   UNL     1      34.985 -19.256 -24.121  0.00  0.00    -0.002 C 
ATOM     12  C   UNL     1      35.856 -20.485 -20.099  0.00  0.00    +0.032 C 
ATOM     13  C   UNL     1      33.086 -20.663 -20.241  0.00  0.00    -0.002 C 
ATOM     14  C   UNL     1      35.175 -21.430 -19.330  0.00  0.00    +0.133 C 
ATOM     15  C   UNL     1      33.792 -21.523 -19.404  0.00  0.00    +0.036 C 
ATOM     16  H   UNL     1      34.412 -15.817 -22.400  0.00  0.00    -0.080 HD
ENDROOT
BRANCH  14  17
ATOM     17  O   UNL     1      35.869 -22.260 -18.504  0.00  0.00    -0.506 OA
ATOM     18  H   UNL     1      35.641 -23.167 -18.451  0.00  0.00    +0.292 HD
ENDBRANCH  14  17
BRANCH   1  19
ATOM     19  C   UNL     1      32.629 -15.751 -21.472  0.00  0.00    -0.072 C 
BRANCH  19  20
ATOM     20  C   UNL     1      32.839 -14.685 -20.395  0.00  0.00    +0.004 C 
BRANCH  20  21
ATOM     21  C   UNL     1      32.347 -13.335 -20.851  0.00  0.00    -0.024 C 
ATOM     22  C   UNL     1      32.342 -13.032 -22.205  0.00  0.00    -0.004 C 
ATOM     23  C   UNL     1      31.908 -12.416 -19.909  0.00  0.00    -0.004 C 
ATOM     24  C   UNL     1      31.888 -11.782 -22.625  0.00  0.00    -0.000 C 
ATOM     25  C   UNL     1      31.454 -11.167 -20.330  0.00  0.00    -0.000 C 
ATOM     26  C   UNL     1      31.444 -10.850 -21.688  0.00  0.00    -0.000 C 
ENDBRANCH  20  21
ENDBRANCH  19  20
ENDBRANCH   1  19
TORSDOF 4
ENDMDL
MODEL 3
REMARK VINA RESULT:      -7.2      2.861      6.854
REMARK  Name = 443405
REMARK  4 active torsions:
REMARK  status: ('A' for Active; 'I' for Inactive)
REMARK    1  A    between atoms: N_1  and  C_19
REMARK    2  A    between atoms: C_14  and  O_17
REMARK    3  A    between atoms: C_19  and  C_20
REMARK    4  A    between atoms: C_20  and  C_21
REMARK                            x       y       z     vdW  Elec       q    Type
REMARK                         _______ _______ _______ _____ _____    ______ ____
ROOT
ATOM      1  N   UNL     1      32.229 -10.056 -22.524  0.00  0.00    +0.389 N 
ATOM      2  C   UNL     1      33.963  -7.798 -23.232  0.00  0.00    +0.015 C 
ATOM      3  C   UNL     1      33.595  -8.164 -21.761  0.00  0.00    -0.015 C 
ATOM      4  C   UNL     1      32.183  -8.792 -21.759  0.00  0.00    -0.053 C 
ATOM      5  C   UNL     1      33.950  -9.121 -24.049  0.00  0.00    -0.019 C 
ATOM      6  C   UNL     1      31.141  -7.755 -22.231  0.00  0.00    +0.005 C 
ATOM      7  C   UNL     1      32.915  -6.854 -23.843  0.00  0.00    -0.024 C 
ATOM      8  C   UNL     1      32.634  -9.901 -23.922  0.00  0.00    -0.077 C 
ATOM      9  C   UNL     1      31.582  -6.868 -23.373  0.00  0.00    -0.028 C 
ATOM     10  C   UNL     1      35.393  -7.216 -23.277  0.00  0.00    +0.004 C 
ATOM     11  C   UNL     1      33.714  -6.997 -20.767  0.00  0.00    -0.002 C 
ATOM     12  C   UNL     1      33.232  -6.002 -24.918  0.00  0.00    +0.032 C 
ATOM     13  C   UNL     1      30.625  -6.018 -23.952  0.00  0.00    -0.002 C 
ATOM     14  C   UNL     1      32.270  -5.168 -25.488  0.00  0.00    +0.133 C 
ATOM     15  C   UNL     1      30.968  -5.171 -25.003  0.00  0.00    +0.036 C 
ATOM     16  H   UNL     1      32.973 -10.585 -22.070  0.00  0.00    -0.080 HD
ENDROOT
BRANCH  14  17
ATOM     17  O   UNL     1      32.607  -4.351 -26.523  0.00  0.00    -0.506 OA
ATOM     18  H   UNL     1      32.250  -4.504 -27.376  0.00  0.00    +0.292 HD
ENDBRANCH  14  17
BRANCH   1  19
ATOM     19  C   UNL     1      31.009 -10.848 -22.411  0.00  0.00    -0.072 C 
BRANCH  19  20
ATOM     20  C   UNL     1      31.086 -11.808 -21.222  0.00  0.00    +0.004 C 
BRANCH  20  21
ATOM     21  C   UNL     1      31.990 -12.979 -21.515  0.00  0.00    -0.024 C 
ATOM     22  C   UNL     1      32.525 -13.707 -20.462  0.00  0.00    -0.004 C 
ATOM     23  C   UNL     1      32.272 -13.310 -22.832  0.00  0.00    -0.004 C 
ATOM     24  C   UNL     1      33.362 -14.789 -20.734  0.00  0.00    -0.000 C 
ATOM     25  C   UNL     1      33.108 -14.392 -23.103  0.00  0.00    -0.000 C 
ATOM     26  C   UNL     1      33.653 -15.132 -22.054  0.00  0.00    -0.000 C 
ENDBRANCH  20  21
ENDBRANCH  19  20
ENDBRANCH   1  19
TORSDOF 4
ENDMDL
MODEL 4
REMARK VINA RESULT:      -7.0     10.094     14.089
REMARK  Name = 443405
REMARK  4 active torsions:
REMARK  status: ('A' for Active; 'I' for Inactive)
REMARK    1  A    between atoms: N_1  and  C_19
REMARK    2  A    between atoms: C_14  and  O_17
REMARK    3  A    between atoms: C_19  and  C_20
REMARK    4  A    between atoms: C_20  and  C_21
REMARK                            x       y       z     vdW  Elec       q    Type
REMARK                         _______ _______ _______ _____ _____    ______ ____
ROOT
ATOM      1  N   UNL     1      35.580 -19.668 -20.302  0.00  0.00    +0.389 N 
ATOM      2  C   UNL     1      34.206 -17.296 -21.347  0.00  0.00    +0.015 C 
ATOM      3  C   UNL     1      33.469 -18.449 -20.600  0.00  0.00    -0.015 C 
ATOM      4  C   UNL     1      34.223 -19.767 -20.882  0.00  0.00    -0.053 C 
ATOM      5  C   UNL     1      35.652 -17.233 -20.779  0.00  0.00    -0.019 C 
ATOM      6  C   UNL     1      34.157 -20.103 -22.388  0.00  0.00    +0.005 C 
ATOM      7  C   UNL     1      34.302 -17.589 -22.854  0.00  0.00    -0.024 C 
ATOM      8  C   UNL     1      36.390 -18.577 -20.846  0.00  0.00    -0.077 C 
ATOM      9  C   UNL     1      34.303 -18.923 -23.321  0.00  0.00    -0.028 C 
ATOM     10  C   UNL     1      33.508 -15.952 -21.041  0.00  0.00    +0.004 C 
ATOM     11  C   UNL     1      31.969 -18.556 -20.918  0.00  0.00    -0.002 C 
ATOM     12  C   UNL     1      34.452 -16.554 -23.795  0.00  0.00    +0.032 C 
ATOM     13  C   UNL     1      34.413 -19.183 -24.698  0.00  0.00    -0.002 C 
ATOM     14  C   UNL     1      34.567 -16.827 -25.158  0.00  0.00    +0.133 C 
ATOM     15  C   UNL     1      34.543 -18.140 -25.611  0.00  0.00    +0.036 C 
ATOM     16  H   UNL     1      35.406 -19.433 -19.325  0.00  0.00    -0.080 HD
ENDROOT
BRANCH  14  17
ATOM     17  O   UNL     1      34.707 -15.805 -26.046  0.00  0.00    -0.506 OA
ATOM     18  H   UNL     1      34.851 -15.989 -26.954  0.00  0.00    +0.292 HD
ENDBRANCH  14  17
BRANCH   1  19
ATOM     19  C   UNL     1      36.311 -20.930 -20.316  0.00  0.00    -0.072 C 
BRANCH  19  20
ATOM     20  C   UNL     1      36.792 -21.301 -18.912  0.00  0.00    +0.004 C 
BRANCH  20  21
ATOM     21  C   UNL     1      35.724 -22.029 -18.136  0.00  0.00    -0.024 C 
ATOM     22  C   UNL     1      35.968 -22.396 -16.821  0.00  0.00    -0.004 C 
ATOM     23  C   UNL     1      34.515 -22.320 -18.750  0.00  0.00    -0.004 C 
ATOM     24  C   UNL     1      34.980 -23.071 -16.104  0.00  0.00    -0.000 C 
ATOM     25  C   UNL     1      33.527 -22.994 -18.032  0.00  0.00    -0.000 C 
ATOM     26  C   UNL     1      33.759 -23.369 -16.710  0.00  0.00    -0.000 C 
ENDBRANCH  20  21
ENDBRANCH  19  20
ENDBRANCH   1  19
TORSDOF 4
ENDMDL
MODEL 5
REMARK VINA RESULT:      -6.9      7.968     10.703
REMARK  Name = 443405
REMARK  4 active torsions:
REMARK  status: ('A' for Active; 'I' for Inactive)
REMARK    1  A    between atoms: N_1  and  C_19
REMARK    2  A    between atoms: C_14  and  O_17
REMARK    3  A    between atoms: C_19  and  C_20
REMARK    4  A    between atoms: C_20  and  C_21
REMARK                            x       y       z     vdW  Elec       q    Type
REMARK                         _______ _______ _______ _____ _____    ______ ____
ROOT
ATOM      1  N   UNL     1      33.986 -16.362 -21.901  0.00  0.00    +0.389 N 
ATOM      2  C   UNL     1      35.933 -18.552 -21.771  0.00  0.00    +0.015 C 
ATOM      3  C   UNL     1      35.216 -18.125 -23.088  0.00  0.00    -0.015 C 
ATOM      4  C   UNL     1      33.817 -17.581 -22.721  0.00  0.00    -0.053 C 
ATOM      5  C   UNL     1      36.054 -17.281 -20.884  0.00  0.00    -0.019 C 
ATOM      6  C   UNL     1      32.960 -18.702 -22.094  0.00  0.00    +0.005 C 
ATOM      7  C   UNL     1      35.099 -19.589 -21.001  0.00  0.00    -0.024 C 
ATOM      8  C   UNL     1      34.713 -16.574 -20.649  0.00  0.00    -0.077 C 
ATOM      9  C   UNL     1      33.694 -19.626 -21.149  0.00  0.00    -0.028 C 
ATOM     10  C   UNL     1      37.359 -19.051 -22.097  0.00  0.00    +0.004 C 
ATOM     11  C   UNL     1      35.150 -19.224 -24.161  0.00  0.00    -0.002 C 
ATOM     12  C   UNL     1      35.696 -20.481 -20.090  0.00  0.00    +0.032 C 
ATOM     13  C   UNL     1      32.938 -20.563 -20.425  0.00  0.00    -0.002 C 
ATOM     14  C   UNL     1      34.931 -21.402 -19.373  0.00  0.00    +0.133 C 
ATOM     15  C   UNL     1      33.553 -21.446 -19.543  0.00  0.00    +0.036 C 
ATOM     16  H   UNL     1      34.579 -15.766 -22.477  0.00  0.00    -0.080 HD
ENDROOT
BRANCH  14  17
ATOM     17  O   UNL     1      35.536 -22.255 -18.502  0.00  0.00    -0.506 OA
ATOM     18  H   UNL     1      36.066 -21.917 -17.807  0.00  0.00    +0.292 HD
ENDBRANCH  14  17
BRANCH   1  19
ATOM     19  C   UNL     1      32.739 -15.638 -21.675  0.00  0.00    -0.072 C 
BRANCH  19  20
ATOM     20  C   UNL     1      32.962 -14.126 -21.753  0.00  0.00    +0.004 C 
BRANCH  20  21
ATOM     21  C   UNL     1      33.158 -13.669 -23.176  0.00  0.00    -0.024 C 
ATOM     22  C   UNL     1      33.619 -12.383 -23.421  0.00  0.00    -0.004 C 
ATOM     23  C   UNL     1      32.873 -14.539 -24.217  0.00  0.00    -0.004 C 
ATOM     24  C   UNL     1      33.799 -11.960 -24.738  0.00  0.00    -0.000 C 
ATOM     25  C   UNL     1      33.054 -14.115 -25.533  0.00  0.00    -0.000 C 
ATOM     26  C   UNL     1      33.516 -12.826 -25.794  0.00  0.00    -0.000 C 
ENDBRANCH  20  21
ENDBRANCH  19  20
ENDBRANCH   1  19
TORSDOF 4
ENDMDL
MODEL 6
REMARK VINA RESULT:      -6.9      3.341      7.284
REMARK  Name = 443405
REMARK  4 active torsions:
REMARK  status: ('A' for Active; 'I' for Inactive)
REMARK    1  A    between atoms: N_1  and  C_19
REMARK    2  A    between atoms: C_14  and  O_17
REMARK    3  A    between atoms: C_19  and  C_20
REMARK    4  A    between atoms: C_20  and  C_21
REMARK                            x       y       z     vdW  Elec       q    Type
REMARK                         _______ _______ _______ _____ _____    ______ ____
ROOT
ATOM      1  N   UNL     1      32.317  -9.941 -23.188  0.00  0.00    +0.389 N 
ATOM      2  C   UNL     1      32.565  -7.187 -24.169  0.00  0.00    +0.015 C 
ATOM      3  C   UNL     1      33.791  -8.065 -23.772  0.00  0.00    -0.015 C 
ATOM      4  C   UNL     1      33.350  -9.030 -22.649  0.00  0.00    -0.053 C 
ATOM      5  C   UNL     1      31.457  -8.151 -24.677  0.00  0.00    -0.019 C 
ATOM      6  C   UNL     1      32.954  -8.230 -21.389  0.00  0.00    +0.005 C 
ATOM      7  C   UNL     1      32.013  -6.431 -22.949  0.00  0.00    -0.024 C 
ATOM      8  C   UNL     1      31.115  -9.265 -23.678  0.00  0.00    -0.077 C 
ATOM      9  C   UNL     1      32.185  -6.955 -21.648  0.00  0.00    -0.028 C 
ATOM     10  C   UNL     1      32.957  -6.246 -25.330  0.00  0.00    +0.004 C 
ATOM     11  C   UNL     1      35.050  -7.268 -23.394  0.00  0.00    -0.002 C 
ATOM     12  C   UNL     1      31.274  -5.242 -23.095  0.00  0.00    +0.032 C 
ATOM     13  C   UNL     1      31.657  -6.269 -20.541  0.00  0.00    -0.002 C 
ATOM     14  C   UNL     1      30.750  -4.575 -21.987  0.00  0.00    +0.133 C 
ATOM     15  C   UNL     1      30.945  -5.085 -20.710  0.00  0.00    +0.036 C 
ATOM     16  H   UNL     1      32.764 -10.354 -24.006  0.00  0.00    -0.080 HD
ENDROOT
BRANCH  14  17
ATOM     17  O   UNL     1      30.043  -3.425 -22.159  0.00  0.00    -0.506 OA
ATOM     18  H   UNL     1      30.483  -2.638 -22.415  0.00  0.00    +0.292 HD
ENDBRANCH  14  17
BRANCH   1  19
ATOM     19  C   UNL     1      31.979 -11.035 -22.284  0.00  0.00    -0.072 C 
BRANCH  19  20
ATOM     20  C   UNL     1      31.944 -12.370 -23.029  0.00  0.00    +0.004 C 
BRANCH  20  21
ATOM     21  C   UNL     1      32.736 -13.429 -22.305  0.00  0.00    -0.024 C 
ATOM     22  C   UNL     1      33.839 -13.999 -22.926  0.00  0.00    -0.004 C 
ATOM     23  C   UNL     1      32.351 -13.817 -21.030  0.00  0.00    -0.004 C 
ATOM     24  C   UNL     1      34.571 -14.979 -22.256  0.00  0.00    -0.000 C 
ATOM     25  C   UNL     1      33.084 -14.796 -20.361  0.00  0.00    -0.000 C 
ATOM     26  C   UNL     1      34.193 -15.377 -20.973  0.00  0.00    -0.000 C 
ENDBRANCH  20  21
ENDBRANCH  19  20
ENDBRANCH   1  19
TORSDOF 4
ENDMDL
MODEL 7
REMARK VINA RESULT:      -6.8      9.935     13.892
REMARK  Name = 443405
REMARK  4 active torsions:
REMARK  status: ('A' for Active; 'I' for Inactive)
REMARK    1  A    between atoms: N_1  and  C_19
REMARK    2  A    between atoms: C_14  and  O_17
REMARK    3  A    between atoms: C_19  and  C_20
REMARK    4  A    between atoms: C_20  and  C_21
REMARK                            x       y       z     vdW  Elec       q    Type
REMARK                         _______ _______ _______ _____ _____    ______ ____
ROOT
ATOM      1  N   UNL     1      34.292 -20.159 -21.075  0.00  0.00    +0.389 N 
ATOM      2  C   UNL     1      34.829 -18.266 -23.252  0.00  0.00    +0.015 C 
ATOM      3  C   UNL     1      35.944 -19.108 -22.558  0.00  0.00    -0.015 C 
ATOM      4  C   UNL     1      35.526 -19.344 -21.089  0.00  0.00    -0.053 C 
ATOM      5  C   UNL     1      33.518 -19.098 -23.181  0.00  0.00    -0.019 C 
ATOM      6  C   UNL     1      35.455 -17.999 -20.336  0.00  0.00    +0.005 C 
ATOM      7  C   UNL     1      34.592 -16.944 -22.503  0.00  0.00    -0.024 C 
ATOM      8  C   UNL     1      33.154 -19.541 -21.758  0.00  0.00    -0.077 C 
ATOM      9  C   UNL     1      34.870 -16.847 -21.121  0.00  0.00    -0.028 C 
ATOM     10  C   UNL     1      35.189 -18.057 -24.739  0.00  0.00    +0.004 C 
ATOM     11  C   UNL     1      37.356 -18.511 -22.673  0.00  0.00    -0.002 C 
ATOM     12  C   UNL     1      34.039 -15.823 -23.151  0.00  0.00    +0.032 C 
ATOM     13  C   UNL     1      34.629 -15.642 -20.440  0.00  0.00    -0.002 C 
ATOM     14  C   UNL     1      33.799 -14.635 -22.460  0.00  0.00    +0.133 C 
ATOM     15  C   UNL     1      34.098 -14.541 -21.107  0.00  0.00    +0.036 C 
ATOM     16  H   UNL     1      34.541 -20.981 -21.626  0.00  0.00    -0.080 HD
ENDROOT
BRANCH  14  17
ATOM     17  O   UNL     1      33.268 -13.565 -23.114  0.00  0.00    -0.506 OA
ATOM     18  H   UNL     1      32.612 -13.041 -22.699  0.00  0.00    +0.292 HD
ENDBRANCH  14  17
BRANCH   1  19
ATOM     19  C   UNL     1      33.922 -20.629 -19.745  0.00  0.00    -0.072 C 
BRANCH  19  20
ATOM     20  C   UNL     1      34.387 -22.069 -19.523  0.00  0.00    +0.004 C 
BRANCH  20  21
ATOM     21  C   UNL     1      35.174 -22.205 -18.244  0.00  0.00    -0.024 C 
ATOM     22  C   UNL     1      36.444 -21.652 -18.163  0.00  0.00    -0.004 C 
ATOM     23  C   UNL     1      34.617 -22.882 -17.169  0.00  0.00    -0.004 C 
ATOM     24  C   UNL     1      37.172 -21.779 -16.980  0.00  0.00    -0.000 C 
ATOM     25  C   UNL     1      35.345 -23.008 -15.987  0.00  0.00    -0.000 C 
ATOM     26  C   UNL     1      36.622 -22.458 -15.892  0.00  0.00    -0.000 C 
ENDBRANCH  20  21
ENDBRANCH  19  20
ENDBRANCH   1  19
TORSDOF 4
ENDMDL
MODEL 8
REMARK VINA RESULT:      -6.6      3.053      6.505
REMARK  Name = 443405
REMARK  4 active torsions:
REMARK  status: ('A' for Active; 'I' for Inactive)
REMARK    1  A    between atoms: N_1  and  C_19
REMARK    2  A    between atoms: C_14  and  O_17
REMARK    3  A    between atoms: C_19  and  C_20
REMARK    4  A    between atoms: C_20  and  C_21
REMARK                            x       y       z     vdW  Elec       q    Type
REMARK                         _______ _______ _______ _____ _____    ______ ____
ROOT
ATOM      1  N   UNL     1      33.862  -9.729 -23.189  0.00  0.00    +0.389 N 
ATOM      2  C   UNL     1      33.037  -7.415 -21.584  0.00  0.00    +0.015 C 
ATOM      3  C   UNL     1      32.540  -8.868 -21.307  0.00  0.00    -0.015 C 
ATOM      4  C   UNL     1      32.488  -9.625 -22.653  0.00  0.00    -0.053 C 
ATOM      5  C   UNL     1      34.457  -7.529 -22.205  0.00  0.00    -0.019 C 
ATOM      6  C   UNL     1      31.447  -8.972 -23.587  0.00  0.00    +0.005 C 
ATOM      7  C   UNL     1      32.129  -6.708 -22.604  0.00  0.00    -0.024 C 
ATOM      8  C   UNL     1      34.511  -8.440 -23.438  0.00  0.00    -0.077 C 
ATOM      9  C   UNL     1      31.408  -7.461 -23.557  0.00  0.00    -0.028 C 
ATOM     10  C   UNL     1      33.153  -6.646 -20.249  0.00  0.00    +0.004 C 
ATOM     11  C   UNL     1      31.210  -8.949 -20.540  0.00  0.00    -0.002 C 
ATOM     12  C   UNL     1      32.040  -5.305 -22.657  0.00  0.00    +0.032 C 
ATOM     13  C   UNL     1      30.597  -6.805 -24.500  0.00  0.00    -0.002 C 
ATOM     14  C   UNL     1      31.237  -4.667 -23.603  0.00  0.00    +0.133 C 
ATOM     15  C   UNL     1      30.512  -5.416 -24.521  0.00  0.00    +0.036 C 
ATOM     16  H   UNL     1      34.383 -10.166 -22.430  0.00  0.00    -0.080 HD
ENDROOT
BRANCH  14  17
ATOM     17  O   UNL     1      31.166  -3.308 -23.628  0.00  0.00    -0.506 OA
ATOM     18  H   UNL     1      30.577  -2.880 -24.218  0.00  0.00    +0.292 HD
ENDBRANCH  14  17
BRANCH   1  19
ATOM     19  C   UNL     1      33.968 -10.609 -24.347  0.00  0.00    -0.072 C 
BRANCH  19  20
ATOM     20  C   UNL     1      33.936 -12.079 -23.923  0.00  0.00    +0.004 C 
BRANCH  20  21
ATOM     21  C   UNL     1      33.583 -12.980 -25.079  0.00  0.00    -0.024 C 
ATOM     22  C   UNL     1      33.305 -14.318 -24.839  0.00  0.00    -0.004 C 
ATOM     23  C   UNL     1      33.542 -12.458 -26.363  0.00  0.00    -0.004 C 
ATOM     24  C   UNL     1      32.980 -15.152 -25.909  0.00  0.00    -0.000 C 
ATOM     25  C   UNL     1      33.216 -13.292 -27.432  0.00  0.00    -0.000 C 
ATOM     26  C   UNL     1      32.936 -14.638 -27.206  0.00  0.00    -0.000 C 
ENDBRANCH  20  21
ENDBRANCH  19  20
ENDBRANCH   1  19
TORSDOF 4
ENDMDL
MODEL 9
REMARK VINA RESULT:      -6.5      0.994      1.612
REMARK  Name = 443405
REMARK  4 active torsions:
REMARK  status: ('A' for Active; 'I' for Inactive)
REMARK    1  A    between atoms: N_1  and  C_19
REMARK    2  A    between atoms: C_14  and  O_17
REMARK    3  A    between atoms: C_19  and  C_20
REMARK    4  A    between atoms: C_20  and  C_21
REMARK                            x       y       z     vdW  Elec       q    Type
REMARK                         _______ _______ _______ _____ _____    ______ ____
ROOT
ATOM      1  N   UNL     1      31.767  -6.449 -23.549  0.00  0.00    +0.389 N 
ATOM      2  C   UNL     1      31.552  -9.201 -22.553  0.00  0.00    +0.015 C 
ATOM      3  C   UNL     1      31.988  -8.000 -21.658  0.00  0.00    -0.015 C 
ATOM      4  C   UNL     1      32.722  -6.974 -22.550  0.00  0.00    -0.053 C 
ATOM      5  C   UNL     1      30.596  -8.636 -23.641  0.00  0.00    -0.019 C 
ATOM      6  C   UNL     1      34.017  -7.596 -23.116  0.00  0.00    +0.005 C 
ATOM      7  C   UNL     1      32.764  -9.824 -23.264  0.00  0.00    -0.024 C 
ATOM      8  C   UNL     1      31.198  -7.468 -24.433  0.00  0.00    -0.077 C 
ATOM      9  C   UNL     1      33.907  -9.042 -23.544  0.00  0.00    -0.028 C 
ATOM     10  C   UNL     1      30.766 -10.222 -21.701  0.00  0.00    +0.004 C 
ATOM     11  C   UNL     1      32.814  -8.394 -20.423  0.00  0.00    -0.002 C 
ATOM     12  C   UNL     1      32.747 -11.159 -23.709  0.00  0.00    +0.032 C 
ATOM     13  C   UNL     1      35.001  -9.614 -24.214  0.00  0.00    -0.002 C 
ATOM     14  C   UNL     1      33.838 -11.713 -24.379  0.00  0.00    +0.133 C 
ATOM     15  C   UNL     1      34.967 -10.943 -24.628  0.00  0.00    +0.036 C 
ATOM     16  H   UNL     1      30.993  -6.103 -22.982  0.00  0.00    -0.080 HD
ENDROOT
BRANCH  14  17
ATOM     17  O   UNL     1      33.795 -13.009 -24.794  0.00  0.00    -0.506 OA
ATOM     18  H   UNL     1      34.268 -13.272 -25.558  0.00  0.00    +0.292 HD
ENDBRANCH  14  17
BRANCH   1  19
ATOM     19  C   UNL     1      32.285  -5.317 -24.309  0.00  0.00    -0.072 C 
BRANCH  19  20
ATOM     20  C   UNL     1      31.145  -4.445 -24.839  0.00  0.00    +0.004 C 
BRANCH  20  21
ATOM     21  C   UNL     1      31.560  -3.679 -26.068  0.00  0.00    -0.024 C 
ATOM     22  C   UNL     1      32.870  -3.771 -26.519  0.00  0.00    -0.004 C 
ATOM     23  C   UNL     1      30.628  -2.893 -26.730  0.00  0.00    -0.004 C 
ATOM     24  C   UNL     1      33.254  -3.061 -27.656  0.00  0.00    -0.000 C 
ATOM     25  C   UNL     1      31.014  -2.184 -27.867  0.00  0.00    -0.000 C 
ATOM     26  C   UNL     1      32.325  -2.267 -28.330  0.00  0.00    -0.000 C 
ENDBRANCH  20  21
ENDBRANCH  19  20
ENDBRANCH   1  19
TORSDOF 4
ENDMDL
