MODEL 1
REMARK VINA RESULT:      -6.7      0.000      0.000
REMARK  Name = 6654
REMARK  0 active torsions:
REMARK  status: ('A' for Active; 'I' for Inactive)
REMARK                            x       y       z     vdW  Elec       q    Type
REMARK                         _______ _______ _______ _____ _____    ______ ____
ROOT
ATOM      1  C   UNL     1      34.945 -17.354 -22.229  0.00  0.00    +0.004 C 
ATOM      2  C   UNL     1      36.186 -18.276 -22.459  0.00  0.00    +0.005 C 
ATOM      3  C   UNL     1      34.118 -18.672 -22.415  0.00  0.00    +0.018 C 
ATOM      4  C   UNL     1      35.248 -19.066 -23.427  0.00  0.00    +0.004 C 
ATOM      5  C   UNL     1      36.576 -19.082 -21.207  0.00  0.00    +0.025 C 
ATOM      6  C   UNL     1      34.132 -19.532 -21.183  0.00  0.00    -0.048 C 
ATOM      7  C   UNL     1      34.722 -16.319 -23.322  0.00  0.00    +0.000 C 
ATOM      8  C   UNL     1      34.843 -16.648 -20.892  0.00  0.00    +0.000 C 
ATOM      9  C   UNL     1      35.339 -19.716 -20.615  0.00  0.00    -0.035 C 
ATOM     10  C   UNL     1      32.852 -20.108 -20.682  0.00  0.00    +0.026 C 
ENDROOT
TORSDOF 0
ENDMDL
MODEL 2
REMARK VINA RESULT:      -6.4      0.940      3.266
REMARK  Name = 6654
REMARK  0 active torsions:
REMARK  status: ('A' for Active; 'I' for Inactive)
REMARK                            x       y       z     vdW  Elec       q    Type
REMARK                         _______ _______ _______ _____ _____    ______ ____
ROOT
ATOM      1  C   UNL     1      34.768 -19.398 -21.134  0.00  0.00    +0.004 C 
ATOM      2  C   UNL     1      35.415 -19.308 -22.553  0.00  0.00    +0.005 C 
ATOM      3  C   UNL     1      35.515 -18.045 -20.871  0.00  0.00    +0.018 C 
ATOM      4  C   UNL     1      36.618 -18.640 -21.812  0.00  0.00    +0.004 C 
ATOM      5  C   UNL     1      34.674 -18.340 -23.492  0.00  0.00    +0.025 C 
ATOM      6  C   UNL     1      34.808 -16.874 -21.490  0.00  0.00    -0.048 C 
ATOM      7  C   UNL     1      35.267 -20.561 -20.289  0.00  0.00    +0.000 C 
ATOM      8  C   UNL     1      33.254 -19.386 -21.059  0.00  0.00    +0.000 C 
ATOM      9  C   UNL     1      34.410 -17.042 -22.765  0.00  0.00    -0.035 C 
ATOM     10  C   UNL     1      34.597 -15.640 -20.683  0.00  0.00    +0.026 C 
ENDROOT
TORSDOF 0
ENDMDL
MODEL 3
REMARK VINA RESULT:      -6.1      1.021      3.236
REMARK  Name = 6654
REMARK  0 active torsions:
REMARK  status: ('A' for Active; 'I' for Inactive)
REMARK                            x       y       z     vdW  Elec       q    Type
REMARK                         _______ _______ _______ _____ _____    ______ ____
ROOT
ATOM      1  C   UNL     1      35.917 -19.051 -21.408  0.00  0.00    +0.004 C 
ATOM      2  C   UNL     1      34.996 -17.881 -20.934  0.00  0.00    +0.005 C 
ATOM      3  C   UNL     1      34.737 -19.387 -22.383  0.00  0.00    +0.018 C 
ATOM      4  C   UNL     1      33.822 -18.871 -21.220  0.00  0.00    +0.004 C 
ATOM      5  C   UNL     1      35.015 -16.676 -21.891  0.00  0.00    +0.025 C 
ATOM      6  C   UNL     1      34.708 -18.476 -23.578  0.00  0.00    -0.048 C 
ATOM      7  C   UNL     1      36.174 -20.115 -20.350  0.00  0.00    +0.000 C 
ATOM      8  C   UNL     1      37.250 -18.679 -22.026  0.00  0.00    +0.000 C 
ATOM      9  C   UNL     1      34.844 -17.163 -23.312  0.00  0.00    -0.035 C 
ATOM     10  C   UNL     1      34.537 -19.062 -24.937  0.00  0.00    +0.026 C 
ENDROOT
TORSDOF 0
ENDMDL
MODEL 4
REMARK VINA RESULT:      -6.0      0.945      2.626
REMARK  Name = 6654
REMARK  0 active torsions:
REMARK  status: ('A' for Active; 'I' for Inactive)
REMARK                            x       y       z     vdW  Elec       q    Type
REMARK                         _______ _______ _______ _____ _____    ______ ____
ROOT
ATOM      1  C   UNL     1      34.982 -18.180 -22.725  0.00  0.00    +0.004 C 
ATOM      2  C   UNL     1      33.835 -17.927 -21.693  0.00  0.00    +0.005 C 
ATOM      3  C   UNL     1      35.896 -18.291 -21.457  0.00  0.00    +0.018 C 
ATOM      4  C   UNL     1      34.938 -17.208 -20.851  0.00  0.00    +0.004 C 
ATOM      5  C   UNL     1      33.322 -19.220 -21.035  0.00  0.00    +0.025 C 
ATOM      6  C   UNL     1      35.761 -19.620 -20.770  0.00  0.00    -0.048 C 
ATOM      7  C   UNL     1      35.296 -16.989 -23.618  0.00  0.00    +0.000 C 
ATOM      8  C   UNL     1      34.862 -19.405 -23.608  0.00  0.00    +0.000 C 
ATOM      9  C   UNL     1      34.499 -20.049 -20.577  0.00  0.00    -0.035 C 
ATOM     10  C   UNL     1      36.989 -20.357 -20.361  0.00  0.00    +0.026 C 
ENDROOT
TORSDOF 0
ENDMDL
MODEL 5
REMARK VINA RESULT:      -6.0      9.171     11.467
REMARK  Name = 6654
REMARK  0 active torsions:
REMARK  status: ('A' for Active; 'I' for Inactive)
REMARK                            x       y       z     vdW  Elec       q    Type
REMARK                         _______ _______ _______ _____ _____    ______ ____
ROOT
ATOM      1  C   UNL     1      33.521  -8.474 -23.297  0.00  0.00    +0.004 C 
ATOM      2  C   UNL     1      32.753  -8.620 -21.944  0.00  0.00    +0.005 C 
ATOM      3  C   UNL     1      32.151  -7.946 -23.847  0.00  0.00    +0.018 C 
ATOM      4  C   UNL     1      31.520  -8.967 -22.839  0.00  0.00    +0.004 C 
ATOM      5  C   UNL     1      32.596  -7.285 -21.195  0.00  0.00    +0.025 C 
ATOM      6  C   UNL     1      31.891  -6.520 -23.451  0.00  0.00    -0.048 C 
ATOM      7  C   UNL     1      33.970  -9.793 -23.908  0.00  0.00    +0.000 C 
ATOM      8  C   UNL     1      34.700  -7.523 -23.327  0.00  0.00    +0.000 C 
ATOM      9  C   UNL     1      32.114  -6.225 -22.157  0.00  0.00    -0.035 C 
ATOM     10  C   UNL     1      31.418  -5.553 -24.482  0.00  0.00    +0.026 C 
ENDROOT
TORSDOF 0
ENDMDL
MODEL 6
REMARK VINA RESULT:      -5.9      9.769     11.433
REMARK  Name = 6654
REMARK  0 active torsions:
REMARK  status: ('A' for Active; 'I' for Inactive)
REMARK                            x       y       z     vdW  Elec       q    Type
REMARK                         _______ _______ _______ _____ _____    ______ ____
ROOT
ATOM      1  C   UNL     1      33.034  -7.049 -23.733  0.00  0.00    +0.004 C 
ATOM      2  C   UNL     1      31.947  -8.150 -23.953  0.00  0.00    +0.005 C 
ATOM      3  C   UNL     1      32.179  -6.665 -22.477  0.00  0.00    +0.018 C 
ATOM      4  C   UNL     1      30.957  -7.097 -23.359  0.00  0.00    +0.004 C 
ATOM      5  C   UNL     1      32.140  -9.376 -23.043  0.00  0.00    +0.025 C 
ATOM      6  C   UNL     1      32.408  -7.601 -21.324  0.00  0.00    -0.048 C 
ATOM      7  C   UNL     1      33.069  -5.979 -24.814  0.00  0.00    +0.000 C 
ATOM      8  C   UNL     1      34.456  -7.516 -23.495  0.00  0.00    +0.000 C 
ATOM      9  C   UNL     1      32.384  -8.912 -21.625  0.00  0.00    -0.035 C 
ATOM     10  C   UNL     1      32.642  -7.037 -19.965  0.00  0.00    +0.026 C 
ENDROOT
TORSDOF 0
ENDMDL
MODEL 7
REMARK VINA RESULT:      -5.8      9.510     11.569
REMARK  Name = 6654
REMARK  0 active torsions:
REMARK  status: ('A' for Active; 'I' for Inactive)
REMARK                            x       y       z     vdW  Elec       q    Type
REMARK                         _______ _______ _______ _____ _____    ______ ____
ROOT
ATOM      1  C   UNL     1      31.585  -6.441 -22.235  0.00  0.00    +0.004 C 
ATOM      2  C   UNL     1      32.533  -6.289 -23.468  0.00  0.00    +0.005 C 
ATOM      3  C   UNL     1      31.076  -7.727 -22.973  0.00  0.00    +0.018 C 
ATOM      4  C   UNL     1      31.351  -6.908 -24.281  0.00  0.00    +0.004 C 
ATOM      5  C   UNL     1      33.763  -7.212 -23.398  0.00  0.00    +0.025 C 
ATOM      6  C   UNL     1      32.020  -8.885 -22.817  0.00  0.00    -0.048 C 
ATOM      7  C   UNL     1      30.542  -5.341 -22.107  0.00  0.00    +0.000 C 
ATOM      8  C   UNL     1      32.235  -6.625 -20.879  0.00  0.00    +0.000 C 
ATOM      9  C   UNL     1      33.320  -8.609 -23.029  0.00  0.00    -0.035 C 
ATOM     10  C   UNL     1      31.477 -10.223 -22.449  0.00  0.00    +0.026 C 
ENDROOT
TORSDOF 0
ENDMDL
MODEL 8
REMARK VINA RESULT:      -5.7      9.720     11.608
REMARK  Name = 6654
REMARK  0 active torsions:
REMARK  status: ('A' for Active; 'I' for Inactive)
REMARK                            x       y       z     vdW  Elec       q    Type
REMARK                         _______ _______ _______ _____ _____    ______ ____
ROOT
ATOM      1  C   UNL     1      32.282  -7.763 -21.697  0.00  0.00    +0.004 C 
ATOM      2  C   UNL     1      31.213  -8.340 -22.680  0.00  0.00    +0.005 C 
ATOM      3  C   UNL     1      33.311  -8.191 -22.798  0.00  0.00    +0.018 C 
ATOM      4  C   UNL     1      32.319  -9.378 -23.056  0.00  0.00    +0.004 C 
ATOM      5  C   UNL     1      30.874  -7.378 -23.832  0.00  0.00    +0.025 C 
ATOM      6  C   UNL     1      33.352  -7.224 -23.947  0.00  0.00    -0.048 C 
ATOM      7  C   UNL     1      32.411  -8.532 -20.390  0.00  0.00    +0.000 C 
ATOM      8  C   UNL     1      32.190  -6.288 -21.361  0.00  0.00    +0.000 C 
ATOM      9  C   UNL     1      32.154  -6.844 -24.431  0.00  0.00    -0.035 C 
ATOM     10  C   UNL     1      34.670  -6.758 -24.461  0.00  0.00    +0.026 C 
ENDROOT
TORSDOF 0
ENDMDL
MODEL 9
REMARK VINA RESULT:      -5.7      9.506     11.424
REMARK  Name = 6654
REMARK  0 active torsions:
REMARK  status: ('A' for Active; 'I' for Inactive)
REMARK                            x       y       z     vdW  Elec       q    Type
REMARK                         _______ _______ _______ _____ _____    ______ ____
ROOT
ATOM      1  C   UNL     1      31.523  -7.086 -22.537  0.00  0.00    +0.004 C 
ATOM      2  C   UNL     1      31.664  -8.373 -21.661  0.00  0.00    +0.005 C 
ATOM      3  C   UNL     1      33.076  -6.975 -22.360  0.00  0.00    +0.018 C 
ATOM      4  C   UNL     1      32.812  -7.592 -20.944  0.00  0.00    +0.004 C 
ATOM      5  C   UNL     1      32.169  -9.589 -22.458  0.00  0.00    +0.025 C 
ATOM      6  C   UNL     1      33.822  -7.917 -23.262  0.00  0.00    -0.048 C 
ATOM      7  C   UNL     1      30.738  -5.962 -21.878  0.00  0.00    +0.000 C 
ATOM      8  C   UNL     1      30.991  -7.260 -23.945  0.00  0.00    +0.000 C 
ATOM      9  C   UNL     1      33.361  -9.181 -23.291  0.00  0.00    -0.035 C 
ATOM     10  C   UNL     1      34.984  -7.409 -24.044  0.00  0.00    +0.026 C 
ENDROOT
TORSDOF 0
ENDMDL
