MODEL 1
REMARK VINA RESULT:     -11.4      0.000      0.000
REMARK  Name = 24832041
REMARK  6 active torsions:
REMARK  status: ('A' for Active; 'I' for Inactive)
REMARK    1  A    between atoms: C_1  and  C_18
REMARK    2  A    between atoms: C_4  and  C_7
REMARK    3  A    between atoms: C_10  and  C_15
REMARK    4  A    between atoms: C_18  and  N_19
REMARK    5  A    between atoms: C_18  and  C_23
REMARK    6  A    between atoms: C_23  and  C_26
REMARK                            x       y       z     vdW  Elec       q    Type
REMARK                         _______ _______ _______ _____ _____    ______ ____
ROOT
ATOM      1  C   UNL     1      34.519 -19.516 -21.784  0.00  0.00    -0.042 C 
ATOM      2  C   UNL     1      35.722 -20.009 -21.280  0.00  0.00    -0.006 C 
ATOM      3  C   UNL     1      33.315 -19.848 -21.162  0.00  0.00    -0.006 C 
ATOM      4  C   UNL     1      34.519 -21.166 -19.533  0.00  0.00    -0.000 C 
ATOM      5  C   UNL     1      35.723 -20.833 -20.155  0.00  0.00    -0.000 C 
ATOM      6  C   UNL     1      33.315 -20.673 -20.038  0.00  0.00    -0.000 C 
ENDROOT
BRANCH   4   7
ATOM      7  C   UNL     1      34.519 -22.020 -18.367  0.00  0.00    +0.000 C 
ATOM      8  C   UNL     1      35.688 -22.183 -17.622  0.00  0.00    +0.005 C 
ATOM      9  C   UNL     1      33.352 -22.681 -17.986  0.00  0.00    +0.000 C 
ATOM     10  C   UNL     1      35.689 -23.007 -16.497  0.00  0.00    +0.053 C 
ATOM     11  C   UNL     1      33.353 -23.506 -16.861  0.00  0.00    +0.000 C 
ATOM     12  C   UNL     1      34.521 -23.669 -16.116  0.00  0.00    +0.005 C 
BRANCH  10  15
ATOM     13  O   UNL     1      37.587 -22.199 -15.360  0.00  0.00    -0.270 OA
ATOM     14  N   UNL     1      37.277 -24.470 -15.370  0.00  0.00    -0.325 N 
ATOM     15  C   UNL     1      36.906 -23.176 -15.718  0.00  0.00    +0.243 C 
ATOM     16  H   UNL     1      38.095 -24.624 -14.844  0.00  0.00    +0.145 HD
ATOM     17  H   UNL     1      36.722 -25.234 -15.649  0.00  0.00    +0.145 HD
ENDBRANCH  10  15
ENDBRANCH   4   7
BRANCH   1  18
ATOM     18  C   UNL     1      34.518 -18.634 -22.986  0.00  0.00    -0.038 C 
BRANCH  18  19
ATOM     19  N   UNL     1      35.026 -19.332 -24.186  0.00  0.00    +0.384 N 
ATOM     20  H   UNL     1      34.330 -20.005 -24.510  0.00  0.00    -0.089 HD
ATOM     21  H   UNL     1      35.891 -19.822 -23.954  0.00  0.00    -0.089 HD
ATOM     22  H   UNL     1      35.209 -18.652 -24.924  0.00  0.00    -0.089 HD
ENDBRANCH  18  19
BRANCH  18  23
ATOM     23  C   UNL     1      35.332 -17.319 -22.814  0.00  0.00    +0.011 C 
BRANCH  23  26
ATOM     24  F   UNL     1      35.086 -16.513 -20.106  0.00  0.00    -0.205 F 
ATOM     25  F   UNL     1      32.282 -13.639 -23.821  0.00  0.00    -0.204 F 
ATOM     26  C   UNL     1      34.476 -16.154 -22.372  0.00  0.00    +0.006 C 
ATOM     27  C   UNL     1      34.402 -15.813 -21.022  0.00  0.00    +0.136 C 
ATOM     28  C   UNL     1      33.761 -15.420 -23.318  0.00  0.00    +0.028 C 
ATOM     29  C   UNL     1      32.970 -14.344 -22.913  0.00  0.00    +0.140 C 
ATOM     30  C   UNL     1      33.611 -14.738 -20.617  0.00  0.00    +0.032 C 
ATOM     31  C   UNL     1      32.895 -14.003 -21.562  0.00  0.00    +0.032 C 
ENDBRANCH  23  26
ENDBRANCH  18  23
ENDBRANCH   1  18
TORSDOF 6
ENDMDL
MODEL 2
REMARK VINA RESULT:     -11.3      3.079      4.900
REMARK  Name = 24832041
REMARK  6 active torsions:
REMARK  status: ('A' for Active; 'I' for Inactive)
REMARK    1  A    between atoms: C_1  and  C_18
REMARK    2  A    between atoms: C_4  and  C_7
REMARK    3  A    between atoms: C_10  and  C_15
REMARK    4  A    between atoms: C_18  and  N_19
REMARK    5  A    between atoms: C_18  and  C_23
REMARK    6  A    between atoms: C_23  and  C_26
REMARK                            x       y       z     vdW  Elec       q    Type
REMARK                         _______ _______ _______ _____ _____    ______ ____
ROOT
ATOM      1  C   UNL     1      33.796 -15.634 -23.433  0.00  0.00    -0.042 C 
ATOM      2  C   UNL     1      34.424 -16.694 -24.085  0.00  0.00    -0.006 C 
ATOM      3  C   UNL     1      33.654 -15.655 -22.045  0.00  0.00    -0.006 C 
ATOM      4  C   UNL     1      34.768 -17.798 -21.963  0.00  0.00    -0.000 C 
ATOM      5  C   UNL     1      34.910 -17.776 -23.351  0.00  0.00    -0.000 C 
ATOM      6  C   UNL     1      34.139 -16.737 -21.311  0.00  0.00    -0.000 C 
ENDROOT
BRANCH   4   7
ATOM      7  C   UNL     1      35.272 -18.919 -21.202  0.00  0.00    +0.000 C 
ATOM      8  C   UNL     1      34.390 -19.885 -20.715  0.00  0.00    +0.005 C 
ATOM      9  C   UNL     1      36.639 -19.035 -20.954  0.00  0.00    +0.000 C 
ATOM     10  C   UNL     1      34.876 -20.966 -19.980  0.00  0.00    +0.053 C 
ATOM     11  C   UNL     1      37.125 -20.117 -20.220  0.00  0.00    +0.000 C 
ATOM     12  C   UNL     1      36.245 -21.082 -19.733  0.00  0.00    +0.005 C 
BRANCH  10  15
ATOM     13  O   UNL     1      34.300 -23.165 -19.365  0.00  0.00    -0.270 OA
ATOM     14  N   UNL     1      32.685 -21.560 -19.098  0.00  0.00    -0.325 N 
ATOM     15  C   UNL     1      33.959 -21.975 -19.475  0.00  0.00    +0.243 C 
ATOM     16  H   UNL     1      32.036 -22.215 -18.752  0.00  0.00    +0.145 HD
ATOM     17  H   UNL     1      32.432 -20.612 -19.178  0.00  0.00    +0.145 HD
ENDBRANCH  10  15
ENDBRANCH   4   7
BRANCH   1  18
ATOM     18  C   UNL     1      33.277 -14.477 -24.217  0.00  0.00    -0.038 C 
BRANCH  18  19
ATOM     19  N   UNL     1      33.271 -14.750 -25.670  0.00  0.00    +0.384 N 
ATOM     20  H   UNL     1      33.062 -13.890 -26.178  0.00  0.00    -0.089 HD
ATOM     21  H   UNL     1      32.559 -15.451 -25.881  0.00  0.00    -0.089 HD
ATOM     22  H   UNL     1      34.186 -15.098 -25.956  0.00  0.00    -0.089 HD
ENDBRANCH  18  19
BRANCH  18  23
ATOM     23  C   UNL     1      34.051 -13.147 -23.982  0.00  0.00    +0.011 C 
BRANCH  23  26
ATOM     24  F   UNL     1      34.319 -10.418 -24.706  0.00  0.00    -0.205 F 
ATOM     25  F   UNL     1      30.406 -11.659 -21.090  0.00  0.00    -0.204 F 
ATOM     26  C   UNL     1      33.174 -12.052 -23.419  0.00  0.00    +0.006 C 
ATOM     27  C   UNL     1      33.362 -10.730 -23.821  0.00  0.00    +0.136 C 
ATOM     28  C   UNL     1      32.176 -12.366 -22.497  0.00  0.00    +0.028 C 
ATOM     29  C   UNL     1      31.365 -11.358 -21.976  0.00  0.00    +0.140 C 
ATOM     30  C   UNL     1      32.551  -9.721 -23.299  0.00  0.00    +0.032 C 
ATOM     31  C   UNL     1      31.552 -10.034 -22.378  0.00  0.00    +0.032 C 
ENDBRANCH  23  26
ENDBRANCH  18  23
ENDBRANCH   1  18
TORSDOF 6
ENDMDL
MODEL 3
REMARK VINA RESULT:     -11.3      3.752      9.064
REMARK  Name = 24832041
REMARK  6 active torsions:
REMARK  status: ('A' for Active; 'I' for Inactive)
REMARK    1  A    between atoms: C_1  and  C_18
REMARK    2  A    between atoms: C_4  and  C_7
REMARK    3  A    between atoms: C_10  and  C_15
REMARK    4  A    between atoms: C_18  and  N_19
REMARK    5  A    between atoms: C_18  and  C_23
REMARK    6  A    between atoms: C_23  and  C_26
REMARK                            x       y       z     vdW  Elec       q    Type
REMARK                         _______ _______ _______ _____ _____    ______ ____
ROOT
ATOM      1  C   UNL     1      34.299 -22.088 -18.729  0.00  0.00    -0.042 C 
ATOM      2  C   UNL     1      33.163 -21.502 -19.285  0.00  0.00    -0.006 C 
ATOM      3  C   UNL     1      35.568 -21.656 -19.118  0.00  0.00    -0.006 C 
ATOM      4  C   UNL     1      34.561 -20.054 -20.622  0.00  0.00    -0.000 C 
ATOM      5  C   UNL     1      33.293 -20.486 -20.231  0.00  0.00    -0.000 C 
ATOM      6  C   UNL     1      35.699 -20.640 -20.065  0.00  0.00    -0.000 C 
ENDROOT
BRANCH   4   7
ATOM      7  C   UNL     1      34.696 -19.000 -21.602  0.00  0.00    +0.000 C 
ATOM      8  C   UNL     1      34.638 -17.664 -21.202  0.00  0.00    +0.005 C 
ATOM      9  C   UNL     1      34.885 -19.318 -22.946  0.00  0.00    +0.000 C 
ATOM     10  C   UNL     1      34.768 -16.647 -22.148  0.00  0.00    +0.053 C 
ATOM     11  C   UNL     1      35.015 -18.300 -23.892  0.00  0.00    +0.000 C 
ATOM     12  C   UNL     1      34.957 -16.965 -23.493  0.00  0.00    +0.005 C 
BRANCH  10  15
ATOM     13  O   UNL     1      34.801 -14.931 -20.535  0.00  0.00    -0.270 OA
ATOM     14  N   UNL     1      34.564 -14.289 -22.723  0.00  0.00    -0.325 N 
ATOM     15  C   UNL     1      34.709 -15.254 -21.732  0.00  0.00    +0.243 C 
ATOM     16  H   UNL     1      34.519 -13.335 -22.480  0.00  0.00    +0.145 HD
ATOM     17  H   UNL     1      34.505 -14.557 -23.669  0.00  0.00    +0.145 HD
ENDBRANCH  10  15
ENDBRANCH   4   7
BRANCH   1  18
ATOM     18  C   UNL     1      34.161 -23.174 -17.717  0.00  0.00    -0.038 C 
BRANCH  18  19
ATOM     19  N   UNL     1      32.779 -23.696 -17.650  0.00  0.00    +0.384 N 
ATOM     20  H   UNL     1      32.198 -23.054 -17.111  0.00  0.00    -0.089 HD
ATOM     21  H   UNL     1      32.783 -24.612 -17.199  0.00  0.00    -0.089 HD
ATOM     22  H   UNL     1      32.402 -23.784 -18.593  0.00  0.00    -0.089 HD
ENDBRANCH  18  19
BRANCH  18  23
ATOM     23  C   UNL     1      34.589 -22.765 -16.277  0.00  0.00    +0.011 C 
BRANCH  23  26
ATOM     24  F   UNL     1      37.200 -21.663 -16.154  0.00  0.00    -0.205 F 
ATOM     25  F   UNL     1      36.604 -26.842 -14.496  0.00  0.00    -0.204 F 
ATOM     26  C   UNL     1      35.791 -23.538 -15.783  0.00  0.00    +0.006 C 
ATOM     27  C   UNL     1      37.046 -22.932 -15.749  0.00  0.00    +0.136 C 
ATOM     28  C   UNL     1      35.640 -24.858 -15.359  0.00  0.00    +0.028 C 
ATOM     29  C   UNL     1      36.747 -25.574 -14.903  0.00  0.00    +0.140 C 
ATOM     30  C   UNL     1      38.153 -23.648 -15.292  0.00  0.00    +0.032 C 
ATOM     31  C   UNL     1      38.004 -24.968 -14.868  0.00  0.00    +0.032 C 
ENDBRANCH  23  26
ENDBRANCH  18  23
ENDBRANCH   1  18
TORSDOF 6
ENDMDL
MODEL 4
REMARK VINA RESULT:     -11.3      4.062      8.899
REMARK  Name = 24832041
REMARK  6 active torsions:
REMARK  status: ('A' for Active; 'I' for Inactive)
REMARK    1  A    between atoms: C_1  and  C_18
REMARK    2  A    between atoms: C_4  and  C_7
REMARK    3  A    between atoms: C_10  and  C_15
REMARK    4  A    between atoms: C_18  and  N_19
REMARK    5  A    between atoms: C_18  and  C_23
REMARK    6  A    between atoms: C_23  and  C_26
REMARK                            x       y       z     vdW  Elec       q    Type
REMARK                         _______ _______ _______ _____ _____    ______ ____
ROOT
ATOM      1  C   UNL     1      34.076 -21.748 -19.372  0.00  0.00    -0.042 C 
ATOM      2  C   UNL     1      35.354 -21.397 -19.804  0.00  0.00    -0.006 C 
ATOM      3  C   UNL     1      32.968 -21.021 -19.809  0.00  0.00    -0.006 C 
ATOM      4  C   UNL     1      34.419 -19.590 -21.108  0.00  0.00    -0.000 C 
ATOM      5  C   UNL     1      35.527 -20.319 -20.671  0.00  0.00    -0.000 C 
ATOM      6  C   UNL     1      33.140 -19.942 -20.676  0.00  0.00    -0.000 C 
ENDROOT
BRANCH   4   7
ATOM      7  C   UNL     1      34.598 -18.473 -22.008  0.00  0.00    +0.000 C 
ATOM      8  C   UNL     1      34.523 -17.167 -21.522  0.00  0.00    +0.005 C 
ATOM      9  C   UNL     1      34.845 -18.700 -23.361  0.00  0.00    +0.000 C 
ATOM     10  C   UNL     1      34.695 -16.089 -22.390  0.00  0.00    +0.053 C 
ATOM     11  C   UNL     1      35.017 -17.622 -24.230  0.00  0.00    +0.000 C 
ATOM     12  C   UNL     1      34.942 -16.316 -23.745  0.00  0.00    +0.005 C 
BRANCH  10  15
ATOM     13  O   UNL     1      34.823 -14.469 -20.686  0.00  0.00    -0.270 OA
ATOM     14  N   UNL     1      34.328 -13.715 -22.793  0.00  0.00    -0.325 N 
ATOM     15  C   UNL     1      34.619 -14.727 -21.885  0.00  0.00    +0.243 C 
ATOM     16  H   UNL     1      34.267 -12.781 -22.488  0.00  0.00    +0.145 HD
ATOM     17  H   UNL     1      34.182 -13.931 -23.743  0.00  0.00    +0.145 HD
ENDBRANCH  10  15
ENDBRANCH   4   7
BRANCH   1  18
ATOM     18  C   UNL     1      33.891 -22.901 -18.446  0.00  0.00    -0.038 C 
BRANCH  18  19
ATOM     19  N   UNL     1      33.742 -24.180 -19.174  0.00  0.00    +0.384 N 
ATOM     20  H   UNL     1      32.788 -24.263 -19.525  0.00  0.00    -0.089 HD
ATOM     21  H   UNL     1      33.941 -24.956 -18.542  0.00  0.00    -0.089 HD
ATOM     22  H   UNL     1      34.394 -24.203 -19.958  0.00  0.00    -0.089 HD
ENDBRANCH  18  19
BRANCH  18  23
ATOM     23  C   UNL     1      32.680 -22.756 -17.479  0.00  0.00    +0.011 C 
BRANCH  23  26
ATOM     24  F   UNL     1      30.787 -22.702 -15.367  0.00  0.00    -0.205 F 
ATOM     25  F   UNL     1      35.741 -24.715 -14.216  0.00  0.00    -0.204 F 
ATOM     26  C   UNL     1      32.983 -23.251 -16.083  0.00  0.00    +0.006 C 
ATOM     27  C   UNL     1      32.003 -23.195 -15.092  0.00  0.00    +0.136 C 
ATOM     28  C   UNL     1      34.246 -23.765 -15.788  0.00  0.00    +0.028 C 
ATOM     29  C   UNL     1      34.529 -24.222 -14.500  0.00  0.00    +0.140 C 
ATOM     30  C   UNL     1      32.287 -23.651 -13.805  0.00  0.00    +0.032 C 
ATOM     31  C   UNL     1      33.548 -24.166 -13.509  0.00  0.00    +0.032 C 
ENDBRANCH  23  26
ENDBRANCH  18  23
ENDBRANCH   1  18
TORSDOF 6
ENDMDL
MODEL 5
REMARK VINA RESULT:     -11.2      4.227      8.910
REMARK  Name = 24832041
REMARK  6 active torsions:
REMARK  status: ('A' for Active; 'I' for Inactive)
REMARK    1  A    between atoms: C_1  and  C_18
REMARK    2  A    between atoms: C_4  and  C_7
REMARK    3  A    between atoms: C_10  and  C_15
REMARK    4  A    between atoms: C_18  and  N_19
REMARK    5  A    between atoms: C_18  and  C_23
REMARK    6  A    between atoms: C_23  and  C_26
REMARK                            x       y       z     vdW  Elec       q    Type
REMARK                         _______ _______ _______ _____ _____    ______ ____
ROOT
ATOM      1  C   UNL     1      34.385 -21.492 -19.689  0.00  0.00    -0.042 C 
ATOM      2  C   UNL     1      35.612 -20.925 -20.033  0.00  0.00    -0.006 C 
ATOM      3  C   UNL     1      33.199 -20.830 -20.004  0.00  0.00    -0.006 C 
ATOM      4  C   UNL     1      34.466 -19.033 -21.007  0.00  0.00    -0.000 C 
ATOM      5  C   UNL     1      35.653 -19.696 -20.691  0.00  0.00    -0.000 C 
ATOM      6  C   UNL     1      33.239 -19.601 -20.662  0.00  0.00    -0.000 C 
ENDROOT
BRANCH   4   7
ATOM      7  C   UNL     1      34.509 -17.760 -21.690  0.00  0.00    +0.000 C 
ATOM      8  C   UNL     1      34.397 -17.711 -23.080  0.00  0.00    +0.005 C 
ATOM      9  C   UNL     1      34.662 -16.582 -20.960  0.00  0.00    +0.000 C 
ATOM     10  C   UNL     1      34.439 -16.482 -23.740  0.00  0.00    +0.053 C 
ATOM     11  C   UNL     1      34.703 -15.353 -21.620  0.00  0.00    +0.000 C 
ATOM     12  C   UNL     1      34.592 -15.303 -23.010  0.00  0.00    +0.005 C 
BRANCH  10  15
ATOM     13  O   UNL     1      34.886 -17.263 -25.916  0.00  0.00    -0.270 OA
ATOM     14  N   UNL     1      33.534 -15.420 -25.737  0.00  0.00    -0.325 N 
ATOM     15  C   UNL     1      34.320 -16.429 -25.188  0.00  0.00    +0.243 C 
ATOM     16  H   UNL     1      33.431 -15.352 -26.714  0.00  0.00    +0.145 HD
ATOM     17  H   UNL     1      33.081 -14.774 -25.149  0.00  0.00    +0.145 HD
ENDBRANCH  10  15
ENDBRANCH   4   7
BRANCH   1  18
ATOM     18  C   UNL     1      34.341 -22.806 -18.985  0.00  0.00    -0.038 C 
BRANCH  18  19
ATOM     19  N   UNL     1      33.971 -23.910 -19.897  0.00  0.00    +0.384 N 
ATOM     20  H   UNL     1      34.059 -23.598 -20.864  0.00  0.00    -0.089 HD
ATOM     21  H   UNL     1      33.006 -24.190 -19.717  0.00  0.00    -0.089 HD
ATOM     22  H   UNL     1      34.590 -24.704 -19.739  0.00  0.00    -0.089 HD
ENDBRANCH  18  19
BRANCH  18  23
ATOM     23  C   UNL     1      33.375 -22.846 -17.765  0.00  0.00    +0.011 C 
BRANCH  23  26
ATOM     24  F   UNL     1      32.079 -23.912 -15.479  0.00  0.00    -0.205 F 
ATOM     25  F   UNL     1      37.423 -22.835 -15.033  0.00  0.00    -0.204 F 
ATOM     26  C   UNL     1      34.090 -23.120 -16.462  0.00  0.00    +0.006 C 
ATOM     27  C   UNL     1      33.389 -23.646 -15.377  0.00  0.00    +0.136 C 
ATOM     28  C   UNL     1      35.452 -22.846 -16.347  0.00  0.00    +0.028 C 
ATOM     29  C   UNL     1      36.115 -23.098 -15.145  0.00  0.00    +0.140 C 
ATOM     30  C   UNL     1      34.051 -23.898 -14.175  0.00  0.00    +0.032 C 
ATOM     31  C   UNL     1      35.414 -23.625 -14.059  0.00  0.00    +0.032 C 
ENDBRANCH  23  26
ENDBRANCH  18  23
ENDBRANCH   1  18
TORSDOF 6
ENDMDL
MODEL 6
REMARK VINA RESULT:     -11.2      4.044      9.067
REMARK  Name = 24832041
REMARK  6 active torsions:
REMARK  status: ('A' for Active; 'I' for Inactive)
REMARK    1  A    between atoms: C_1  and  C_18
REMARK    2  A    between atoms: C_4  and  C_7
REMARK    3  A    between atoms: C_10  and  C_15
REMARK    4  A    between atoms: C_18  and  N_19
REMARK    5  A    between atoms: C_18  and  C_23
REMARK    6  A    between atoms: C_23  and  C_26
REMARK                            x       y       z     vdW  Elec       q    Type
REMARK                         _______ _______ _______ _____ _____    ______ ____
ROOT
ATOM      1  C   UNL     1      33.745 -21.684 -19.078  0.00  0.00    -0.042 C 
ATOM      2  C   UNL     1      32.692 -20.921 -19.580  0.00  0.00    -0.006 C 
ATOM      3  C   UNL     1      35.047 -21.454 -19.523  0.00  0.00    -0.006 C 
ATOM      4  C   UNL     1      34.241 -19.697 -20.973  0.00  0.00    -0.000 C 
ATOM      5  C   UNL     1      32.939 -19.928 -20.528  0.00  0.00    -0.000 C 
ATOM      6  C   UNL     1      35.295 -20.461 -20.470  0.00  0.00    -0.000 C 
ENDROOT
BRANCH   4   7
ATOM      7  C   UNL     1      34.498 -18.667 -21.955  0.00  0.00    +0.000 C 
ATOM      8  C   UNL     1      34.387 -17.322 -21.599  0.00  0.00    +0.005 C 
ATOM      9  C   UNL     1      34.855 -19.017 -23.256  0.00  0.00    +0.000 C 
ATOM     10  C   UNL     1      34.635 -16.328 -22.546  0.00  0.00    +0.053 C 
ATOM     11  C   UNL     1      35.102 -18.022 -24.203  0.00  0.00    +0.000 C 
ATOM     12  C   UNL     1      34.992 -16.678 -23.848  0.00  0.00    +0.005 C 
BRANCH  10  15
ATOM     13  O   UNL     1      34.524 -14.567 -20.985  0.00  0.00    -0.270 OA
ATOM     14  N   UNL     1      34.430 -13.991 -23.203  0.00  0.00    -0.325 N 
ATOM     15  C   UNL     1      34.522 -14.926 -22.176  0.00  0.00    +0.243 C 
ATOM     16  H   UNL     1      34.352 -13.032 -22.991  0.00  0.00    +0.145 HD
ATOM     17  H   UNL     1      34.443 -14.287 -24.142  0.00  0.00    +0.145 HD
ENDBRANCH  10  15
ENDBRANCH   4   7
BRANCH   1  18
ATOM     18  C   UNL     1      33.482 -22.746 -18.065  0.00  0.00    -0.038 C 
BRANCH  18  19
ATOM     19  N   UNL     1      33.519 -24.100 -18.658  0.00  0.00    +0.384 N 
ATOM     20  H   UNL     1      34.041 -24.726 -18.044  0.00  0.00    -0.089 HD
ATOM     21  H   UNL     1      33.976 -24.059 -19.569  0.00  0.00    -0.089 HD
ATOM     22  H   UNL     1      32.568 -24.449 -18.769  0.00  0.00    -0.089 HD
ENDBRANCH  18  19
BRANCH  18  23
ATOM     23  C   UNL     1      32.129 -22.589 -17.311  0.00  0.00    +0.011 C 
BRANCH  23  26
ATOM     24  F   UNL     1      34.186 -22.653 -15.360  0.00  0.00    -0.205 F 
ATOM     25  F   UNL     1      29.787 -25.771 -14.440  0.00  0.00    -0.204 F 
ATOM     26  C   UNL     1      32.055 -23.432 -16.059  0.00  0.00    +0.006 C 
ATOM     27  C   UNL     1      33.105 -23.414 -15.141  0.00  0.00    +0.136 C 
ATOM     28  C   UNL     1      30.934 -24.227 -15.823  0.00  0.00    +0.028 C 
ATOM     29  C   UNL     1      30.863 -25.007 -14.668  0.00  0.00    +0.140 C 
ATOM     30  C   UNL     1      33.034 -24.194 -13.986  0.00  0.00    +0.032 C 
ATOM     31  C   UNL     1      31.914 -24.990 -13.749  0.00  0.00    +0.032 C 
ENDBRANCH  23  26
ENDBRANCH  18  23
ENDBRANCH   1  18
TORSDOF 6
ENDMDL
MODEL 7
REMARK VINA RESULT:     -11.0      2.192      2.610
REMARK  Name = 24832041
REMARK  6 active torsions:
REMARK  status: ('A' for Active; 'I' for Inactive)
REMARK    1  A    between atoms: C_1  and  C_18
REMARK    2  A    between atoms: C_4  and  C_7
REMARK    3  A    between atoms: C_10  and  C_15
REMARK    4  A    between atoms: C_18  and  N_19
REMARK    5  A    between atoms: C_18  and  C_23
REMARK    6  A    between atoms: C_23  and  C_26
REMARK                            x       y       z     vdW  Elec       q    Type
REMARK                         _______ _______ _______ _____ _____    ______ ____
ROOT
ATOM      1  C   UNL     1      34.431 -19.704 -21.659  0.00  0.00    -0.042 C 
ATOM      2  C   UNL     1      35.533 -20.300 -21.046  0.00  0.00    -0.006 C 
ATOM      3  C   UNL     1      33.153 -19.897 -21.135  0.00  0.00    -0.006 C 
ATOM      4  C   UNL     1      34.078 -21.285 -19.386  0.00  0.00    -0.000 C 
ATOM      5  C   UNL     1      35.357 -21.091 -19.911  0.00  0.00    -0.000 C 
ATOM      6  C   UNL     1      32.976 -20.688 -20.000  0.00  0.00    -0.000 C 
ENDROOT
BRANCH   4   7
ATOM      7  C   UNL     1      33.897 -22.104 -18.209  0.00  0.00    +0.000 C 
ATOM      8  C   UNL     1      32.610 -22.437 -17.783  0.00  0.00    +0.005 C 
ATOM      9  C   UNL     1      35.006 -22.560 -17.498  0.00  0.00    +0.000 C 
ATOM     10  C   UNL     1      32.434 -23.227 -16.647  0.00  0.00    +0.053 C 
ATOM     11  C   UNL     1      34.830 -23.350 -16.362  0.00  0.00    +0.000 C 
ATOM     12  C   UNL     1      33.545 -23.683 -15.936  0.00  0.00    +0.005 C 
BRANCH  10  15
ATOM     13  O   UNL     1      30.902 -24.487 -15.378  0.00  0.00    -0.270 OA
ATOM     14  N   UNL     1      30.029 -22.846 -16.721  0.00  0.00    -0.325 N 
ATOM     15  C   UNL     1      31.094 -23.577 -16.204  0.00  0.00    +0.243 C 
ATOM     16  H   UNL     1      29.108 -23.055 -16.445  0.00  0.00    +0.145 HD
ATOM     17  H   UNL     1      30.197 -22.120 -17.364  0.00  0.00    +0.145 HD
ENDBRANCH  10  15
ENDBRANCH   4   7
BRANCH   1  18
ATOM     18  C   UNL     1      34.618 -18.858 -22.872  0.00  0.00    -0.038 C 
BRANCH  18  19
ATOM     19  N   UNL     1      35.026 -19.657 -24.047  0.00  0.00    +0.384 N 
ATOM     20  H   UNL     1      34.205 -19.877 -24.612  0.00  0.00    -0.089 HD
ATOM     21  H   UNL     1      35.465 -20.523 -23.734  0.00  0.00    -0.089 HD
ATOM     22  H   UNL     1      35.690 -19.124 -24.608  0.00  0.00    -0.089 HD
ENDBRANCH  18  19
BRANCH  18  23
ATOM     23  C   UNL     1      35.648 -17.704 -22.695  0.00  0.00    +0.011 C 
BRANCH  23  26
ATOM     24  F   UNL     1      34.999 -16.587 -20.170  0.00  0.00    -0.205 F 
ATOM     25  F   UNL     1      33.766 -13.617 -24.595  0.00  0.00    -0.204 F 
ATOM     26  C   UNL     1      34.991 -16.353 -22.532  0.00  0.00    +0.006 C 
ATOM     27  C   UNL     1      34.700 -15.865 -21.259  0.00  0.00    +0.136 C 
ATOM     28  C   UNL     1      34.676 -15.594 -23.659  0.00  0.00    +0.028 C 
ATOM     29  C   UNL     1      34.069 -14.346 -23.513  0.00  0.00    +0.140 C 
ATOM     30  C   UNL     1      34.093 -14.617 -21.112  0.00  0.00    +0.032 C 
ATOM     31  C   UNL     1      33.778 -13.857 -22.239  0.00  0.00    +0.032 C 
ENDBRANCH  23  26
ENDBRANCH  18  23
ENDBRANCH   1  18
TORSDOF 6
ENDMDL
MODEL 8
REMARK VINA RESULT:     -10.9      3.806      9.072
REMARK  Name = 24832041
REMARK  6 active torsions:
REMARK  status: ('A' for Active; 'I' for Inactive)
REMARK    1  A    between atoms: C_1  and  C_18
REMARK    2  A    between atoms: C_4  and  C_7
REMARK    3  A    between atoms: C_10  and  C_15
REMARK    4  A    between atoms: C_18  and  N_19
REMARK    5  A    between atoms: C_18  and  C_23
REMARK    6  A    between atoms: C_23  and  C_26
REMARK                            x       y       z     vdW  Elec       q    Type
REMARK                         _______ _______ _______ _____ _____    ______ ____
ROOT
ATOM      1  C   UNL     1      34.665 -21.296 -19.728  0.00  0.00    -0.042 C 
ATOM      2  C   UNL     1      33.443 -20.688 -20.017  0.00  0.00    -0.006 C 
ATOM      3  C   UNL     1      35.857 -20.681 -20.111  0.00  0.00    -0.006 C 
ATOM      4  C   UNL     1      34.606 -18.851 -21.072  0.00  0.00    -0.000 C 
ATOM      5  C   UNL     1      33.413 -19.466 -20.688  0.00  0.00    -0.000 C 
ATOM      6  C   UNL     1      35.828 -19.460 -20.783  0.00  0.00    -0.000 C 
ENDROOT
BRANCH   4   7
ATOM      7  C   UNL     1      34.575 -17.584 -21.767  0.00  0.00    +0.000 C 
ATOM      8  C   UNL     1      34.451 -17.554 -23.157  0.00  0.00    +0.005 C 
ATOM      9  C   UNL     1      34.668 -16.392 -21.050  0.00  0.00    +0.000 C 
ATOM     10  C   UNL     1      34.422 -16.331 -23.828  0.00  0.00    +0.053 C 
ATOM     11  C   UNL     1      34.638 -15.169 -21.721  0.00  0.00    +0.000 C 
ATOM     12  C   UNL     1      34.515 -15.138 -23.110  0.00  0.00    +0.005 C 
BRANCH  10  15
ATOM     13  O   UNL     1      34.890 -17.113 -26.000  0.00  0.00    -0.270 OA
ATOM     14  N   UNL     1      33.456 -15.332 -25.829  0.00  0.00    -0.325 N 
ATOM     15  C   UNL     1      34.291 -16.298 -25.276  0.00  0.00    +0.243 C 
ATOM     16  H   UNL     1      33.343 -15.279 -26.806  0.00  0.00    +0.145 HD
ATOM     17  H   UNL     1      32.977 -14.701 -25.244  0.00  0.00    +0.145 HD
ENDBRANCH  10  15
ENDBRANCH   4   7
BRANCH   1  18
ATOM     18  C   UNL     1      34.697 -22.602 -19.010  0.00  0.00    -0.038 C 
BRANCH  18  19
ATOM     19  N   UNL     1      33.825 -23.609 -19.651  0.00  0.00    +0.384 N 
ATOM     20  H   UNL     1      33.065 -23.138 -20.143  0.00  0.00    -0.089 HD
ATOM     21  H   UNL     1      33.436 -24.226 -18.936  0.00  0.00    -0.089 HD
ATOM     22  H   UNL     1      34.370 -24.159 -20.314  0.00  0.00    -0.089 HD
ENDBRANCH  18  19
BRANCH  18  23
ATOM     23  C   UNL     1      34.305 -22.514 -17.506  0.00  0.00    +0.011 C 
BRANCH  23  26
ATOM     24  F   UNL     1      36.803 -21.197 -17.243  0.00  0.00    -0.205 F 
ATOM     25  F   UNL     1      36.032 -25.694 -14.226  0.00  0.00    -0.204 F 
ATOM     26  C   UNL     1      35.402 -22.998 -16.586  0.00  0.00    +0.006 C 
ATOM     27  C   UNL     1      36.607 -22.299 -16.506  0.00  0.00    +0.136 C 
ATOM     28  C   UNL     1      35.207 -24.144 -15.815  0.00  0.00    +0.028 C 
ATOM     29  C   UNL     1      36.218 -24.593 -14.965  0.00  0.00    +0.140 C 
ATOM     30  C   UNL     1      37.618 -22.749 -15.656  0.00  0.00    +0.032 C 
ATOM     31  C   UNL     1      37.424 -23.895 -14.885  0.00  0.00    +0.032 C 
ENDBRANCH  23  26
ENDBRANCH  18  23
ENDBRANCH   1  18
TORSDOF 6
ENDMDL
MODEL 9
REMARK VINA RESULT:     -10.9      4.082      7.131
REMARK  Name = 24832041
REMARK  6 active torsions:
REMARK  status: ('A' for Active; 'I' for Inactive)
REMARK    1  A    between atoms: C_1  and  C_18
REMARK    2  A    between atoms: C_4  and  C_7
REMARK    3  A    between atoms: C_10  and  C_15
REMARK    4  A    between atoms: C_18  and  N_19
REMARK    5  A    between atoms: C_18  and  C_23
REMARK    6  A    between atoms: C_23  and  C_26
REMARK                            x       y       z     vdW  Elec       q    Type
REMARK                         _______ _______ _______ _____ _____    ______ ____
ROOT
ATOM      1  C   UNL     1      32.276 -12.845 -21.702  0.00  0.00    -0.042 C 
ATOM      2  C   UNL     1      32.546 -13.320 -22.984  0.00  0.00    -0.006 C 
ATOM      3  C   UNL     1      32.582 -13.629 -20.589  0.00  0.00    -0.006 C 
ATOM      4  C   UNL     1      33.426 -15.364 -22.043  0.00  0.00    -0.000 C 
ATOM      5  C   UNL     1      33.121 -14.579 -23.156  0.00  0.00    -0.000 C 
ATOM      6  C   UNL     1      33.156 -14.888 -20.759  0.00  0.00    -0.000 C 
ENDROOT
BRANCH   4   7
ATOM      7  C   UNL     1      34.023 -16.669 -22.220  0.00  0.00    +0.000 C 
ATOM      8  C   UNL     1      33.771 -17.683 -21.295  0.00  0.00    +0.005 C 
ATOM      9  C   UNL     1      34.850 -16.915 -23.315  0.00  0.00    +0.000 C 
ATOM     10  C   UNL     1      34.347 -18.942 -21.465  0.00  0.00    +0.053 C 
ATOM     11  C   UNL     1      35.426 -18.174 -23.486  0.00  0.00    +0.000 C 
ATOM     12  C   UNL     1      35.174 -19.188 -22.562  0.00  0.00    +0.005 C 
BRANCH  10  15
ATOM     13  O   UNL     1      34.996 -20.498 -19.821  0.00  0.00    -0.270 OA
ATOM     14  N   UNL     1      32.768 -20.428 -20.355  0.00  0.00    -0.325 N 
ATOM     15  C   UNL     1      34.083 -20.000 -20.503  0.00  0.00    +0.243 C 
ATOM     16  H   UNL     1      32.551 -21.143 -19.714  0.00  0.00    +0.145 HD
ATOM     17  H   UNL     1      32.052 -20.016 -20.892  0.00  0.00    +0.145 HD
ENDBRANCH  10  15
ENDBRANCH   4   7
BRANCH   1  18
ATOM     18  C   UNL     1      31.663 -11.498 -21.518  0.00  0.00    -0.038 C 
BRANCH  18  19
ATOM     19  N   UNL     1      30.340 -11.577 -20.862  0.00  0.00    +0.384 N 
ATOM     20  H   UNL     1      29.826 -10.710 -21.026  0.00  0.00    -0.089 HD
ATOM     21  H   UNL     1      30.465 -11.712 -19.858  0.00  0.00    -0.089 HD
ATOM     22  H   UNL     1      29.814 -12.361 -21.248  0.00  0.00    -0.089 HD
ENDBRANCH  18  19
BRANCH  18  23
ATOM     23  C   UNL     1      31.498 -10.686 -22.835  0.00  0.00    +0.011 C 
BRANCH  23  26
ATOM     24  F   UNL     1      31.734  -8.137 -21.615  0.00  0.00    -0.205 F 
ATOM     25  F   UNL     1      35.720  -9.627 -25.051  0.00  0.00    -0.204 F 
ATOM     26  C   UNL     1      32.656  -9.749 -23.093  0.00  0.00    +0.006 C 
ATOM     27  C   UNL     1      32.707  -8.509 -22.458  0.00  0.00    +0.136 C 
ATOM     28  C   UNL     1      33.673 -10.128 -23.969  0.00  0.00    +0.028 C 
ATOM     29  C   UNL     1      34.743  -9.265 -24.210  0.00  0.00    +0.140 C 
ATOM     30  C   UNL     1      33.777  -7.646 -22.698  0.00  0.00    +0.032 C 
ATOM     31  C   UNL     1      34.795  -8.024 -23.573  0.00  0.00    +0.032 C 
ENDBRANCH  23  26
ENDBRANCH  18  23
ENDBRANCH   1  18
TORSDOF 6
ENDMDL
