MODEL 1
REMARK VINA RESULT:      -9.1      0.000      0.000
REMARK  Name = 446756
REMARK  11 active torsions:
REMARK  status: ('A' for Active; 'I' for Inactive)
REMARK    1  A    between atoms: P_1  and  O_3
REMARK    2  A    between atoms: P_1  and  O_5
REMARK    3  A    between atoms: P_1  and  C_15
REMARK    4  A    between atoms: O_5  and  C_6
REMARK    5  A    between atoms: C_11  and  N_14
REMARK    6  A    between atoms: C_15  and  C_16
REMARK    7  A    between atoms: C_16  and  C_17
REMARK    8  A    between atoms: C_17  and  C_20
REMARK    9  A    between atoms: N_19  and  CA_22
REMARK   10  A    between atoms: CA_22  and  C_25
REMARK   11  A    between atoms: C_25  and  O_26
REMARK                            x       y       z     vdW  Elec       q    Type
REMARK                         _______ _______ _______ _____ _____    ______ ____
ROOT
ATOM      1  P   UNL     1      34.538 -16.474 -21.686  0.00  0.00    +0.388 P 
ATOM      2  O   UNL     1      35.272 -15.656 -22.694  0.00  0.00    -0.244 OA
ENDROOT
BRANCH   1   3
ATOM      3  O   UNL     1      35.252 -16.645 -20.250  0.00  0.00    -0.315 OA
ATOM      4  H   UNL     1      36.213 -16.703 -20.372  0.00  0.00    +0.221 HD
ENDBRANCH   1   3
BRANCH   1   5
ATOM      5  O   UNL     1      34.118 -17.964 -22.120  0.00  0.00    -0.422 OA
BRANCH   5   6
ATOM      6  C   UNL     1      34.229 -19.066 -21.317  0.00  0.00    +0.147 C 
ATOM      7  C   UNL     1      35.480 -19.641 -21.090  0.00  0.00    +0.039 C 
ATOM      8  C   UNL     1      33.091 -19.616 -20.726  0.00  0.00    +0.039 C 
ATOM      9  C   UNL     1      35.593 -20.765 -20.273  0.00  0.00    +0.027 C 
ATOM     10  C   UNL     1      33.205 -20.740 -19.908  0.00  0.00    +0.027 C 
ATOM     11  C   UNL     1      34.455 -21.314 -19.681  0.00  0.00    +0.143 C 
BRANCH  11  14
ATOM     12  O   UNL     1      33.831 -23.449 -19.070  0.00  0.00    -0.126 OA
ATOM     13  O   UNL     1      35.409 -22.450 -17.916  0.00  0.00    -0.126 OA
ATOM     14  N   UNL     1      34.570 -22.459 -18.849  0.00  0.00    +0.058 N 
ENDBRANCH  11  14
ENDBRANCH   5   6
ENDBRANCH   1   5
BRANCH   1  15
ATOM     15  C   UNL     1      32.946 -15.755 -21.227  0.00  0.00    +0.129 C 
BRANCH  15  16
ATOM     16  C   UNL     1      32.998 -14.250 -21.003  0.00  0.00    +0.023 C 
BRANCH  16  17
ATOM     17  C   UNL     1      32.239 -13.480 -22.082  0.00  0.00    +0.086 C 
BRANCH  17  20
ATOM     18  O   UNL     1      33.818 -12.371 -23.545  0.00  0.00    -0.275 OA
ATOM     19  N   UNL     1      32.817 -14.346 -24.249  0.00  0.00    -0.297 N 
ATOM     20  C   ACE A   0      33.055 -13.313 -23.354  0.00  0.00    +0.223 C 
ATOM     21  H   UNL     1      32.182 -15.053 -23.994  0.00  0.00    +0.150 HD
BRANCH  19  22
ATOM     22  CA  UNL     1      33.459 -14.429 -25.541  0.00  0.00    +0.171 C 
ATOM     23  CB  UNL     1      32.680 -13.627 -26.572  0.00  0.00    +0.033 C 
BRANCH  22  25
ATOM     24  OXT UNL     1      34.639 -16.523 -25.808  0.00  0.00    -0.248 OA
ATOM     25  C   UNL     1      33.619 -15.869 -26.001  0.00  0.00    +0.332 C 
BRANCH  25  26
ATOM     26  O   UNL     1      32.549 -16.377 -26.656  0.00  0.00    -0.479 OA
ATOM     27  H   UNL     1      32.009 -17.022 -26.242  0.00  0.00    +0.295 HD
ENDBRANCH  25  26
ENDBRANCH  22  25
ENDBRANCH  19  22
ENDBRANCH  17  20
ENDBRANCH  16  17
ENDBRANCH  15  16
ENDBRANCH   1  15
TORSDOF 11
ENDMDL
MODEL 2
REMARK VINA RESULT:      -9.0      4.562     10.605
REMARK  Name = 446756
REMARK  11 active torsions:
REMARK  status: ('A' for Active; 'I' for Inactive)
REMARK    1  A    between atoms: P_1  and  O_3
REMARK    2  A    between atoms: P_1  and  O_5
REMARK    3  A    between atoms: P_1  and  C_15
REMARK    4  A    between atoms: O_5  and  C_6
REMARK    5  A    between atoms: C_11  and  N_14
REMARK    6  A    between atoms: C_15  and  C_16
REMARK    7  A    between atoms: C_16  and  C_17
REMARK    8  A    between atoms: C_17  and  C_20
REMARK    9  A    between atoms: N_19  and  CA_22
REMARK   10  A    between atoms: CA_22  and  C_25
REMARK   11  A    between atoms: C_25  and  O_26
REMARK                            x       y       z     vdW  Elec       q    Type
REMARK                         _______ _______ _______ _____ _____    ______ ____
ROOT
ATOM      1  P   UNL     1      33.557 -23.149 -17.725  0.00  0.00    +0.388 P 
ATOM      2  O   UNL     1      34.828 -22.773 -17.042  0.00  0.00    -0.244 OA
ENDROOT
BRANCH   1   3
ATOM      3  O   UNL     1      33.600 -24.486 -18.627  0.00  0.00    -0.315 OA
ATOM      4  H   UNL     1      32.746 -24.605 -19.070  0.00  0.00    +0.221 HD
ENDBRANCH   1   3
BRANCH   1   5
ATOM      5  O   UNL     1      32.877 -22.037 -18.666  0.00  0.00    -0.422 OA
BRANCH   5   6
ATOM      6  C   UNL     1      33.563 -21.229 -19.531  0.00  0.00    +0.147 C 
ATOM      7  C   UNL     1      32.877 -20.293 -20.305  0.00  0.00    +0.039 C 
ATOM      8  C   UNL     1      34.949 -21.343 -19.641  0.00  0.00    +0.039 C 
ATOM      9  C   UNL     1      33.577 -19.471 -21.188  0.00  0.00    +0.027 C 
ATOM     10  C   UNL     1      35.648 -20.520 -20.524  0.00  0.00    +0.027 C 
ATOM     11  C   UNL     1      34.963 -19.585 -21.297  0.00  0.00    +0.143 C 
BRANCH  11  14
ATOM     12  O   UNL     1      35.098 -18.341 -23.235  0.00  0.00    -0.126 OA
ATOM     13  O   UNL     1      36.860 -18.435 -21.928  0.00  0.00    -0.126 OA
ATOM     14  N   UNL     1      35.675 -18.747 -22.197  0.00  0.00    +0.058 N 
ENDBRANCH  11  14
ENDBRANCH   5   6
ENDBRANCH   1   5
BRANCH   1  15
ATOM     15  C   UNL     1      32.223 -23.525 -16.566  0.00  0.00    +0.129 C 
BRANCH  15  16
ATOM     16  C   UNL     1      32.563 -23.195 -15.119  0.00  0.00    +0.023 C 
BRANCH  16  17
ATOM     17  C   UNL     1      32.830 -24.449 -14.289  0.00  0.00    +0.086 C 
BRANCH  17  20
ATOM     18  O   UNL     1      34.567 -24.058 -12.649  0.00  0.00    -0.275 OA
ATOM     19  N   UNL     1      35.120 -25.078 -14.662  0.00  0.00    -0.297 N 
ATOM     20  C   ACE A   0      34.251 -24.494 -13.752  0.00  0.00    +0.223 C 
ATOM     21  H   UNL     1      34.759 -25.394 -15.521  0.00  0.00    +0.150 HD
BRANCH  19  22
ATOM     22  CA  UNL     1      36.533 -25.241 -14.406  0.00  0.00    +0.171 C 
ATOM     23  CB  UNL     1      37.300 -24.012 -14.868  0.00  0.00    +0.033 C 
BRANCH  22  25
ATOM     24  OXT UNL     1      38.097 -27.066 -14.674  0.00  0.00    -0.248 OA
ATOM     25  C   UNL     1      37.087 -26.492 -15.069  0.00  0.00    +0.332 C 
BRANCH  25  26
ATOM     26  O   UNL     1      36.385 -26.922 -16.144  0.00  0.00    -0.479 OA
ATOM     27  H   UNL     1      36.722 -27.615 -16.677  0.00  0.00    +0.295 HD
ENDBRANCH  25  26
ENDBRANCH  22  25
ENDBRANCH  19  22
ENDBRANCH  17  20
ENDBRANCH  16  17
ENDBRANCH  15  16
ENDBRANCH   1  15
TORSDOF 11
ENDMDL
MODEL 3
REMARK VINA RESULT:      -9.0      9.907     12.020
REMARK  Name = 446756
REMARK  11 active torsions:
REMARK  status: ('A' for Active; 'I' for Inactive)
REMARK    1  A    between atoms: P_1  and  O_3
REMARK    2  A    between atoms: P_1  and  O_5
REMARK    3  A    between atoms: P_1  and  C_15
REMARK    4  A    between atoms: O_5  and  C_6
REMARK    5  A    between atoms: C_11  and  N_14
REMARK    6  A    between atoms: C_15  and  C_16
REMARK    7  A    between atoms: C_16  and  C_17
REMARK    8  A    between atoms: C_17  and  C_20
REMARK    9  A    between atoms: N_19  and  CA_22
REMARK   10  A    between atoms: CA_22  and  C_25
REMARK   11  A    between atoms: C_25  and  O_26
REMARK                            x       y       z     vdW  Elec       q    Type
REMARK                         _______ _______ _______ _____ _____    ______ ____
ROOT
ATOM      1  P   UNL     1      33.395 -23.917 -13.493  0.00  0.00    +0.388 P 
ATOM      2  O   UNL     1      34.297 -24.662 -12.567  0.00  0.00    -0.244 OA
ENDROOT
BRANCH   1   3
ATOM      3  O   UNL     1      32.380 -22.868 -12.808  0.00  0.00    -0.315 OA
ATOM      4  H   UNL     1      31.766 -22.528 -13.478  0.00  0.00    +0.221 HD
ENDBRANCH   1   3
BRANCH   1   5
ATOM      5  O   UNL     1      32.481 -24.793 -14.483  0.00  0.00    -0.422 OA
BRANCH   5   6
ATOM      6  C   UNL     1      31.288 -24.377 -15.008  0.00  0.00    +0.147 C 
ATOM      7  C   UNL     1      31.253 -23.300 -15.893  0.00  0.00    +0.039 C 
ATOM      8  C   UNL     1      30.105 -25.028 -14.655  0.00  0.00    +0.039 C 
ATOM      9  C   UNL     1      30.037 -22.875 -16.427  0.00  0.00    +0.027 C 
ATOM     10  C   UNL     1      28.890 -24.603 -15.189  0.00  0.00    +0.027 C 
ATOM     11  C   UNL     1      28.855 -23.527 -16.074  0.00  0.00    +0.143 C 
BRANCH  11  14
ATOM     12  O   UNL     1      26.792 -22.515 -15.868  0.00  0.00    -0.126 OA
ATOM     13  O   UNL     1      27.380 -23.299 -17.833  0.00  0.00    -0.126 OA
ATOM     14  N   UNL     1      27.616 -23.093 -16.618  0.00  0.00    +0.058 N 
ENDBRANCH  11  14
ENDBRANCH   5   6
ENDBRANCH   1   5
BRANCH   1  15
ATOM     15  C   UNL     1      34.297 -22.863 -14.650  0.00  0.00    +0.129 C 
BRANCH  15  16
ATOM     16  C   UNL     1      34.990 -23.634 -15.765  0.00  0.00    +0.023 C 
BRANCH  16  17
ATOM     17  C   UNL     1      36.411 -23.132 -16.015  0.00  0.00    +0.086 C 
BRANCH  17  20
ATOM     18  O   UNL     1      37.904 -23.068 -14.110  0.00  0.00    -0.275 OA
ATOM     19  N   UNL     1      37.688 -25.044 -15.312  0.00  0.00    -0.297 N 
ATOM     20  C   ACE A   0      37.412 -23.715 -15.030  0.00  0.00    +0.223 C 
ATOM     21  H   UNL     1      37.235 -25.467 -16.077  0.00  0.00    +0.150 HD
BRANCH  19  22
ATOM     22  CA  UNL     1      38.611 -25.838 -14.533  0.00  0.00    +0.171 C 
ATOM     23  CB  UNL     1      38.349 -25.646 -13.047  0.00  0.00    +0.033 C 
BRANCH  22  25
ATOM     24  OXT UNL     1      40.779 -24.851 -14.119  0.00  0.00    -0.248 OA
ATOM     25  C   UNL     1      40.058 -25.509 -14.863  0.00  0.00    +0.332 C 
BRANCH  25  26
ATOM     26  O   UNL     1      40.491 -25.989 -16.052  0.00  0.00    -0.479 OA
ATOM     27  H   UNL     1      40.853 -25.404 -16.689  0.00  0.00    +0.295 HD
ENDBRANCH  25  26
ENDBRANCH  22  25
ENDBRANCH  19  22
ENDBRANCH  17  20
ENDBRANCH  16  17
ENDBRANCH  15  16
ENDBRANCH   1  15
TORSDOF 11
ENDMDL
MODEL 4
REMARK VINA RESULT:      -8.9      1.940      2.926
REMARK  Name = 446756
REMARK  11 active torsions:
REMARK  status: ('A' for Active; 'I' for Inactive)
REMARK    1  A    between atoms: P_1  and  O_3
REMARK    2  A    between atoms: P_1  and  O_5
REMARK    3  A    between atoms: P_1  and  C_15
REMARK    4  A    between atoms: O_5  and  C_6
REMARK    5  A    between atoms: C_11  and  N_14
REMARK    6  A    between atoms: C_15  and  C_16
REMARK    7  A    between atoms: C_16  and  C_17
REMARK    8  A    between atoms: C_17  and  C_20
REMARK    9  A    between atoms: N_19  and  CA_22
REMARK   10  A    between atoms: CA_22  and  C_25
REMARK   11  A    between atoms: C_25  and  O_26
REMARK                            x       y       z     vdW  Elec       q    Type
REMARK                         _______ _______ _______ _____ _____    ______ ____
ROOT
ATOM      1  P   UNL     1      35.185 -18.060 -23.193  0.00  0.00    +0.388 P 
ATOM      2  O   UNL     1      34.667 -18.925 -24.292  0.00  0.00    -0.244 OA
ENDROOT
BRANCH   1   3
ATOM      3  O   UNL     1      36.761 -18.182 -22.873  0.00  0.00    -0.315 OA
ATOM      4  H   UNL     1      36.887 -18.343 -21.924  0.00  0.00    +0.221 HD
ENDBRANCH   1   3
BRANCH   1   5
ATOM      5  O   UNL     1      34.461 -18.184 -21.763  0.00  0.00    -0.422 OA
BRANCH   5   6
ATOM      6  C   UNL     1      34.408 -19.330 -21.017  0.00  0.00    +0.147 C 
ATOM      7  C   UNL     1      35.585 -20.002 -20.688  0.00  0.00    +0.039 C 
ATOM      8  C   UNL     1      33.178 -19.827 -20.589  0.00  0.00    +0.039 C 
ATOM      9  C   UNL     1      35.531 -21.171 -19.930  0.00  0.00    +0.027 C 
ATOM     10  C   UNL     1      33.124 -20.996 -19.830  0.00  0.00    +0.027 C 
ATOM     11  C   UNL     1      34.300 -21.668 -19.500  0.00  0.00    +0.143 C 
BRANCH  11  14
ATOM     12  O   UNL     1      34.615 -22.823 -17.528  0.00  0.00    -0.126 OA
ATOM     13  O   UNL     1      33.831 -23.914 -19.265  0.00  0.00    -0.126 OA
ATOM     14  N   UNL     1      34.246 -22.859 -18.728  0.00  0.00    +0.058 N 
ENDBRANCH  11  14
ENDBRANCH   5   6
ENDBRANCH   1   5
BRANCH   1  15
ATOM     15  C   UNL     1      35.012 -16.298 -23.549  0.00  0.00    +0.129 C 
BRANCH  15  16
ATOM     16  C   UNL     1      33.780 -15.665 -22.916  0.00  0.00    +0.023 C 
BRANCH  16  17
ATOM     17  C   UNL     1      34.073 -14.281 -22.342  0.00  0.00    +0.086 C 
BRANCH  17  20
ATOM     18  O   UNL     1      32.292 -12.753 -22.934  0.00  0.00    -0.275 OA
ATOM     19  N   UNL     1      34.271 -12.709 -24.150  0.00  0.00    -0.297 N 
ATOM     20  C   ACE A   0      33.425 -13.170 -23.151  0.00  0.00    +0.223 C 
ATOM     21  H   UNL     1      35.162 -13.117 -24.237  0.00  0.00    +0.150 HD
BRANCH  19  22
ATOM     22  CA  UNL     1      33.901 -11.658 -25.070  0.00  0.00    +0.171 C 
ATOM     23  CB  UNL     1      33.564 -12.242 -26.433  0.00  0.00    +0.033 C 
BRANCH  22  25
ATOM     24  OXT UNL     1      35.572 -10.375 -26.255  0.00  0.00    -0.248 OA
ATOM     25  C   UNL     1      34.993 -10.609 -25.199  0.00  0.00    +0.332 C 
BRANCH  25  26
ATOM     26  O   UNL     1      35.290  -9.956 -24.051  0.00  0.00    -0.479 OA
ATOM     27  H   UNL     1      35.008  -9.071 -23.929  0.00  0.00    +0.295 HD
ENDBRANCH  25  26
ENDBRANCH  22  25
ENDBRANCH  19  22
ENDBRANCH  17  20
ENDBRANCH  16  17
ENDBRANCH  15  16
ENDBRANCH   1  15
TORSDOF 11
ENDMDL
MODEL 5
REMARK VINA RESULT:      -8.9      9.834     12.179
REMARK  Name = 446756
REMARK  11 active torsions:
REMARK  status: ('A' for Active; 'I' for Inactive)
REMARK    1  A    between atoms: P_1  and  O_3
REMARK    2  A    between atoms: P_1  and  O_5
REMARK    3  A    between atoms: P_1  and  C_15
REMARK    4  A    between atoms: O_5  and  C_6
REMARK    5  A    between atoms: C_11  and  N_14
REMARK    6  A    between atoms: C_15  and  C_16
REMARK    7  A    between atoms: C_16  and  C_17
REMARK    8  A    between atoms: C_17  and  C_20
REMARK    9  A    between atoms: N_19  and  CA_22
REMARK   10  A    between atoms: CA_22  and  C_25
REMARK   11  A    between atoms: C_25  and  O_26
REMARK                            x       y       z     vdW  Elec       q    Type
REMARK                         _______ _______ _______ _____ _____    ______ ____
ROOT
ATOM      1  P   UNL     1      33.352 -23.924 -13.553  0.00  0.00    +0.388 P 
ATOM      2  O   UNL     1      34.385 -24.615 -12.728  0.00  0.00    -0.244 OA
ENDROOT
BRANCH   1   3
ATOM      3  O   UNL     1      32.421 -22.857 -12.781  0.00  0.00    -0.315 OA
ATOM      4  H   UNL     1      32.019 -22.253 -13.425  0.00  0.00    +0.221 HD
ENDBRANCH   1   3
BRANCH   1   5
ATOM      5  O   UNL     1      32.327 -24.854 -14.371  0.00  0.00    -0.422 OA
BRANCH   5   6
ATOM      6  C   UNL     1      31.159 -24.413 -14.931  0.00  0.00    +0.147 C 
ATOM      7  C   UNL     1      31.176 -23.345 -15.829  0.00  0.00    +0.039 C 
ATOM      8  C   UNL     1      29.952 -25.030 -14.604  0.00  0.00    +0.039 C 
ATOM      9  C   UNL     1      29.985 -22.896 -16.399  0.00  0.00    +0.027 C 
ATOM     10  C   UNL     1      28.762 -24.580 -15.175  0.00  0.00    +0.027 C 
ATOM     11  C   UNL     1      28.778 -23.514 -16.072  0.00  0.00    +0.143 C 
BRANCH  11  14
ATOM     12  O   UNL     1      26.701 -22.523 -15.916  0.00  0.00    -0.126 OA
ATOM     13  O   UNL     1      27.394 -23.193 -17.888  0.00  0.00    -0.126 OA
ATOM     14  N   UNL     1      27.566 -23.055 -16.653  0.00  0.00    +0.058 N 
ENDBRANCH  11  14
ENDBRANCH   5   6
ENDBRANCH   1   5
BRANCH   1  15
ATOM     15  C   UNL     1      34.068 -22.911 -14.866  0.00  0.00    +0.129 C 
BRANCH  15  16
ATOM     16  C   UNL     1      35.003 -23.681 -15.789  0.00  0.00    +0.023 C 
BRANCH  16  17
ATOM     17  C   UNL     1      36.296 -22.918 -16.067  0.00  0.00    +0.086 C 
BRANCH  17  20
ATOM     18  O   UNL     1      38.638 -23.382 -15.668  0.00  0.00    -0.275 OA
ATOM     19  N   UNL     1      37.063 -24.093 -14.116  0.00  0.00    -0.297 N 
ATOM     20  C   ACE A   0      37.475 -23.475 -15.287  0.00  0.00    +0.223 C 
ATOM     21  H   UNL     1      36.102 -24.111 -13.906  0.00  0.00    +0.150 HD
BRANCH  19  22
ATOM     22  CA  UNL     1      37.982 -24.713 -13.188  0.00  0.00    +0.171 C 
ATOM     23  CB  UNL     1      37.615 -26.174 -12.977  0.00  0.00    +0.033 C 
BRANCH  22  25
ATOM     24  OXT UNL     1      38.846 -23.106 -11.602  0.00  0.00    -0.248 OA
ATOM     25  C   UNL     1      38.024 -23.980 -11.858  0.00  0.00    +0.332 C 
BRANCH  25  26
ATOM     26  O   UNL     1      37.086 -24.373 -10.964  0.00  0.00    -0.479 OA
ATOM     27  H   UNL     1      37.114 -24.052 -10.084  0.00  0.00    +0.295 HD
ENDBRANCH  25  26
ENDBRANCH  22  25
ENDBRANCH  19  22
ENDBRANCH  17  20
ENDBRANCH  16  17
ENDBRANCH  15  16
ENDBRANCH   1  15
TORSDOF 11
ENDMDL
MODEL 6
REMARK VINA RESULT:      -8.9      2.346      3.862
REMARK  Name = 446756
REMARK  11 active torsions:
REMARK  status: ('A' for Active; 'I' for Inactive)
REMARK    1  A    between atoms: P_1  and  O_3
REMARK    2  A    between atoms: P_1  and  O_5
REMARK    3  A    between atoms: P_1  and  C_15
REMARK    4  A    between atoms: O_5  and  C_6
REMARK    5  A    between atoms: C_11  and  N_14
REMARK    6  A    between atoms: C_15  and  C_16
REMARK    7  A    between atoms: C_16  and  C_17
REMARK    8  A    between atoms: C_17  and  C_20
REMARK    9  A    between atoms: N_19  and  CA_22
REMARK   10  A    between atoms: CA_22  and  C_25
REMARK   11  A    between atoms: C_25  and  O_26
REMARK                            x       y       z     vdW  Elec       q    Type
REMARK                         _______ _______ _______ _____ _____    ______ ____
ROOT
ATOM      1  P   UNL     1      34.179 -16.296 -21.424  0.00  0.00    +0.388 P 
ATOM      2  O   UNL     1      35.061 -16.068 -20.243  0.00  0.00    -0.244 OA
ENDROOT
BRANCH   1   3
ATOM      3  O   UNL     1      32.633 -15.872 -21.250  0.00  0.00    -0.315 OA
ATOM      4  H   UNL     1      32.583 -14.986 -20.858  0.00  0.00    +0.221 HD
ENDBRANCH   1   3
BRANCH   1   5
ATOM      5  O   UNL     1      34.135 -17.786 -22.026  0.00  0.00    -0.422 OA
BRANCH   5   6
ATOM      6  C   UNL     1      34.228 -18.927 -21.278  0.00  0.00    +0.147 C 
ATOM      7  C   UNL     1      35.474 -19.510 -21.047  0.00  0.00    +0.039 C 
ATOM      8  C   UNL     1      33.077 -19.510 -20.747  0.00  0.00    +0.039 C 
ATOM      9  C   UNL     1      35.569 -20.675 -20.285  0.00  0.00    +0.027 C 
ATOM     10  C   UNL     1      33.172 -20.674 -19.986  0.00  0.00    +0.027 C 
ATOM     11  C   UNL     1      34.417 -21.257 -19.754  0.00  0.00    +0.143 C 
BRANCH  11  14
ATOM     12  O   UNL     1      33.851 -23.451 -19.323  0.00  0.00    -0.126 OA
ATOM     13  O   UNL     1      35.262 -22.451 -17.972  0.00  0.00    -0.126 OA
ATOM     14  N   UNL     1      34.514 -22.443 -18.979  0.00  0.00    +0.058 N 
ENDBRANCH  11  14
ENDBRANCH   5   6
ENDBRANCH   1   5
BRANCH   1  15
ATOM     15  C   UNL     1      34.672 -15.324 -22.864  0.00  0.00    +0.129 C 
BRANCH  15  16
ATOM     16  C   UNL     1      33.520 -14.569 -23.514  0.00  0.00    +0.023 C 
BRANCH  16  17
ATOM     17  C   UNL     1      33.689 -13.055 -23.405  0.00  0.00    +0.086 C 
BRANCH  17  20
ATOM     18  O   UNL     1      31.779 -13.018 -21.918  0.00  0.00    -0.275 OA
ATOM     19  N   UNL     1      32.487 -11.035 -22.899  0.00  0.00    -0.297 N 
ATOM     20  C   ACE A   0      32.546 -12.398 -22.649  0.00  0.00    +0.223 C 
ATOM     21  H   UNL     1      33.154 -10.639 -23.505  0.00  0.00    +0.150 HD
BRANCH  19  22
ATOM     22  CA  UNL     1      31.490 -10.170 -22.311  0.00  0.00    +0.171 C 
ATOM     23  CB  UNL     1      31.331  -8.906 -23.142  0.00  0.00    +0.033 C 
BRANCH  22  25
ATOM     24  OXT UNL     1      32.477  -8.826 -20.561  0.00  0.00    -0.248 OA
ATOM     25  C   UNL     1      31.826  -9.818 -20.871  0.00  0.00    +0.332 C 
BRANCH  25  26
ATOM     26  O   UNL     1      31.359 -10.693 -19.950  0.00  0.00    -0.479 OA
ATOM     27  H   UNL     1      30.642 -10.453 -19.396  0.00  0.00    +0.295 HD
ENDBRANCH  25  26
ENDBRANCH  22  25
ENDBRANCH  19  22
ENDBRANCH  17  20
ENDBRANCH  16  17
ENDBRANCH  15  16
ENDBRANCH   1  15
TORSDOF 11
ENDMDL
MODEL 7
REMARK VINA RESULT:      -8.8      5.079      9.940
REMARK  Name = 446756
REMARK  11 active torsions:
REMARK  status: ('A' for Active; 'I' for Inactive)
REMARK    1  A    between atoms: P_1  and  O_3
REMARK    2  A    between atoms: P_1  and  O_5
REMARK    3  A    between atoms: P_1  and  C_15
REMARK    4  A    between atoms: O_5  and  C_6
REMARK    5  A    between atoms: C_11  and  N_14
REMARK    6  A    between atoms: C_15  and  C_16
REMARK    7  A    between atoms: C_16  and  C_17
REMARK    8  A    between atoms: C_17  and  C_20
REMARK    9  A    between atoms: N_19  and  CA_22
REMARK   10  A    between atoms: CA_22  and  C_25
REMARK   11  A    between atoms: C_25  and  O_26
REMARK                            x       y       z     vdW  Elec       q    Type
REMARK                         _______ _______ _______ _____ _____    ______ ____
ROOT
ATOM      1  P   UNL     1      34.648 -23.316 -16.465  0.00  0.00    +0.388 P 
ATOM      2  O   UNL     1      35.363 -22.163 -15.844  0.00  0.00    -0.244 OA
ENDROOT
BRANCH   1   3
ATOM      3  O   UNL     1      35.167 -24.784 -16.046  0.00  0.00    -0.315 OA
ATOM      4  H   UNL     1      35.244 -25.339 -16.838  0.00  0.00    +0.221 HD
ENDBRANCH   1   3
BRANCH   1   5
ATOM      5  O   UNL     1      34.568 -23.347 -18.070  0.00  0.00    -0.422 OA
BRANCH   5   6
ATOM      6  C   UNL     1      34.648 -22.241 -18.872  0.00  0.00    +0.147 C 
ATOM      7  C   UNL     1      33.482 -21.631 -19.336  0.00  0.00    +0.039 C 
ATOM      8  C   UNL     1      35.894 -21.724 -19.226  0.00  0.00    +0.039 C 
ATOM      9  C   UNL     1      33.563 -20.505 -20.154  0.00  0.00    +0.027 C 
ATOM     10  C   UNL     1      35.974 -20.598 -20.044  0.00  0.00    +0.027 C 
ATOM     11  C   UNL     1      34.810 -19.988 -20.508  0.00  0.00    +0.143 C 
BRANCH  11  14
ATOM     12  O   UNL     1      35.437 -17.802 -20.894  0.00  0.00    -0.126 OA
ATOM     13  O   UNL     1      34.417 -18.897 -22.501  0.00  0.00    -0.126 OA
ATOM     14  N   UNL     1      34.891 -18.840 -21.341  0.00  0.00    +0.058 N 
ENDBRANCH  11  14
ENDBRANCH   5   6
ENDBRANCH   1   5
BRANCH   1  15
ATOM     15  C   UNL     1      32.904 -23.390 -16.001  0.00  0.00    +0.129 C 
BRANCH  15  16
ATOM     16  C   UNL     1      32.670 -23.342 -14.497  0.00  0.00    +0.023 C 
BRANCH  16  17
ATOM     17  C   UNL     1      31.362 -22.638 -14.140  0.00  0.00    +0.086 C 
BRANCH  17  20
ATOM     18  O   UNL     1      29.983 -24.627 -14.174  0.00  0.00    -0.275 OA
ATOM     19  N   UNL     1      29.257 -22.727 -15.296  0.00  0.00    -0.297 N 
ATOM     20  C   ACE A   0      30.141 -23.460 -14.520  0.00  0.00    +0.223 C 
ATOM     21  H   UNL     1      29.484 -21.795 -15.516  0.00  0.00    +0.150 HD
BRANCH  19  22
ATOM     22  CA  UNL     1      28.015 -23.270 -15.799  0.00  0.00    +0.171 C 
ATOM     23  CB  UNL     1      28.274 -24.137 -17.022  0.00  0.00    +0.033 C 
BRANCH  22  25
ATOM     24  OXT UNL     1      27.161 -21.391 -17.058  0.00  0.00    -0.248 OA
ATOM     25  C   UNL     1      27.011 -22.177 -16.128  0.00  0.00    +0.332 C 
BRANCH  25  26
ATOM     26  O   UNL     1      25.937 -22.128 -15.306  0.00  0.00    -0.479 OA
ATOM     27  H   UNL     1      25.590 -21.299 -15.038  0.00  0.00    +0.295 HD
ENDBRANCH  25  26
ENDBRANCH  22  25
ENDBRANCH  19  22
ENDBRANCH  17  20
ENDBRANCH  16  17
ENDBRANCH  15  16
ENDBRANCH   1  15
TORSDOF 11
ENDMDL
MODEL 8
REMARK VINA RESULT:      -8.8      2.026      3.512
REMARK  Name = 446756
REMARK  11 active torsions:
REMARK  status: ('A' for Active; 'I' for Inactive)
REMARK    1  A    between atoms: P_1  and  O_3
REMARK    2  A    between atoms: P_1  and  O_5
REMARK    3  A    between atoms: P_1  and  C_15
REMARK    4  A    between atoms: O_5  and  C_6
REMARK    5  A    between atoms: C_11  and  N_14
REMARK    6  A    between atoms: C_15  and  C_16
REMARK    7  A    between atoms: C_16  and  C_17
REMARK    8  A    between atoms: C_17  and  C_20
REMARK    9  A    between atoms: N_19  and  CA_22
REMARK   10  A    between atoms: CA_22  and  C_25
REMARK   11  A    between atoms: C_25  and  O_26
REMARK                            x       y       z     vdW  Elec       q    Type
REMARK                         _______ _______ _______ _____ _____    ______ ____
ROOT
ATOM      1  P   UNL     1      34.314 -16.542 -21.400  0.00  0.00    +0.388 P 
ATOM      2  O   UNL     1      35.175 -16.301 -20.207  0.00  0.00    -0.244 OA
ENDROOT
BRANCH   1   3
ATOM      3  O   UNL     1      32.776 -16.072 -21.275  0.00  0.00    -0.315 OA
ATOM      4  H   UNL     1      32.553 -15.493 -22.021  0.00  0.00    +0.221 HD
ENDBRANCH   1   3
BRANCH   1   5
ATOM      5  O   UNL     1      34.243 -18.048 -21.958  0.00  0.00    -0.422 OA
BRANCH   5   6
ATOM      6  C   UNL     1      34.303 -19.168 -21.174  0.00  0.00    +0.147 C 
ATOM      7  C   UNL     1      33.127 -19.748 -20.697  0.00  0.00    +0.039 C 
ATOM      8  C   UNL     1      35.539 -19.729 -20.852  0.00  0.00    +0.039 C 
ATOM      9  C   UNL     1      33.188 -20.889 -19.897  0.00  0.00    +0.027 C 
ATOM     10  C   UNL     1      35.599 -20.870 -20.052  0.00  0.00    +0.027 C 
ATOM     11  C   UNL     1      34.425 -21.450 -19.575  0.00  0.00    +0.143 C 
BRANCH  11  14
ATOM     12  O   UNL     1      33.814 -23.620 -19.087  0.00  0.00    -0.126 OA
ATOM     13  O   UNL     1      35.210 -22.599 -17.736  0.00  0.00    -0.126 OA
ATOM     14  N   UNL     1      34.486 -22.612 -18.760  0.00  0.00    +0.058 N 
ENDBRANCH  11  14
ENDBRANCH   5   6
ENDBRANCH   1   5
BRANCH   1  15
ATOM     15  C   UNL     1      34.865 -15.628 -22.857  0.00  0.00    +0.129 C 
BRANCH  15  16
ATOM     16  C   UNL     1      34.163 -14.289 -23.039  0.00  0.00    +0.023 C 
BRANCH  16  17
ATOM     17  C   UNL     1      33.490 -14.172 -24.406  0.00  0.00    +0.086 C 
BRANCH  17  20
ATOM     18  O   UNL     1      33.531 -12.475 -26.132  0.00  0.00    -0.275 OA
ATOM     19  N   UNL     1      33.478 -11.822 -23.903  0.00  0.00    -0.297 N 
ATOM     20  C   ACE A   0      33.501 -12.748 -24.935  0.00  0.00    +0.223 C 
ATOM     21  H   UNL     1      33.454 -12.151 -22.976  0.00  0.00    +0.150 HD
BRANCH  19  22
ATOM     22  CA  UNL     1      33.487 -10.394 -24.127  0.00  0.00    +0.171 C 
ATOM     23  CB  UNL     1      34.914  -9.892 -24.282  0.00  0.00    +0.033 C 
BRANCH  22  25
ATOM     24  OXT UNL     1      33.198  -8.586 -22.549  0.00  0.00    -0.248 OA
ATOM     25  C   UNL     1      32.779  -9.641 -23.012  0.00  0.00    +0.332 C 
BRANCH  25  26
ATOM     26  O   UNL     1      31.650 -10.233 -22.557  0.00  0.00    -0.479 OA
ATOM     27  H   UNL     1      31.707 -10.967 -21.976  0.00  0.00    +0.295 HD
ENDBRANCH  25  26
ENDBRANCH  22  25
ENDBRANCH  19  22
ENDBRANCH  17  20
ENDBRANCH  16  17
ENDBRANCH  15  16
ENDBRANCH   1  15
TORSDOF 11
ENDMDL
MODEL 9
REMARK VINA RESULT:      -8.7      4.940     11.032
REMARK  Name = 446756
REMARK  11 active torsions:
REMARK  status: ('A' for Active; 'I' for Inactive)
REMARK    1  A    between atoms: P_1  and  O_3
REMARK    2  A    between atoms: P_1  and  O_5
REMARK    3  A    between atoms: P_1  and  C_15
REMARK    4  A    between atoms: O_5  and  C_6
REMARK    5  A    between atoms: C_11  and  N_14
REMARK    6  A    between atoms: C_15  and  C_16
REMARK    7  A    between atoms: C_16  and  C_17
REMARK    8  A    between atoms: C_17  and  C_20
REMARK    9  A    between atoms: N_19  and  CA_22
REMARK   10  A    between atoms: CA_22  and  C_25
REMARK   11  A    between atoms: C_25  and  O_26
REMARK                            x       y       z     vdW  Elec       q    Type
REMARK                         _______ _______ _______ _____ _____    ______ ____
ROOT
ATOM      1  P   UNL     1      33.786 -23.059 -18.064  0.00  0.00    +0.388 P 
ATOM      2  O   UNL     1      35.162 -22.668 -17.642  0.00  0.00    -0.244 OA
ENDROOT
BRANCH   1   3
ATOM      3  O   UNL     1      33.650 -24.467 -18.837  0.00  0.00    -0.315 OA
ATOM      4  H   UNL     1      34.520 -24.738 -19.171  0.00  0.00    +0.221 HD
ENDBRANCH   1   3
BRANCH   1   5
ATOM      5  O   UNL     1      32.974 -22.008 -18.971  0.00  0.00    -0.422 OA
BRANCH   5   6
ATOM      6  C   UNL     1      33.556 -21.046 -19.751  0.00  0.00    +0.147 C 
ATOM      7  C   UNL     1      34.939 -21.039 -19.933  0.00  0.00    +0.039 C 
ATOM      8  C   UNL     1      32.767 -20.072 -20.362  0.00  0.00    +0.039 C 
ATOM      9  C   UNL     1      35.532 -20.057 -20.727  0.00  0.00    +0.027 C 
ATOM     10  C   UNL     1      33.360 -19.091 -21.156  0.00  0.00    +0.027 C 
ATOM     11  C   UNL     1      34.742 -19.083 -21.339  0.00  0.00    +0.143 C 
BRANCH  11  14
ATOM     12  O   UNL     1      35.945 -18.429 -23.195  0.00  0.00    -0.126 OA
ATOM     13  O   UNL     1      35.266 -16.884 -21.792  0.00  0.00    -0.126 OA
ATOM     14  N   UNL     1      35.347 -18.084 -22.147  0.00  0.00    +0.058 N 
ENDBRANCH  11  14
ENDBRANCH   5   6
ENDBRANCH   1   5
BRANCH   1  15
ATOM     15  C   UNL     1      32.665 -23.291 -16.666  0.00  0.00    +0.129 C 
BRANCH  15  16
ATOM     16  C   UNL     1      33.334 -23.103 -15.311  0.00  0.00    +0.023 C 
BRANCH  16  17
ATOM     17  C   UNL     1      33.702 -24.436 -14.661  0.00  0.00    +0.086 C 
BRANCH  17  20
ATOM     18  O   UNL     1      35.921 -24.923 -15.497  0.00  0.00    -0.275 OA
ATOM     19  N   UNL     1      35.645 -24.427 -13.245  0.00  0.00    -0.297 N 
ATOM     20  C   ACE A   0      35.206 -24.626 -14.545  0.00  0.00    +0.223 C 
ATOM     21  H   UNL     1      34.983 -24.191 -12.556  0.00  0.00    +0.150 HD
BRANCH  19  22
ATOM     22  CA  UNL     1      37.031 -24.551 -12.855  0.00  0.00    +0.171 C 
ATOM     23  CB  UNL     1      37.373 -26.006 -12.573  0.00  0.00    +0.033 C 
BRANCH  22  25
ATOM     24  OXT UNL     1      38.189 -22.784 -11.679  0.00  0.00    -0.248 OA
ATOM     25  C   UNL     1      37.359 -23.687 -11.648  0.00  0.00    +0.332 C 
BRANCH  25  26
ATOM     26  O   UNL     1      36.670 -23.998 -10.525  0.00  0.00    -0.479 OA
ATOM     27  H   UNL     1      35.934 -23.478 -10.267  0.00  0.00    +0.295 HD
ENDBRANCH  25  26
ENDBRANCH  22  25
ENDBRANCH  19  22
ENDBRANCH  17  20
ENDBRANCH  16  17
ENDBRANCH  15  16
ENDBRANCH   1  15
TORSDOF 11
ENDMDL
