MODEL 1
REMARK VINA RESULT:      -9.8      0.000      0.000
REMARK  Name = 71236992
REMARK  9 active torsions:
REMARK  status: ('A' for Active; 'I' for Inactive)
REMARK    1  A    between atoms: N_2  and  C_33
REMARK    2  A    between atoms: C_4  and  N_18
REMARK    3  A    between atoms: C_19  and  C_21
REMARK    4  A    between atoms: C_21  and  N_24
REMARK    5  A    between atoms: C_25  and  C_27
REMARK    6  A    between atoms: C_27  and  C_28
REMARK    7  A    between atoms: C_28  and  C_32
REMARK    8  A    between atoms: C_33  and  C_34
REMARK    9  A    between atoms: C_34  and  O_35
REMARK                            x       y       z     vdW  Elec       q    Type
REMARK                         _______ _______ _______ _____ _____    ______ ____
ROOT
ATOM      1  O   UNL     1      31.312 -12.753 -22.088  0.00  0.00    -0.272 OA
ATOM      2  N   UNL     1      32.456 -10.946 -22.989  0.00  0.00    -0.240 N 
ATOM      3  N   UNL     1      33.869  -9.104 -23.476  0.00  0.00    -0.229 NA
ATOM      4  C   UNL     1      33.442 -13.223 -23.086  0.00  0.00    +0.172 C 
ATOM      5  C   UNL     1      33.364 -13.459 -24.571  0.00  0.00    +0.004 C 
ATOM      6  C   UNL     1      33.650 -12.370 -25.421  0.00  0.00    +0.001 C 
ATOM      7  C   UNL     1      32.300 -12.304 -22.676  0.00  0.00    +0.253 C 
ATOM      8  C   UNL     1      34.095 -11.058 -24.889  0.00  0.00    +0.032 C 
ATOM      9  C   UNL     1      33.503 -10.379 -23.804  0.00  0.00    +0.137 C 
ATOM     10  C   UNL     1      32.964 -14.690 -25.121  0.00  0.00    -0.002 C 
ATOM     11  C   UNL     1      33.508 -12.562 -26.813  0.00  0.00    -0.000 C 
ATOM     12  C   UNL     1      35.156 -10.392 -25.543  0.00  0.00    +0.004 C 
ATOM     13  C   UNL     1      32.847 -14.855 -26.500  0.00  0.00    -0.000 C 
ATOM     14  C   UNL     1      33.114 -13.790 -27.347  0.00  0.00    -0.000 C 
ATOM     15  C   UNL     1      35.559  -9.117 -25.176  0.00  0.00    +0.021 C 
ATOM     16  C   UNL     1      34.875  -8.513 -24.150  0.00  0.00    +0.100 C 
ENDROOT
BRANCH   4  18
ATOM     17  O   UNL     1      35.320 -15.401 -23.043  0.00  0.00    -0.273 OA
ATOM     18  N   UNL     1      33.368 -14.411 -22.272  0.00  0.00    -0.294 N 
ATOM     19  C   UNL     1      34.326 -15.415 -22.319  0.00  0.00    +0.241 C 
ATOM     20  H   UNL     1      32.606 -14.516 -21.657  0.00  0.00    +0.150 HD
BRANCH  19  21
ATOM     21  C   UNL     1      34.037 -16.534 -21.327  0.00  0.00    +0.149 C 
ATOM     22  C   UNL     1      33.578 -15.970 -19.991  0.00  0.00    +0.031 C 
BRANCH  21  24
ATOM     23  O   UNL     1      34.428 -19.264 -22.165  0.00  0.00    -0.275 OA
ATOM     24  N   UNL     1      35.233 -17.320 -21.181  0.00  0.00    -0.298 N 
ATOM     25  C   UNL     1      35.330 -18.636 -21.618  0.00  0.00    +0.223 C 
ATOM     26  H   UNL     1      36.018 -16.907 -20.753  0.00  0.00    +0.150 HD
BRANCH  25  27
ATOM     27  C   UNL     1      36.701 -19.222 -21.336  0.00  0.00    +0.094 C 
BRANCH  27  28
ATOM     28  C   UNL     1      36.831 -19.741 -19.907  0.00  0.00    +0.113 C 
BRANCH  28  32
ATOM     29  F   UNL     1      34.833 -20.906 -19.408  0.00  0.00    -0.170 F 
ATOM     30  F   UNL     1      36.202 -21.821 -20.843  0.00  0.00    -0.170 F 
ATOM     31  F   UNL     1      36.713 -21.774 -18.724  0.00  0.00    -0.170 F 
ATOM     32  C   UNL     1      36.135 -21.071 -19.723  0.00  0.00    +0.398 C 
ENDBRANCH  28  32
ENDBRANCH  27  28
ENDBRANCH  25  27
ENDBRANCH  21  24
ENDBRANCH  19  21
ENDBRANCH   4  18
BRANCH   2  33
ATOM     33  C   UNL     1      31.549  -9.982 -22.361  0.00  0.00    +0.131 C 
BRANCH  33  34
ATOM     34  C   UNL     1      31.874  -9.785 -20.892  0.00  0.00    +0.159 C 
BRANCH  34  35
ATOM     35  O   UNL     1      32.592  -8.568 -20.726  0.00  0.00    -0.380 OA
ATOM     36  H   UNL     1      33.363  -8.723 -20.159  0.00  0.00    +0.211 HD
ENDBRANCH  34  35
ENDBRANCH  33  34
ENDBRANCH   2  33
TORSDOF 9
ENDMDL
MODEL 2
REMARK VINA RESULT:      -9.1      1.997      2.283
REMARK  Name = 71236992
REMARK  9 active torsions:
REMARK  status: ('A' for Active; 'I' for Inactive)
REMARK    1  A    between atoms: N_2  and  C_33
REMARK    2  A    between atoms: C_4  and  N_18
REMARK    3  A    between atoms: C_19  and  C_21
REMARK    4  A    between atoms: C_21  and  N_24
REMARK    5  A    between atoms: C_25  and  C_27
REMARK    6  A    between atoms: C_27  and  C_28
REMARK    7  A    between atoms: C_28  and  C_32
REMARK    8  A    between atoms: C_33  and  C_34
REMARK    9  A    between atoms: C_34  and  O_35
REMARK                            x       y       z     vdW  Elec       q    Type
REMARK                         _______ _______ _______ _____ _____    ______ ____
ROOT
ATOM      1  O   UNL     1      31.288 -12.534 -22.000  0.00  0.00    -0.272 OA
ATOM      2  N   UNL     1      32.398 -10.704 -22.899  0.00  0.00    -0.240 N 
ATOM      3  N   UNL     1      33.776  -8.835 -23.382  0.00  0.00    -0.229 NA
ATOM      4  C   UNL     1      33.428 -12.962 -22.997  0.00  0.00    +0.172 C 
ATOM      5  C   UNL     1      33.356 -13.197 -24.482  0.00  0.00    +0.004 C 
ATOM      6  C   UNL     1      33.622 -12.102 -25.331  0.00  0.00    +0.001 C 
ATOM      7  C   UNL     1      32.268 -12.065 -22.587  0.00  0.00    +0.253 C 
ATOM      8  C   UNL     1      34.041 -10.783 -24.797  0.00  0.00    +0.032 C 
ATOM      9  C   UNL     1      33.434 -10.116 -23.712  0.00  0.00    +0.137 C 
ATOM     10  C   UNL     1      32.980 -14.435 -25.034  0.00  0.00    -0.002 C 
ATOM     11  C   UNL     1      33.484 -12.295 -26.723  0.00  0.00    -0.000 C 
ATOM     12  C   UNL     1      35.089 -10.096 -25.450  0.00  0.00    +0.004 C 
ATOM     13  C   UNL     1      32.867 -14.601 -26.413  0.00  0.00    -0.000 C 
ATOM     14  C   UNL     1      33.115 -13.530 -27.258  0.00  0.00    -0.000 C 
ATOM     15  C   UNL     1      35.467  -8.813 -25.081  0.00  0.00    +0.021 C 
ATOM     16  C   UNL     1      34.772  -8.223 -24.055  0.00  0.00    +0.100 C 
ENDROOT
BRANCH   4  18
ATOM     17  O   UNL     1      35.333 -15.115 -22.973  0.00  0.00    -0.273 OA
ATOM     18  N   UNL     1      33.376 -14.152 -22.184  0.00  0.00    -0.294 N 
ATOM     19  C   UNL     1      34.346 -15.143 -22.241  0.00  0.00    +0.241 C 
ATOM     20  H   UNL     1      32.620 -14.267 -21.563  0.00  0.00    +0.150 HD
BRANCH  19  21
ATOM     21  C   UNL     1      34.079 -16.267 -21.249  0.00  0.00    +0.149 C 
ATOM     22  C   UNL     1      34.681 -15.946 -19.889  0.00  0.00    +0.031 C 
BRANCH  21  24
ATOM     23  O   UNL     1      33.170 -18.957 -20.751  0.00  0.00    -0.275 OA
ATOM     24  N   UNL     1      34.631 -17.480 -21.791  0.00  0.00    -0.298 N 
ATOM     25  C   UNL     1      34.123 -18.740 -21.494  0.00  0.00    +0.223 C 
ATOM     26  H   UNL     1      35.401 -17.416 -22.401  0.00  0.00    +0.150 HD
BRANCH  25  27
ATOM     27  C   UNL     1      34.896 -19.839 -22.200  0.00  0.00    +0.094 C 
BRANCH  27  28
ATOM     28  C   UNL     1      35.612 -19.337 -23.451  0.00  0.00    +0.113 C 
BRANCH  28  32
ATOM     29  F   UNL     1      34.949 -18.364 -25.503  0.00  0.00    -0.170 F 
ATOM     30  F   UNL     1      34.939 -20.544 -25.371  0.00  0.00    -0.170 F 
ATOM     31  F   UNL     1      33.424 -19.379 -24.320  0.00  0.00    -0.170 F 
ATOM     32  C   UNL     1      34.727 -19.407 -24.675  0.00  0.00    +0.398 C 
ENDBRANCH  28  32
ENDBRANCH  27  28
ENDBRANCH  25  27
ENDBRANCH  21  24
ENDBRANCH  19  21
ENDBRANCH   4  18
BRANCH   2  33
ATOM     33  C   UNL     1      31.472  -9.758 -22.270  0.00  0.00    +0.131 C 
BRANCH  33  34
ATOM     34  C   UNL     1      31.782  -9.569 -20.796  0.00  0.00    +0.159 C 
BRANCH  34  35
ATOM     35  O   UNL     1      32.653  -8.457 -20.635  0.00  0.00    -0.380 OA
ATOM     36  H   UNL     1      33.100  -8.519 -19.776  0.00  0.00    +0.211 HD
ENDBRANCH  34  35
ENDBRANCH  33  34
ENDBRANCH   2  33
TORSDOF 9
ENDMDL
MODEL 3
REMARK VINA RESULT:      -8.9      1.716      2.153
REMARK  Name = 71236992
REMARK  9 active torsions:
REMARK  status: ('A' for Active; 'I' for Inactive)
REMARK    1  A    between atoms: N_2  and  C_33
REMARK    2  A    between atoms: C_4  and  N_18
REMARK    3  A    between atoms: C_19  and  C_21
REMARK    4  A    between atoms: C_21  and  N_24
REMARK    5  A    between atoms: C_25  and  C_27
REMARK    6  A    between atoms: C_27  and  C_28
REMARK    7  A    between atoms: C_28  and  C_32
REMARK    8  A    between atoms: C_33  and  C_34
REMARK    9  A    between atoms: C_34  and  O_35
REMARK                            x       y       z     vdW  Elec       q    Type
REMARK                         _______ _______ _______ _____ _____    ______ ____
ROOT
ATOM      1  O   UNL     1      32.023 -14.687 -21.965  0.00  0.00    -0.272 OA
ATOM      2  N   UNL     1      32.244 -12.393 -22.247  0.00  0.00    -0.240 N 
ATOM      3  N   UNL     1      32.771 -10.083 -22.140  0.00  0.00    -0.229 NA
ATOM      4  C   UNL     1      33.961 -13.935 -23.163  0.00  0.00    +0.172 C 
ATOM      5  C   UNL     1      33.709 -13.732 -24.634  0.00  0.00    +0.004 C 
ATOM      6  C   UNL     1      33.419 -12.423 -25.073  0.00  0.00    +0.001 C 
ATOM      7  C   UNL     1      32.654 -13.723 -22.410  0.00  0.00    +0.253 C 
ATOM      8  C   UNL     1      33.440 -11.265 -24.145  0.00  0.00    +0.032 C 
ATOM      9  C   UNL     1      32.845 -11.238 -22.866  0.00  0.00    +0.137 C 
ATOM     10  C   UNL     1      33.696 -14.797 -25.553  0.00  0.00    -0.002 C 
ATOM     11  C   UNL     1      33.109 -12.236 -26.438  0.00  0.00    -0.000 C 
ATOM     12  C   UNL     1      34.046 -10.066 -24.582  0.00  0.00    +0.004 C 
ATOM     13  C   UNL     1      33.402 -14.580 -26.897  0.00  0.00    -0.000 C 
ATOM     14  C   UNL     1      33.104 -13.300 -27.340  0.00  0.00    -0.000 C 
ATOM     15  C   UNL     1      34.013  -8.907 -23.819  0.00  0.00    +0.021 C 
ATOM     16  C   UNL     1      33.352  -8.964 -22.617  0.00  0.00    +0.100 C 
ENDROOT
BRANCH   4  18
ATOM     17  O   UNL     1      34.831 -14.778 -20.555  0.00  0.00    -0.273 OA
ATOM     18  N   UNL     1      34.475 -15.233 -22.802  0.00  0.00    -0.294 N 
ATOM     19  C   UNL     1      34.872 -15.551 -21.510  0.00  0.00    +0.241 C 
ATOM     20  H   UNL     1      34.547 -15.924 -23.501  0.00  0.00    +0.150 HD
BRANCH  19  21
ATOM     21  C   UNL     1      35.330 -16.998 -21.389  0.00  0.00    +0.149 C 
ATOM     22  C   UNL     1      35.793 -17.537 -22.734  0.00  0.00    +0.031 C 
BRANCH  21  24
ATOM     23  O   UNL     1      35.014 -19.862 -21.505  0.00  0.00    -0.275 OA
ATOM     24  N   UNL     1      34.233 -17.769 -20.866  0.00  0.00    -0.298 N 
ATOM     25  C   UNL     1      34.166 -19.154 -20.969  0.00  0.00    +0.223 C 
ATOM     26  H   UNL     1      33.497 -17.296 -20.415  0.00  0.00    +0.150 HD
BRANCH  25  27
ATOM     27  C   UNL     1      32.902 -19.705 -20.335  0.00  0.00    +0.094 C 
BRANCH  27  28
ATOM     28  C   UNL     1      32.823 -21.227 -20.419  0.00  0.00    +0.113 C 
BRANCH  28  32
ATOM     29  F   UNL     1      34.590 -21.220 -18.846  0.00  0.00    -0.170 F 
ATOM     30  F   UNL     1      32.649 -21.968 -18.179  0.00  0.00    -0.170 F 
ATOM     31  F   UNL     1      33.864 -23.152 -19.550  0.00  0.00    -0.170 F 
ATOM     32  C   UNL     1      33.487 -21.893 -19.234  0.00  0.00    +0.398 C 
ENDBRANCH  28  32
ENDBRANCH  27  28
ENDBRANCH  25  27
ENDBRANCH  21  24
ENDBRANCH  19  21
ENDBRANCH   4  18
BRANCH   2  33
ATOM     33  C   UNL     1      31.175 -12.112 -21.285  0.00  0.00    +0.131 C 
BRANCH  33  34
ATOM     34  C   UNL     1      31.729 -11.853 -19.895  0.00  0.00    +0.159 C 
BRANCH  34  35
ATOM     35  O   UNL     1      31.362 -10.544 -19.477  0.00  0.00    -0.380 OA
ATOM     36  H   UNL     1      30.625 -10.226 -20.021  0.00  0.00    +0.211 HD
ENDBRANCH  34  35
ENDBRANCH  33  34
ENDBRANCH   2  33
TORSDOF 9
ENDMDL
MODEL 4
REMARK VINA RESULT:      -7.9      2.753      4.680
REMARK  Name = 71236992
REMARK  9 active torsions:
REMARK  status: ('A' for Active; 'I' for Inactive)
REMARK    1  A    between atoms: N_2  and  C_33
REMARK    2  A    between atoms: C_4  and  N_18
REMARK    3  A    between atoms: C_19  and  C_21
REMARK    4  A    between atoms: C_21  and  N_24
REMARK    5  A    between atoms: C_25  and  C_27
REMARK    6  A    between atoms: C_27  and  C_28
REMARK    7  A    between atoms: C_28  and  C_32
REMARK    8  A    between atoms: C_33  and  C_34
REMARK    9  A    between atoms: C_34  and  O_35
REMARK                            x       y       z     vdW  Elec       q    Type
REMARK                         _______ _______ _______ _____ _____    ______ ____
ROOT
ATOM      1  O   UNL     1      35.106 -11.595 -24.185  0.00  0.00    -0.272 OA
ATOM      2  N   UNL     1      33.831  -9.660 -24.055  0.00  0.00    -0.240 N 
ATOM      3  N   UNL     1      32.452  -7.763 -24.409  0.00  0.00    -0.229 NA
ATOM      4  C   UNL     1      32.736 -11.887 -23.954  0.00  0.00    +0.172 C 
ATOM      5  C   UNL     1      32.271 -11.864 -22.522  0.00  0.00    +0.004 C 
ATOM      6  C   UNL     1      31.770 -10.645 -22.017  0.00  0.00    +0.001 C 
ATOM      7  C   UNL     1      34.004 -11.051 -24.069  0.00  0.00    +0.253 C 
ATOM      8  C   UNL     1      31.623  -9.445 -22.877  0.00  0.00    +0.032 C 
ATOM      9  C   UNL     1      32.601  -8.962 -23.772  0.00  0.00    +0.137 C 
ATOM     10  C   UNL     1      32.375 -12.982 -21.674  0.00  0.00    -0.002 C 
ATOM     11  C   UNL     1      31.401 -10.595 -20.655  0.00  0.00    -0.000 C 
ATOM     12  C   UNL     1      30.443  -8.676 -22.761  0.00  0.00    +0.004 C 
ATOM     13  C   UNL     1      31.988 -12.907 -20.338  0.00  0.00    -0.000 C 
ATOM     14  C   UNL     1      31.505 -11.712 -19.826  0.00  0.00    -0.000 C 
ATOM     15  C   UNL     1      30.274  -7.483 -23.448  0.00  0.00    +0.021 C 
ATOM     16  C   UNL     1      31.311  -7.064 -24.244  0.00  0.00    +0.100 C 
ENDROOT
BRANCH   4  18
ATOM     17  O   UNL     1      33.069 -12.587 -26.723  0.00  0.00    -0.273 OA
ATOM     18  N   UNL     1      33.020 -13.198 -24.485  0.00  0.00    -0.294 N 
ATOM     19  C   UNL     1      33.164 -13.441 -25.845  0.00  0.00    +0.241 C 
ATOM     20  H   UNL     1      33.114 -13.951 -23.858  0.00  0.00    +0.150 HD
BRANCH  19  21
ATOM     21  C   UNL     1      33.507 -14.896 -26.135  0.00  0.00    +0.149 C 
ATOM     22  C   UNL     1      32.325 -15.617 -26.765  0.00  0.00    +0.031 C 
BRANCH  21  24
ATOM     23  O   UNL     1      34.898 -17.401 -25.816  0.00  0.00    -0.275 OA
ATOM     24  N   UNL     1      33.898 -15.517 -24.897  0.00  0.00    -0.298 N 
ATOM     25  C   UNL     1      34.570 -16.732 -24.840  0.00  0.00    +0.223 C 
ATOM     26  H   UNL     1      33.681 -15.060 -24.052  0.00  0.00    +0.150 HD
BRANCH  25  27
ATOM     27  C   UNL     1      34.856 -17.151 -23.410  0.00  0.00    +0.094 C 
BRANCH  27  28
ATOM     28  C   UNL     1      34.927 -15.962 -22.456  0.00  0.00    +0.113 C 
BRANCH  28  32
ATOM     29  F   UNL     1      34.681 -15.305 -20.197  0.00  0.00    -0.170 F 
ATOM     30  F   UNL     1      33.252 -16.755 -20.987  0.00  0.00    -0.170 F 
ATOM     31  F   UNL     1      35.312 -17.354 -20.596  0.00  0.00    -0.170 F 
ATOM     32  C   UNL     1      34.535 -16.344 -21.046  0.00  0.00    +0.398 C 
ENDBRANCH  28  32
ENDBRANCH  27  28
ENDBRANCH  25  27
ENDBRANCH  21  24
ENDBRANCH  19  21
ENDBRANCH   4  18
BRANCH   2  33
ATOM     33  C   UNL     1      34.958  -8.819 -24.463  0.00  0.00    +0.131 C 
BRANCH  33  34
ATOM     34  C   UNL     1      35.028  -7.543 -23.642  0.00  0.00    +0.159 C 
BRANCH  34  35
ATOM     35  O   UNL     1      34.912  -6.419 -24.505  0.00  0.00    -0.380 OA
ATOM     36  H   UNL     1      34.391  -6.664 -25.286  0.00  0.00    +0.211 HD
ENDBRANCH  34  35
ENDBRANCH  33  34
ENDBRANCH   2  33
TORSDOF 9
ENDMDL
MODEL 5
REMARK VINA RESULT:      -7.7      4.311      8.128
REMARK  Name = 71236992
REMARK  9 active torsions:
REMARK  status: ('A' for Active; 'I' for Inactive)
REMARK    1  A    between atoms: N_2  and  C_33
REMARK    2  A    between atoms: C_4  and  N_18
REMARK    3  A    between atoms: C_19  and  C_21
REMARK    4  A    between atoms: C_21  and  N_24
REMARK    5  A    between atoms: C_25  and  C_27
REMARK    6  A    between atoms: C_27  and  C_28
REMARK    7  A    between atoms: C_28  and  C_32
REMARK    8  A    between atoms: C_33  and  C_34
REMARK    9  A    between atoms: C_34  and  O_35
REMARK                            x       y       z     vdW  Elec       q    Type
REMARK                         _______ _______ _______ _____ _____    ______ ____
ROOT
ATOM      1  O   UNL     1      32.080 -12.956 -25.209  0.00  0.00    -0.272 OA
ATOM      2  N   UNL     1      33.121 -15.031 -25.168  0.00  0.00    -0.240 N 
ATOM      3  N   UNL     1      34.534 -16.921 -25.396  0.00  0.00    -0.229 NA
ATOM      4  C   UNL     1      33.798 -13.261 -23.563  0.00  0.00    +0.172 C 
ATOM      5  C   UNL     1      33.296 -13.885 -22.288  0.00  0.00    +0.004 C 
ATOM      6  C   UNL     1      33.454 -15.278 -22.135  0.00  0.00    +0.001 C 
ATOM      7  C   UNL     1      32.913 -13.721 -24.713  0.00  0.00    +0.253 C 
ATOM      8  C   UNL     1      34.162 -16.100 -23.148  0.00  0.00    +0.032 C 
ATOM      9  C   UNL     1      33.961 -16.022 -24.542  0.00  0.00    +0.137 C 
ATOM     10  C   UNL     1      32.634 -13.143 -21.292  0.00  0.00    -0.002 C 
ATOM     11  C   UNL     1      32.920 -15.882 -20.976  0.00  0.00    -0.000 C 
ATOM     12  C   UNL     1      35.069 -17.086 -22.699  0.00  0.00    +0.004 C 
ATOM     13  C   UNL     1      32.131 -13.763 -20.151  0.00  0.00    -0.000 C 
ATOM     14  C   UNL     1      32.270 -15.134 -19.994  0.00  0.00    -0.000 C 
ATOM     15  C   UNL     1      35.689 -17.966 -23.574  0.00  0.00    +0.021 C 
ATOM     16  C   UNL     1      35.376 -17.853 -24.906  0.00  0.00    +0.100 C 
ENDROOT
BRANCH   4  18
ATOM     17  O   UNL     1      34.560 -11.566 -25.757  0.00  0.00    -0.273 OA
ATOM     18  N   UNL     1      33.823 -11.819 -23.572  0.00  0.00    -0.294 N 
ATOM     19  C   UNL     1      34.207 -11.082 -24.684  0.00  0.00    +0.241 C 
ATOM     20  H   UNL     1      33.557 -11.337 -22.756  0.00  0.00    +0.150 HD
BRANCH  19  21
ATOM     21  C   UNL     1      34.099  -9.582 -24.445  0.00  0.00    +0.149 C 
ATOM     22  C   UNL     1      35.476  -8.942 -24.372  0.00  0.00    +0.031 C 
BRANCH  21  24
ATOM     23  O   UNL     1      32.334  -7.385 -23.836  0.00  0.00    -0.275 OA
ATOM     24  N   UNL     1      33.361  -9.378 -23.227  0.00  0.00    -0.298 N 
ATOM     25  C   UNL     1      32.529  -8.283 -23.022  0.00  0.00    +0.223 C 
ATOM     26  H   UNL     1      33.448 -10.043 -22.507  0.00  0.00    +0.150 HD
BRANCH  25  27
ATOM     27  C   UNL     1      31.879  -8.319 -21.651  0.00  0.00    +0.094 C 
BRANCH  27  28
ATOM     28  C   UNL     1      31.701  -9.741 -21.127  0.00  0.00    +0.113 C 
BRANCH  28  32
ATOM     29  F   UNL     1      30.501 -10.455 -19.217  0.00  0.00    -0.170 F 
ATOM     30  F   UNL     1      32.678 -10.368 -19.065  0.00  0.00    -0.170 F 
ATOM     31  F   UNL     1      31.513  -8.525 -19.118  0.00  0.00    -0.170 F 
ATOM     32  C   UNL     1      31.598  -9.778 -19.618  0.00  0.00    +0.398 C 
ENDBRANCH  28  32
ENDBRANCH  27  28
ENDBRANCH  25  27
ENDBRANCH  21  24
ENDBRANCH  19  21
ENDBRANCH   4  18
BRANCH   2  33
ATOM     33  C   UNL     1      32.524 -15.421 -26.448  0.00  0.00    +0.131 C 
BRANCH  33  34
ATOM     34  C   UNL     1      32.551 -14.280 -27.448  0.00  0.00    +0.159 C 
BRANCH  34  35
ATOM     35  O   UNL     1      33.898 -13.884 -27.677  0.00  0.00    -0.380 OA
ATOM     36  H   UNL     1      34.338 -13.729 -26.826  0.00  0.00    +0.211 HD
ENDBRANCH  34  35
ENDBRANCH  33  34
ENDBRANCH   2  33
TORSDOF 9
ENDMDL
MODEL 6
REMARK VINA RESULT:      -7.3      2.165      4.365
REMARK  Name = 71236992
REMARK  9 active torsions:
REMARK  status: ('A' for Active; 'I' for Inactive)
REMARK    1  A    between atoms: N_2  and  C_33
REMARK    2  A    between atoms: C_4  and  N_18
REMARK    3  A    between atoms: C_19  and  C_21
REMARK    4  A    between atoms: C_21  and  N_24
REMARK    5  A    between atoms: C_25  and  C_27
REMARK    6  A    between atoms: C_27  and  C_28
REMARK    7  A    between atoms: C_28  and  C_32
REMARK    8  A    between atoms: C_33  and  C_34
REMARK    9  A    between atoms: C_34  and  O_35
REMARK                            x       y       z     vdW  Elec       q    Type
REMARK                         _______ _______ _______ _____ _____    ______ ____
ROOT
ATOM      1  O   UNL     1      35.080 -11.463 -23.700  0.00  0.00    -0.272 OA
ATOM      2  N   UNL     1      33.808  -9.529 -23.872  0.00  0.00    -0.240 N 
ATOM      3  N   UNL     1      32.452  -7.694 -24.522  0.00  0.00    -0.229 NA
ATOM      4  C   UNL     1      32.701 -11.725 -23.526  0.00  0.00    +0.172 C 
ATOM      5  C   UNL     1      32.180 -11.517 -22.129  0.00  0.00    +0.004 C 
ATOM      6  C   UNL     1      31.666 -10.244 -21.806  0.00  0.00    +0.001 C 
ATOM      7  C   UNL     1      33.976 -10.910 -23.699  0.00  0.00    +0.253 C 
ATOM      8  C   UNL     1      31.557  -9.165 -22.819  0.00  0.00    +0.032 C 
ATOM      9  C   UNL     1      32.571  -8.801 -23.730  0.00  0.00    +0.137 C 
ATOM     10  C   UNL     1      32.247 -12.516 -21.140  0.00  0.00    -0.002 C 
ATOM     11  C   UNL     1      31.244 -10.018 -20.477  0.00  0.00    -0.000 C 
ATOM     12  C   UNL     1      30.376  -8.389 -22.850  0.00  0.00    +0.004 C 
ATOM     13  C   UNL     1      31.809 -12.270 -19.841  0.00  0.00    -0.000 C 
ATOM     14  C   UNL     1      31.311 -11.019 -19.508  0.00  0.00    -0.000 C 
ATOM     15  C   UNL     1      30.239  -7.295 -23.691  0.00  0.00    +0.021 C 
ATOM     16  C   UNL     1      31.308  -6.982 -24.494  0.00  0.00    +0.100 C 
ENDROOT
BRANCH   4  18
ATOM     17  O   UNL     1      33.344 -12.739 -26.139  0.00  0.00    -0.273 OA
ATOM     18  N   UNL     1      33.000 -13.093 -23.872  0.00  0.00    -0.294 N 
ATOM     19  C   UNL     1      33.301 -13.491 -25.168  0.00  0.00    +0.241 C 
ATOM     20  H   UNL     1      32.990 -13.773 -23.161  0.00  0.00    +0.150 HD
BRANCH  19  21
ATOM     21  C   UNL     1      33.623 -14.977 -25.253  0.00  0.00    +0.149 C 
ATOM     22  C   UNL     1      32.742 -15.666 -26.284  0.00  0.00    +0.031 C 
BRANCH  21  24
ATOM     23  O   UNL     1      35.671 -16.056 -23.535  0.00  0.00    -0.275 OA
ATOM     24  N   UNL     1      33.442 -15.547 -23.945  0.00  0.00    -0.298 N 
ATOM     25  C   UNL     1      34.495 -16.045 -23.185  0.00  0.00    +0.223 C 
ATOM     26  H   UNL     1      32.533 -15.585 -23.570  0.00  0.00    +0.150 HD
BRANCH  25  27
ATOM     27  C   UNL     1      34.018 -16.586 -21.850  0.00  0.00    +0.094 C 
BRANCH  27  28
ATOM     28  C   UNL     1      35.001 -17.582 -21.240  0.00  0.00    +0.113 C 
BRANCH  28  32
ATOM     29  F   UNL     1      33.143 -18.991 -20.836  0.00  0.00    -0.170 F 
ATOM     30  F   UNL     1      34.522 -19.571 -22.429  0.00  0.00    -0.170 F 
ATOM     31  F   UNL     1      35.124 -19.756 -20.341  0.00  0.00    -0.170 F 
ATOM     32  C   UNL     1      34.439 -18.986 -21.215  0.00  0.00    +0.398 C 
ENDBRANCH  28  32
ENDBRANCH  27  28
ENDBRANCH  25  27
ENDBRANCH  21  24
ENDBRANCH  19  21
ENDBRANCH   4  18
BRANCH   2  33
ATOM     33  C   UNL     1      34.954  -8.746 -24.341  0.00  0.00    +0.131 C 
BRANCH  33  34
ATOM     34  C   UNL     1      35.041  -7.405 -23.634  0.00  0.00    +0.159 C 
BRANCH  34  35
ATOM     35  O   UNL     1      34.917  -6.358 -24.588  0.00  0.00    -0.380 OA
ATOM     36  H   UNL     1      35.756  -5.875 -24.649  0.00  0.00    +0.211 HD
ENDBRANCH  34  35
ENDBRANCH  33  34
ENDBRANCH   2  33
TORSDOF 9
ENDMDL
MODEL 7
REMARK VINA RESULT:      -7.1      6.713     13.666
REMARK  Name = 71236992
REMARK  9 active torsions:
REMARK  status: ('A' for Active; 'I' for Inactive)
REMARK    1  A    between atoms: N_2  and  C_33
REMARK    2  A    between atoms: C_4  and  N_18
REMARK    3  A    between atoms: C_19  and  C_21
REMARK    4  A    between atoms: C_21  and  N_24
REMARK    5  A    between atoms: C_25  and  C_27
REMARK    6  A    between atoms: C_27  and  C_28
REMARK    7  A    between atoms: C_28  and  C_32
REMARK    8  A    between atoms: C_33  and  C_34
REMARK    9  A    between atoms: C_34  and  O_35
REMARK                            x       y       z     vdW  Elec       q    Type
REMARK                         _______ _______ _______ _____ _____    ______ ____
ROOT
ATOM      1  O   UNL     1      34.944 -25.527 -17.008  0.00  0.00    -0.272 OA
ATOM      2  N   UNL     1      35.783 -25.374 -14.849  0.00  0.00    -0.240 N 
ATOM      3  N   UNL     1      36.994 -24.942 -12.856  0.00  0.00    -0.229 NA
ATOM      4  C   UNL     1      34.387 -23.543 -15.780  0.00  0.00    +0.172 C 
ATOM      5  C   UNL     1      33.167 -23.703 -14.913  0.00  0.00    +0.004 C 
ATOM      6  C   UNL     1      33.368 -24.012 -13.551  0.00  0.00    +0.001 C 
ATOM      7  C   UNL     1      35.049 -24.904 -15.948  0.00  0.00    +0.253 C 
ATOM      8  C   UNL     1      34.727 -24.097 -12.962  0.00  0.00    +0.032 C 
ATOM      9  C   UNL     1      35.821 -24.777 -13.537  0.00  0.00    +0.137 C 
ATOM     10  C   UNL     1      31.859 -23.614 -15.424  0.00  0.00    -0.002 C 
ATOM     11  C   UNL     1      32.228 -24.237 -12.748  0.00  0.00    -0.000 C 
ATOM     12  C   UNL     1      34.948 -23.508 -11.696  0.00  0.00    +0.004 C 
ATOM     13  C   UNL     1      30.753 -23.826 -14.604  0.00  0.00    -0.000 C 
ATOM     14  C   UNL     1      30.937 -24.142 -13.267  0.00  0.00    -0.000 C 
ATOM     15  C   UNL     1      36.158 -23.636 -11.029  0.00  0.00    +0.021 C 
ATOM     16  C   UNL     1      37.140 -24.373 -11.643  0.00  0.00    +0.100 C 
ENDROOT
BRANCH   4  18
ATOM     17  O   UNL     1      36.207 -21.992 -17.377  0.00  0.00    -0.273 OA
ATOM     18  N   UNL     1      34.139 -23.006 -17.095  0.00  0.00    -0.294 N 
ATOM     19  C   UNL     1      35.083 -22.265 -17.794  0.00  0.00    +0.241 C 
ATOM     20  H   UNL     1      33.264 -23.171 -17.516  0.00  0.00    +0.150 HD
BRANCH  19  21
ATOM     21  C   UNL     1      34.587 -21.858 -19.175  0.00  0.00    +0.149 C 
ATOM     22  C   UNL     1      34.605 -23.042 -20.129  0.00  0.00    +0.031 C 
BRANCH  21  24
ATOM     23  O   UNL     1      33.956 -19.954 -21.246  0.00  0.00    -0.275 OA
ATOM     24  N   UNL     1      35.425 -20.790 -19.652  0.00  0.00    -0.298 N 
ATOM     25  C   UNL     1      35.034 -19.916 -20.660  0.00  0.00    +0.223 C 
ATOM     26  H   UNL     1      36.313 -20.671 -19.246  0.00  0.00    +0.150 HD
BRANCH  25  27
ATOM     27  C   UNL     1      36.110 -18.890 -20.963  0.00  0.00    +0.094 C 
BRANCH  27  28
ATOM     28  C   UNL     1      35.759 -18.014 -22.163  0.00  0.00    +0.113 C 
BRANCH  28  32
ATOM     29  F   UNL     1      33.643 -16.998 -21.864  0.00  0.00    -0.170 F 
ATOM     30  F   UNL     1      35.238 -16.433 -20.482  0.00  0.00    -0.170 F 
ATOM     31  F   UNL     1      35.287 -15.739 -22.548  0.00  0.00    -0.170 F 
ATOM     32  C   UNL     1      34.973 -16.788 -21.756  0.00  0.00    +0.398 C 
ENDBRANCH  28  32
ENDBRANCH  27  28
ENDBRANCH  25  27
ENDBRANCH  21  24
ENDBRANCH  19  21
ENDBRANCH   4  18
BRANCH   2  33
ATOM     33  C   UNL     1      36.679 -26.515 -15.053  0.00  0.00    +0.131 C 
BRANCH  33  34
ATOM     34  C   UNL     1      38.109 -26.065 -15.294  0.00  0.00    +0.159 C 
BRANCH  34  35
ATOM     35  O   UNL     1      38.983 -26.784 -14.432  0.00  0.00    -0.380 OA
ATOM     36  H   UNL     1      38.759 -26.587 -13.509  0.00  0.00    +0.211 HD
ENDBRANCH  34  35
ENDBRANCH  33  34
ENDBRANCH   2  33
TORSDOF 9
ENDMDL
MODEL 8
REMARK VINA RESULT:      -7.0      3.324      5.955
REMARK  Name = 71236992
REMARK  9 active torsions:
REMARK  status: ('A' for Active; 'I' for Inactive)
REMARK    1  A    between atoms: N_2  and  C_33
REMARK    2  A    between atoms: C_4  and  N_18
REMARK    3  A    between atoms: C_19  and  C_21
REMARK    4  A    between atoms: C_21  and  N_24
REMARK    5  A    between atoms: C_25  and  C_27
REMARK    6  A    between atoms: C_27  and  C_28
REMARK    7  A    between atoms: C_28  and  C_32
REMARK    8  A    between atoms: C_33  and  C_34
REMARK    9  A    between atoms: C_34  and  O_35
REMARK                            x       y       z     vdW  Elec       q    Type
REMARK                         _______ _______ _______ _____ _____    ______ ____
ROOT
ATOM      1  O   UNL     1      35.367  -9.327 -23.733  0.00  0.00    -0.272 OA
ATOM      2  N   UNL     1      34.143  -7.403 -24.166  0.00  0.00    -0.240 N 
ATOM      3  N   UNL     1      32.823  -5.644 -25.055  0.00  0.00    -0.229 NA
ATOM      4  C   UNL     1      32.987  -9.493 -23.487  0.00  0.00    +0.172 C 
ATOM      5  C   UNL     1      32.498  -9.070 -22.127  0.00  0.00    +0.004 C 
ATOM      6  C   UNL     1      32.023  -7.750 -21.984  0.00  0.00    +0.001 C 
ATOM      7  C   UNL     1      34.278  -8.748 -23.796  0.00  0.00    +0.253 C 
ATOM      8  C   UNL     1      31.923  -6.826 -23.142  0.00  0.00    +0.032 C 
ATOM      9  C   UNL     1      32.928  -6.627 -24.112  0.00  0.00    +0.137 C 
ATOM     10  C   UNL     1      32.558  -9.917 -21.005  0.00  0.00    -0.002 C 
ATOM     11  C   UNL     1      31.632  -7.322 -20.697  0.00  0.00    -0.000 C 
ATOM     12  C   UNL     1      30.762  -6.030 -23.268  0.00  0.00    +0.004 C 
ATOM     13  C   UNL     1      32.151  -9.472 -19.749  0.00  0.00    -0.000 C 
ATOM     14  C   UNL     1      31.692  -8.173 -19.593  0.00  0.00    -0.000 C 
ATOM     15  C   UNL     1      30.637  -5.066 -24.257  0.00  0.00    +0.021 C 
ATOM     16  C   UNL     1      31.699  -4.903 -25.113  0.00  0.00    +0.100 C 
ENDROOT
BRANCH   4  18
ATOM     17  O   UNL     1      33.716 -10.866 -25.906  0.00  0.00    -0.273 OA
ATOM     18  N   UNL     1      33.244 -10.905 -23.635  0.00  0.00    -0.294 N 
ATOM     19  C   UNL     1      33.592 -11.482 -24.849  0.00  0.00    +0.241 C 
ATOM     20  H   UNL     1      33.169 -11.484 -22.842  0.00  0.00    +0.150 HD
BRANCH  19  21
ATOM     21  C   UNL     1      33.853 -12.976 -24.722  0.00  0.00    +0.149 C 
ATOM     22  C   UNL     1      32.736 -13.781 -25.368  0.00  0.00    +0.031 C 
BRANCH  21  24
ATOM     23  O   UNL     1      35.053 -15.334 -23.575  0.00  0.00    -0.275 OA
ATOM     24  N   UNL     1      33.982 -13.288 -23.323  0.00  0.00    -0.298 N 
ATOM     25  C   UNL     1      34.579 -14.455 -22.861  0.00  0.00    +0.223 C 
ATOM     26  H   UNL     1      33.632 -12.646 -22.664  0.00  0.00    +0.150 HD
BRANCH  25  27
ATOM     27  C   UNL     1      34.577 -14.526 -21.345  0.00  0.00    +0.094 C 
BRANCH  27  28
ATOM     28  C   UNL     1      33.911 -15.795 -20.821  0.00  0.00    +0.113 C 
BRANCH  28  32
ATOM     29  F   UNL     1      31.768 -16.753 -20.524  0.00  0.00    -0.170 F 
ATOM     30  F   UNL     1      32.260 -14.991 -19.330  0.00  0.00    -0.170 F 
ATOM     31  F   UNL     1      31.882 -14.790 -21.468  0.00  0.00    -0.170 F 
ATOM     32  C   UNL     1      32.443 -15.583 -20.528  0.00  0.00    +0.398 C 
ENDBRANCH  28  32
ENDBRANCH  27  28
ENDBRANCH  25  27
ENDBRANCH  21  24
ENDBRANCH  19  21
ENDBRANCH   4  18
BRANCH   2  33
ATOM     33  C   UNL     1      35.300  -6.729 -24.760  0.00  0.00    +0.131 C 
BRANCH  33  34
ATOM     34  C   UNL     1      35.167  -6.619 -26.269  0.00  0.00    +0.159 C 
BRANCH  34  35
ATOM     35  O   UNL     1      35.149  -5.247 -26.643  0.00  0.00    -0.380 OA
ATOM     36  H   UNL     1      35.315  -4.697 -25.861  0.00  0.00    +0.211 HD
ENDBRANCH  34  35
ENDBRANCH  33  34
ENDBRANCH   2  33
TORSDOF 9
ENDMDL
MODEL 9
REMARK VINA RESULT:      -6.9      5.209      8.772
REMARK  Name = 71236992
REMARK  9 active torsions:
REMARK  status: ('A' for Active; 'I' for Inactive)
REMARK    1  A    between atoms: N_2  and  C_33
REMARK    2  A    between atoms: C_4  and  N_18
REMARK    3  A    between atoms: C_19  and  C_21
REMARK    4  A    between atoms: C_21  and  N_24
REMARK    5  A    between atoms: C_25  and  C_27
REMARK    6  A    between atoms: C_27  and  C_28
REMARK    7  A    between atoms: C_28  and  C_32
REMARK    8  A    between atoms: C_33  and  C_34
REMARK    9  A    between atoms: C_34  and  O_35
REMARK                            x       y       z     vdW  Elec       q    Type
REMARK                         _______ _______ _______ _____ _____    ______ ____
ROOT
ATOM      1  O   UNL     1      34.550 -13.466 -21.714  0.00  0.00    -0.272 OA
ATOM      2  N   UNL     1      33.948 -14.465 -23.721  0.00  0.00    -0.240 N 
ATOM      3  N   UNL     1      32.907 -15.588 -25.532  0.00  0.00    -0.229 NA
ATOM      4  C   UNL     1      33.192 -12.157 -23.197  0.00  0.00    +0.172 C 
ATOM      5  C   UNL     1      33.992 -11.401 -24.225  0.00  0.00    +0.004 C 
ATOM      6  C   UNL     1      34.132 -11.982 -25.502  0.00  0.00    +0.001 C 
ATOM      7  C   UNL     1      33.965 -13.408 -22.800  0.00  0.00    +0.253 C 
ATOM      8  C   UNL     1      33.451 -13.251 -25.862  0.00  0.00    +0.032 C 
ATOM      9  C   UNL     1      33.419 -14.412 -25.062  0.00  0.00    +0.137 C 
ATOM     10  C   UNL     1      34.642 -10.187 -23.934  0.00  0.00    -0.002 C 
ATOM     11  C   UNL     1      34.941 -11.316 -26.448  0.00  0.00    -0.000 C 
ATOM     12  C   UNL     1      32.829 -13.344 -27.128  0.00  0.00    +0.004 C 
ATOM     13  C   UNL     1      35.422  -9.544 -24.892  0.00  0.00    -0.000 C 
ATOM     14  C   UNL     1      35.576 -10.110 -26.148  0.00  0.00    -0.000 C 
ATOM     15  C   UNL     1      32.266 -14.527 -27.584  0.00  0.00    +0.021 C 
ATOM     16  C   UNL     1      32.345 -15.620 -26.757  0.00  0.00    +0.100 C 
ENDROOT
BRANCH   4  18
ATOM     17  O   UNL     1      30.855 -10.558 -22.700  0.00  0.00    -0.273 OA
ATOM     18  N   UNL     1      32.889 -11.423 -21.994  0.00  0.00    -0.294 N 
ATOM     19  C   UNL     1      31.729 -10.674 -21.844  0.00  0.00    +0.241 C 
ATOM     20  H   UNL     1      33.530 -11.453 -21.248  0.00  0.00    +0.150 HD
BRANCH  19  21
ATOM     21  C   UNL     1      31.630 -10.038 -20.464  0.00  0.00    +0.149 C 
ATOM     22  C   UNL     1      30.516 -10.676 -19.650  0.00  0.00    +0.031 C 
BRANCH  21  24
ATOM     23  O   UNL     1      33.518  -8.097 -21.452  0.00  0.00    -0.275 OA
ATOM     24  N   UNL     1      31.408  -8.627 -20.639  0.00  0.00    -0.298 N 
ATOM     25  C   UNL     1      32.383  -7.764 -21.125  0.00  0.00    +0.223 C 
ATOM     26  H   UNL     1      30.527  -8.257 -20.405  0.00  0.00    +0.150 HD
BRANCH  25  27
ATOM     27  C   UNL     1      31.879  -6.334 -21.205  0.00  0.00    +0.094 C 
BRANCH  27  28
ATOM     28  C   UNL     1      30.815  -6.150 -22.284  0.00  0.00    +0.113 C 
BRANCH  28  32
ATOM     29  F   UNL     1      32.690  -5.933 -23.710  0.00  0.00    -0.170 F 
ATOM     30  F   UNL     1      31.297  -7.565 -24.118  0.00  0.00    -0.170 F 
ATOM     31  F   UNL     1      30.722  -5.506 -24.547  0.00  0.00    -0.170 F 
ATOM     32  C   UNL     1      31.390  -6.294 -23.675  0.00  0.00    +0.398 C 
ENDBRANCH  28  32
ENDBRANCH  27  28
ENDBRANCH  25  27
ENDBRANCH  21  24
ENDBRANCH  19  21
ENDBRANCH   4  18
BRANCH   2  33
ATOM     33  C   UNL     1      34.407 -15.781 -23.272  0.00  0.00    +0.131 C 
BRANCH  33  34
ATOM     34  C   UNL     1      35.378 -16.401 -24.261  0.00  0.00    +0.159 C 
BRANCH  34  35
ATOM     35  O   UNL     1      34.905 -17.686 -24.646  0.00  0.00    -0.380 OA
ATOM     36  H   UNL     1      34.731 -17.693 -25.600  0.00  0.00    +0.211 HD
ENDBRANCH  34  35
ENDBRANCH  33  34
ENDBRANCH   2  33
TORSDOF 9
ENDMDL
