MODEL 1
REMARK VINA RESULT:      -6.0      0.000      0.000
REMARK  Name = 936
REMARK  1 active torsions:
REMARK  status: ('A' for Active; 'I' for Inactive)
REMARK    1  A    between atoms: C_2  and  C_9
REMARK                            x       y       z     vdW  Elec       q    Type
REMARK                         _______ _______ _______ _____ _____    ______ ____
ROOT
ATOM      1  N   UNL     1      36.032 -19.837 -20.410  0.00  0.00    -0.242 NA
ATOM      2  C   UNL     1      34.125 -21.210 -19.843  0.00  0.00    +0.072 C 
ATOM      3  C   UNL     1      33.279 -20.308 -20.477  0.00  0.00    +0.008 C 
ATOM      4  C   UNL     1      35.483 -20.930 -19.837  0.00  0.00    +0.103 C 
ATOM      5  C   UNL     1      33.807 -19.171 -21.079  0.00  0.00    +0.021 C 
ATOM      6  C   UNL     1      35.178 -18.983 -21.018  0.00  0.00    +0.099 C 
ENDROOT
BRANCH   2   9
ATOM      7  O   UNL     1      34.109 -23.525 -19.414  0.00  0.00    -0.270 OA
ATOM      8  N   UNL     1      32.527 -22.263 -18.336  0.00  0.00    -0.325 N 
ATOM      9  C   UNL     1      33.605 -22.406 -19.206  0.00  0.00    +0.244 C 
ATOM     10  H   UNL     1      32.149 -23.052 -17.886  0.00  0.00    +0.145 HD
ATOM     11  H   UNL     1      32.144 -21.371 -18.169  0.00  0.00    +0.145 HD
ENDBRANCH   2   9
TORSDOF 1
ENDMDL
MODEL 2
REMARK VINA RESULT:      -5.9      2.106      3.921
REMARK  Name = 936
REMARK  1 active torsions:
REMARK  status: ('A' for Active; 'I' for Inactive)
REMARK    1  A    between atoms: C_2  and  C_9
REMARK                            x       y       z     vdW  Elec       q    Type
REMARK                         _______ _______ _______ _____ _____    ______ ____
ROOT
ATOM      1  N   UNL     1      32.799 -21.606 -19.490  0.00  0.00    -0.242 NA
ATOM      2  C   UNL     1      34.459 -20.198 -20.541  0.00  0.00    +0.072 C 
ATOM      3  C   UNL     1      35.474 -20.933 -19.940  0.00  0.00    +0.008 C 
ATOM      4  C   UNL     1      33.149 -20.572 -20.286  0.00  0.00    +0.103 C 
ATOM      5  C   UNL     1      35.154 -22.005 -19.114  0.00  0.00    +0.021 C 
ATOM      6  C   UNL     1      33.813 -22.298 -18.923  0.00  0.00    +0.099 C 
ENDROOT
BRANCH   2   9
ATOM      7  O   UNL     1      34.508 -19.107 -22.628  0.00  0.00    -0.270 OA
ATOM      8  N   UNL     1      35.330 -17.942 -20.832  0.00  0.00    -0.325 N 
ATOM      9  C   UNL     1      34.761 -19.074 -21.409  0.00  0.00    +0.244 C 
ATOM     10  H   UNL     1      35.548 -17.161 -21.390  0.00  0.00    +0.145 HD
ATOM     11  H   UNL     1      35.514 -17.922 -19.865  0.00  0.00    +0.145 HD
ENDBRANCH   2   9
TORSDOF 1
ENDMDL
MODEL 3
REMARK VINA RESULT:      -5.6      4.103      5.089
REMARK  Name = 936
REMARK  1 active torsions:
REMARK  status: ('A' for Active; 'I' for Inactive)
REMARK    1  A    between atoms: C_2  and  C_9
REMARK                            x       y       z     vdW  Elec       q    Type
REMARK                         _______ _______ _______ _____ _____    ______ ____
ROOT
ATOM      1  N   UNL     1      34.696 -16.453 -24.582  0.00  0.00    -0.242 NA
ATOM      2  C   UNL     1      35.094 -17.726 -22.566  0.00  0.00    +0.072 C 
ATOM      3  C   UNL     1      34.863 -18.909 -23.258  0.00  0.00    +0.008 C 
ATOM      4  C   UNL     1      34.999 -16.535 -23.267  0.00  0.00    +0.103 C 
ATOM      5  C   UNL     1      34.549 -18.866 -24.612  0.00  0.00    +0.021 C 
ATOM      6  C   UNL     1      34.479 -17.624 -25.222  0.00  0.00    +0.099 C 
ENDROOT
BRANCH   2   9
ATOM      7  O   UNL     1      35.249 -16.735 -20.435  0.00  0.00    -0.270 OA
ATOM      8  N   UNL     1      35.931 -18.918 -20.612  0.00  0.00    -0.325 N 
ATOM      9  C   UNL     1      35.425 -17.738 -21.152  0.00  0.00    +0.244 C 
ATOM     10  H   UNL     1      36.165 -18.962 -19.657  0.00  0.00    +0.145 HD
ATOM     11  H   UNL     1      36.053 -19.709 -21.186  0.00  0.00    +0.145 HD
ENDBRANCH   2   9
TORSDOF 1
ENDMDL
MODEL 4
REMARK VINA RESULT:      -5.5      8.118      8.803
REMARK  Name = 936
REMARK  1 active torsions:
REMARK  status: ('A' for Active; 'I' for Inactive)
REMARK    1  A    between atoms: C_2  and  C_9
REMARK                            x       y       z     vdW  Elec       q    Type
REMARK                         _______ _______ _______ _____ _____    ______ ____
ROOT
ATOM      1  N   UNL     1      37.823 -24.492 -11.446  0.00  0.00    -0.242 NA
ATOM      2  C   UNL     1      37.024 -25.590 -13.446  0.00  0.00    +0.072 C 
ATOM      3  C   UNL     1      35.902 -24.770 -13.456  0.00  0.00    +0.008 C 
ATOM      4  C   UNL     1      37.947 -25.413 -12.427  0.00  0.00    +0.103 C 
ATOM      5  C   UNL     1      35.739 -23.811 -12.463  0.00  0.00    +0.021 C 
ATOM      6  C   UNL     1      36.719 -23.712 -11.490  0.00  0.00    +0.099 C 
ENDROOT
BRANCH   2   9
ATOM      7  O   UNL     1      38.331 -27.142 -14.641  0.00  0.00    -0.270 OA
ATOM      8  N   UNL     1      36.126 -26.964 -15.245  0.00  0.00    -0.325 N 
ATOM      9  C   UNL     1      37.223 -26.601 -14.469  0.00  0.00    +0.244 C 
ATOM     10  H   UNL     1      36.224 -27.647 -15.948  0.00  0.00    +0.145 HD
ATOM     11  H   UNL     1      35.251 -26.540 -15.092  0.00  0.00    +0.145 HD
ENDBRANCH   2   9
TORSDOF 1
ENDMDL
MODEL 5
REMARK VINA RESULT:      -5.5      3.140      4.504
REMARK  Name = 936
REMARK  1 active torsions:
REMARK  status: ('A' for Active; 'I' for Inactive)
REMARK    1  A    between atoms: C_2  and  C_9
REMARK                            x       y       z     vdW  Elec       q    Type
REMARK                         _______ _______ _______ _____ _____    ______ ____
ROOT
ATOM      1  N   UNL     1      36.279 -20.252 -20.176  0.00  0.00    -0.242 NA
ATOM      2  C   UNL     1      35.136 -18.467 -21.338  0.00  0.00    +0.072 C 
ATOM      3  C   UNL     1      33.917 -19.100 -21.126  0.00  0.00    +0.008 C 
ATOM      4  C   UNL     1      36.279 -19.080 -20.848  0.00  0.00    +0.103 C 
ATOM      5  C   UNL     1      33.876 -20.308 -20.438  0.00  0.00    +0.021 C 
ATOM      6  C   UNL     1      35.075 -20.837 -19.988  0.00  0.00    +0.099 C 
ENDROOT
BRANCH   2   9
ATOM      7  O   UNL     1      34.901 -16.130 -21.507  0.00  0.00    -0.270 OA
ATOM      8  N   UNL     1      35.659 -17.229 -23.370  0.00  0.00    -0.325 N 
ATOM      9  C   UNL     1      35.211 -17.205 -22.053  0.00  0.00    +0.244 C 
ATOM     10  H   UNL     1      35.723 -16.392 -23.885  0.00  0.00    +0.145 HD
ATOM     11  H   UNL     1      35.914 -18.084 -23.788  0.00  0.00    +0.145 HD
ENDBRANCH   2   9
TORSDOF 1
ENDMDL
MODEL 6
REMARK VINA RESULT:      -5.4      4.508      5.972
REMARK  Name = 936
REMARK  1 active torsions:
REMARK  status: ('A' for Active; 'I' for Inactive)
REMARK    1  A    between atoms: C_2  and  C_9
REMARK                            x       y       z     vdW  Elec       q    Type
REMARK                         _______ _______ _______ _____ _____    ______ ____
ROOT
ATOM      1  N   UNL     1      35.195 -17.271 -21.132  0.00  0.00    -0.242 NA
ATOM      2  C   UNL     1      34.732 -17.248 -23.504  0.00  0.00    +0.072 C 
ATOM      3  C   UNL     1      34.774 -18.637 -23.533  0.00  0.00    +0.008 C 
ATOM      4  C   UNL     1      34.948 -16.618 -22.289  0.00  0.00    +0.103 C 
ATOM      5  C   UNL     1      35.026 -19.345 -22.362  0.00  0.00    +0.021 C 
ATOM      6  C   UNL     1      35.227 -18.621 -21.198  0.00  0.00    +0.099 C 
ENDROOT
BRANCH   2   9
ATOM      7  O   UNL     1      34.881 -16.862 -25.823  0.00  0.00    -0.270 OA
ATOM      8  N   UNL     1      33.731 -15.309 -24.587  0.00  0.00    -0.325 N 
ATOM      9  C   UNL     1      34.472 -16.482 -24.710  0.00  0.00    +0.244 C 
ATOM     10  H   UNL     1      33.536 -14.765 -25.384  0.00  0.00    +0.145 HD
ATOM     11  H   UNL     1      33.402 -15.025 -23.704  0.00  0.00    +0.145 HD
ENDBRANCH   2   9
TORSDOF 1
ENDMDL
MODEL 7
REMARK VINA RESULT:      -5.4      8.038      8.933
REMARK  Name = 936
REMARK  1 active torsions:
REMARK  status: ('A' for Active; 'I' for Inactive)
REMARK    1  A    between atoms: C_2  and  C_9
REMARK                            x       y       z     vdW  Elec       q    Type
REMARK                         _______ _______ _______ _____ _____    ______ ____
ROOT
ATOM      1  N   UNL     1      37.648 -26.779 -13.949  0.00  0.00    -0.242 NA
ATOM      2  C   UNL     1      36.410 -25.157 -12.653  0.00  0.00    +0.072 C 
ATOM      3  C   UNL     1      35.705 -24.777 -13.788  0.00  0.00    +0.008 C 
ATOM      4  C   UNL     1      37.364 -26.154 -12.785  0.00  0.00    +0.103 C 
ATOM      5  C   UNL     1      35.968 -25.397 -15.005  0.00  0.00    +0.021 C 
ATOM      6  C   UNL     1      36.941 -26.384 -15.031  0.00  0.00    +0.099 C 
ENDROOT
BRANCH   2   9
ATOM      7  O   UNL     1      35.312 -24.984 -10.576  0.00  0.00    -0.270 OA
ATOM      8  N   UNL     1      36.906 -23.402 -11.037  0.00  0.00    -0.325 N 
ATOM      9  C   UNL     1      36.157 -24.528 -11.368  0.00  0.00    +0.244 C 
ATOM     10  H   UNL     1      36.761 -22.950 -10.175  0.00  0.00    +0.145 HD
ATOM     11  H   UNL     1      37.581 -23.057 -11.666  0.00  0.00    +0.145 HD
ENDBRANCH   2   9
TORSDOF 1
ENDMDL
MODEL 8
REMARK VINA RESULT:      -5.4      7.208      7.708
REMARK  Name = 936
REMARK  1 active torsions:
REMARK  status: ('A' for Active; 'I' for Inactive)
REMARK    1  A    between atoms: C_2  and  C_9
REMARK                            x       y       z     vdW  Elec       q    Type
REMARK                         _______ _______ _______ _____ _____    ______ ____
ROOT
ATOM      1  N   UNL     1      30.744 -25.514 -14.414  0.00  0.00    -0.242 NA
ATOM      2  C   UNL     1      29.396 -23.845 -15.529  0.00  0.00    +0.072 C 
ATOM      3  C   UNL     1      30.277 -22.851 -15.121  0.00  0.00    +0.008 C 
ATOM      4  C   UNL     1      29.672 -25.150 -15.152  0.00  0.00    +0.103 C 
ATOM      5  C   UNL     1      31.392 -23.185 -14.360  0.00  0.00    +0.021 C 
ATOM      6  C   UNL     1      31.578 -24.520 -14.037  0.00  0.00    +0.099 C 
ENDROOT
BRANCH   2   9
ATOM      7  O   UNL     1      27.907 -24.208 -17.317  0.00  0.00    -0.270 OA
ATOM      8  N   UNL     1      27.445 -22.442 -15.930  0.00  0.00    -0.325 N 
ATOM      9  C   UNL     1      28.223 -23.528 -16.324  0.00  0.00    +0.244 C 
ATOM     10  H   UNL     1      26.643 -22.198 -16.445  0.00  0.00    +0.145 HD
ATOM     11  H   UNL     1      27.697 -21.918 -15.135  0.00  0.00    +0.145 HD
ENDBRANCH   2   9
TORSDOF 1
ENDMDL
MODEL 9
REMARK VINA RESULT:      -5.4      3.235      4.433
REMARK  Name = 936
REMARK  1 active torsions:
REMARK  status: ('A' for Active; 'I' for Inactive)
REMARK    1  A    between atoms: C_2  and  C_9
REMARK                            x       y       z     vdW  Elec       q    Type
REMARK                         _______ _______ _______ _____ _____    ______ ____
ROOT
ATOM      1  N   UNL     1      35.028 -16.233 -23.684  0.00  0.00    -0.242 NA
ATOM      2  C   UNL     1      34.959 -18.394 -22.603  0.00  0.00    +0.072 C 
ATOM      3  C   UNL     1      34.666 -19.001 -23.819  0.00  0.00    +0.008 C 
ATOM      4  C   UNL     1      35.129 -17.019 -22.589  0.00  0.00    +0.103 C 
ATOM      5  C   UNL     1      34.554 -18.226 -24.968  0.00  0.00    +0.021 C 
ATOM      6  C   UNL     1      34.743 -16.859 -24.848  0.00  0.00    +0.099 C 
ENDROOT
BRANCH   2   9
ATOM      7  O   UNL     1      34.197 -19.978 -21.036  0.00  0.00    -0.270 OA
ATOM      8  N   UNL     1      36.237 -19.016 -20.625  0.00  0.00    -0.325 N 
ATOM      9  C   UNL     1      35.083 -19.176 -21.386  0.00  0.00    +0.244 C 
ATOM     10  H   UNL     1      36.355 -19.530 -19.794  0.00  0.00    +0.145 HD
ATOM     11  H   UNL     1      36.937 -18.389 -20.918  0.00  0.00    +0.145 HD
ENDBRANCH   2   9
TORSDOF 1
ENDMDL
