MODEL 1
REMARK VINA RESULT:      -5.9      0.000      0.000
REMARK  Name = 5486971
REMARK  7 active torsions:
REMARK  status: ('A' for Active; 'I' for Inactive)
REMARK    1  A    between atoms: C_1  and  C_2
REMARK    2  A    between atoms: C_1  and  C_6
REMARK    3  A    between atoms: C_1  and  C_11
REMARK    4  A    between atoms: C_2  and  C_3
REMARK    5  A    between atoms: C_6  and  C_8
REMARK    6  A    between atoms: C_8  and  O_9
REMARK    7  A    between atoms: C_11  and  N_12
REMARK                            x       y       z     vdW  Elec       q    Type
REMARK                         _______ _______ _______ _____ _____    ______ ____
ROOT
ATOM      1  C   UNL     1      38.031 -25.302 -14.610  0.00  0.00    -0.011 C 
ENDROOT
BRANCH   1   2
ATOM      2  C   UNL     1      37.206 -24.010 -14.398  0.00  0.00    -0.002 C 
BRANCH   2   3
ATOM      3  C   UNL     1      36.595 -23.376 -15.665  0.00  0.00    -0.000 C 
ATOM      4  C   UNL     1      37.421 -22.200 -16.186  0.00  0.00    -0.000 C 
ATOM      5  C   UNL     1      35.166 -22.911 -15.368  0.00  0.00    -0.000 C 
ENDBRANCH   2   3
ENDBRANCH   1   2
BRANCH   1   6
ATOM      6  C   UNL     1      39.412 -25.268 -13.929  0.00  0.00    +0.107 C 
BRANCH   6   8
ATOM      7  O   UNL     1      41.302 -26.779 -14.099  0.00  0.00    -0.250 OA
ATOM      8  C   UNL     1      40.474 -26.065 -14.647  0.00  0.00    +0.314 C 
BRANCH   8   9
ATOM      9  O   UNL     1      40.390 -25.899 -15.989  0.00  0.00    -0.480 OA
ATOM     10  H   UNL     1      40.650 -26.593 -16.564  0.00  0.00    +0.295 HD
ENDBRANCH   8   9
ENDBRANCH   6   8
ENDBRANCH   1   6
BRANCH   1  11
ATOM     11  C   UNL     1      37.166 -26.508 -14.175  0.00  0.00    -0.086 C 
BRANCH  11  12
ATOM     12  N   UNL     1      36.217 -26.909 -15.208  0.00  0.00    +0.380 N 
ATOM     13  H   UNL     1      36.587 -26.659 -16.125  0.00  0.00    -0.089 HD
ATOM     14  H   UNL     1      35.328 -26.430 -15.058  0.00  0.00    -0.089 HD
ATOM     15  H   UNL     1      36.072 -27.917 -15.163  0.00  0.00    -0.089 HD
ENDBRANCH  11  12
ENDBRANCH   1  11
TORSDOF 7
ENDMDL
MODEL 2
REMARK VINA RESULT:      -5.8      1.449      2.322
REMARK  Name = 5486971
REMARK  7 active torsions:
REMARK  status: ('A' for Active; 'I' for Inactive)
REMARK    1  A    between atoms: C_1  and  C_2
REMARK    2  A    between atoms: C_1  and  C_6
REMARK    3  A    between atoms: C_1  and  C_11
REMARK    4  A    between atoms: C_2  and  C_3
REMARK    5  A    between atoms: C_6  and  C_8
REMARK    6  A    between atoms: C_8  and  O_9
REMARK    7  A    between atoms: C_11  and  N_12
REMARK                            x       y       z     vdW  Elec       q    Type
REMARK                         _______ _______ _______ _____ _____    ______ ____
ROOT
ATOM      1  C   UNL     1      38.015 -25.350 -14.467  0.00  0.00    -0.011 C 
ENDROOT
BRANCH   1   2
ATOM      2  C   UNL     1      37.034 -24.323 -13.849  0.00  0.00    -0.002 C 
BRANCH   2   3
ATOM      3  C   UNL     1      36.952 -24.301 -12.309  0.00  0.00    -0.000 C 
ATOM      4  C   UNL     1      35.548 -24.619 -11.794  0.00  0.00    -0.000 C 
ATOM      5  C   UNL     1      37.393 -22.928 -11.791  0.00  0.00    -0.000 C 
ENDBRANCH   2   3
ENDBRANCH   1   2
BRANCH   1   6
ATOM      6  C   UNL     1      39.411 -25.331 -13.819  0.00  0.00    +0.107 C 
BRANCH   6   8
ATOM      7  O   UNL     1      41.306 -26.815 -14.121  0.00  0.00    -0.250 OA
ATOM      8  C   UNL     1      40.467 -26.069 -14.605  0.00  0.00    +0.314 C 
BRANCH   8   9
ATOM      9  O   UNL     1      40.363 -25.811 -15.931  0.00  0.00    -0.480 OA
ATOM     10  H   UNL     1      40.302 -24.925 -16.233  0.00  0.00    +0.295 HD
ENDBRANCH   8   9
ENDBRANCH   6   8
ENDBRANCH   1   6
BRANCH   1  11
ATOM     11  C   UNL     1      37.345 -26.743 -14.433  0.00  0.00    -0.086 C 
BRANCH  11  12
ATOM     12  N   UNL     1      36.071 -26.762 -15.145  0.00  0.00    +0.380 N 
ATOM     13  H   UNL     1      35.590 -25.873 -15.003  0.00  0.00    -0.089 HD
ATOM     14  H   UNL     1      35.493 -27.522 -14.786  0.00  0.00    -0.089 HD
ATOM     15  H   UNL     1      36.240 -26.902 -16.140  0.00  0.00    -0.089 HD
ENDBRANCH  11  12
ENDBRANCH   1  11
TORSDOF 7
ENDMDL
MODEL 3
REMARK VINA RESULT:      -5.7      9.293     11.125
REMARK  Name = 5486971
REMARK  7 active torsions:
REMARK  status: ('A' for Active; 'I' for Inactive)
REMARK    1  A    between atoms: C_1  and  C_2
REMARK    2  A    between atoms: C_1  and  C_6
REMARK    3  A    between atoms: C_1  and  C_11
REMARK    4  A    between atoms: C_2  and  C_3
REMARK    5  A    between atoms: C_6  and  C_8
REMARK    6  A    between atoms: C_8  and  O_9
REMARK    7  A    between atoms: C_11  and  N_12
REMARK                            x       y       z     vdW  Elec       q    Type
REMARK                         _______ _______ _______ _____ _____    ______ ____
ROOT
ATOM      1  C   UNL     1      34.606 -18.165 -22.434  0.00  0.00    -0.011 C 
ENDROOT
BRANCH   1   2
ATOM      2  C   UNL     1      34.490 -19.657 -22.039  0.00  0.00    -0.002 C 
BRANCH   2   3
ATOM      3  C   UNL     1      34.421 -19.958 -20.528  0.00  0.00    -0.000 C 
ATOM      4  C   UNL     1      35.474 -20.974 -20.086  0.00  0.00    -0.000 C 
ATOM      5  C   UNL     1      33.024 -20.474 -20.170  0.00  0.00    -0.000 C 
ENDBRANCH   2   3
ENDBRANCH   1   2
BRANCH   1   6
ATOM      6  C   UNL     1      35.323 -17.303 -21.378  0.00  0.00    +0.107 C 
BRANCH   6   8
ATOM      7  O   UNL     1      34.892 -15.297 -20.086  0.00  0.00    -0.250 OA
ATOM      8  C   UNL     1      34.583 -16.043 -21.004  0.00  0.00    +0.314 C 
BRANCH   8   9
ATOM      9  O   UNL     1      33.527 -15.829 -21.827  0.00  0.00    -0.480 OA
ATOM     10  H   UNL     1      32.945 -16.534 -22.035  0.00  0.00    +0.295 HD
ENDBRANCH   8   9
ENDBRANCH   6   8
ENDBRANCH   1   6
BRANCH   1  11
ATOM     11  C   UNL     1      35.258 -18.081 -23.834  0.00  0.00    -0.086 C 
BRANCH  11  12
ATOM     12  N   UNL     1      35.326 -16.712 -24.332  0.00  0.00    +0.380 N 
ATOM     13  H   UNL     1      34.404 -16.279 -24.263  0.00  0.00    -0.089 HD
ATOM     14  H   UNL     1      35.625 -16.719 -25.308  0.00  0.00    -0.089 HD
ATOM     15  H   UNL     1      35.994 -16.180 -23.776  0.00  0.00    -0.089 HD
ENDBRANCH  11  12
ENDBRANCH   1  11
TORSDOF 7
ENDMDL
MODEL 4
REMARK VINA RESULT:      -5.7      6.577      8.259
REMARK  Name = 5486971
REMARK  7 active torsions:
REMARK  status: ('A' for Active; 'I' for Inactive)
REMARK    1  A    between atoms: C_1  and  C_2
REMARK    2  A    between atoms: C_1  and  C_6
REMARK    3  A    between atoms: C_1  and  C_11
REMARK    4  A    between atoms: C_2  and  C_3
REMARK    5  A    between atoms: C_6  and  C_8
REMARK    6  A    between atoms: C_8  and  O_9
REMARK    7  A    between atoms: C_11  and  N_12
REMARK                            x       y       z     vdW  Elec       q    Type
REMARK                         _______ _______ _______ _____ _____    ______ ____
ROOT
ATOM      1  C   UNL     1      34.338 -20.519 -19.991  0.00  0.00    -0.011 C 
ENDROOT
BRANCH   1   2
ATOM      2  C   UNL     1      33.893 -19.723 -21.242  0.00  0.00    -0.002 C 
BRANCH   2   3
ATOM      3  C   UNL     1      35.005 -18.969 -22.001  0.00  0.00    -0.000 C 
ATOM      4  C   UNL     1      35.145 -17.518 -21.541  0.00  0.00    -0.000 C 
ATOM      5  C   UNL     1      34.717 -19.009 -23.505  0.00  0.00    -0.000 C 
ENDBRANCH   2   3
ENDBRANCH   1   2
BRANCH   1   6
ATOM      6  C   UNL     1      33.368 -21.651 -19.606  0.00  0.00    +0.107 C 
BRANCH   6   8
ATOM      7  O   UNL     1      34.538 -22.736 -17.780  0.00  0.00    -0.250 OA
ATOM      8  C   UNL     1      34.021 -22.805 -18.886  0.00  0.00    +0.314 C 
BRANCH   8   9
ATOM      9  O   UNL     1      33.954 -23.944 -19.617  0.00  0.00    -0.480 OA
ATOM     10  H   UNL     1      33.151 -24.425 -19.663  0.00  0.00    +0.295 HD
ENDBRANCH   8   9
ENDBRANCH   6   8
ENDBRANCH   1   6
BRANCH   1  11
ATOM     11  C   UNL     1      35.787 -21.007 -20.215  0.00  0.00    -0.086 C 
BRANCH  11  12
ATOM     12  N   UNL     1      36.667 -20.662 -19.103  0.00  0.00    +0.380 N 
ATOM     13  H   UNL     1      36.498 -21.301 -18.325  0.00  0.00    -0.089 HD
ATOM     14  H   UNL     1      36.477 -19.705 -18.804  0.00  0.00    -0.089 HD
ATOM     15  H   UNL     1      37.638 -20.739 -19.402  0.00  0.00    -0.089 HD
ENDBRANCH  11  12
ENDBRANCH   1  11
TORSDOF 7
ENDMDL
MODEL 5
REMARK VINA RESULT:      -5.6      9.451     11.424
REMARK  Name = 5486971
REMARK  7 active torsions:
REMARK  status: ('A' for Active; 'I' for Inactive)
REMARK    1  A    between atoms: C_1  and  C_2
REMARK    2  A    between atoms: C_1  and  C_6
REMARK    3  A    between atoms: C_1  and  C_11
REMARK    4  A    between atoms: C_2  and  C_3
REMARK    5  A    between atoms: C_6  and  C_8
REMARK    6  A    between atoms: C_8  and  O_9
REMARK    7  A    between atoms: C_11  and  N_12
REMARK                            x       y       z     vdW  Elec       q    Type
REMARK                         _______ _______ _______ _____ _____    ______ ____
ROOT
ATOM      1  C   UNL     1      34.888 -18.358 -22.546  0.00  0.00    -0.011 C 
ENDROOT
BRANCH   1   2
ATOM      2  C   UNL     1      34.815 -19.820 -22.043  0.00  0.00    -0.002 C 
BRANCH   2   3
ATOM      3  C   UNL     1      34.623 -20.011 -20.525  0.00  0.00    -0.000 C 
ATOM      4  C   UNL     1      35.687 -20.920 -19.910  0.00  0.00    -0.000 C 
ATOM      5  C   UNL     1      33.230 -20.588 -20.252  0.00  0.00    -0.000 C 
ENDBRANCH   2   3
ENDBRANCH   1   2
BRANCH   1   6
ATOM      6  C   UNL     1      34.445 -18.189 -24.010  0.00  0.00    +0.107 C 
BRANCH   6   8
ATOM      7  O   UNL     1      34.667 -16.567 -25.800  0.00  0.00    -0.250 OA
ATOM      8  C   UNL     1      34.948 -16.926 -24.665  0.00  0.00    +0.314 C 
BRANCH   8   9
ATOM      9  O   UNL     1      35.750 -16.223 -23.829  0.00  0.00    -0.480 OA
ATOM     10  H   UNL     1      36.457 -15.714 -24.175  0.00  0.00    +0.295 HD
ENDBRANCH   8   9
ENDBRANCH   6   8
ENDBRANCH   1   6
BRANCH   1  11
ATOM     11  C   UNL     1      34.096 -17.466 -21.562  0.00  0.00    -0.086 C 
BRANCH  11  12
ATOM     12  N   UNL     1      34.934 -16.445 -20.942  0.00  0.00    +0.380 N 
ATOM     13  H   UNL     1      34.911 -15.596 -21.510  0.00  0.00    -0.089 HD
ATOM     14  H   UNL     1      35.894 -16.785 -20.879  0.00  0.00    -0.089 HD
ATOM     15  H   UNL     1      34.583 -16.239 -20.008  0.00  0.00    -0.089 HD
ENDBRANCH  11  12
ENDBRANCH   1  11
TORSDOF 7
ENDMDL
MODEL 6
REMARK VINA RESULT:      -5.5      9.935     11.857
REMARK  Name = 5486971
REMARK  7 active torsions:
REMARK  status: ('A' for Active; 'I' for Inactive)
REMARK    1  A    between atoms: C_1  and  C_2
REMARK    2  A    between atoms: C_1  and  C_6
REMARK    3  A    between atoms: C_1  and  C_11
REMARK    4  A    between atoms: C_2  and  C_3
REMARK    5  A    between atoms: C_6  and  C_8
REMARK    6  A    between atoms: C_8  and  O_9
REMARK    7  A    between atoms: C_11  and  N_12
REMARK                            x       y       z     vdW  Elec       q    Type
REMARK                         _______ _______ _______ _____ _____    ______ ____
ROOT
ATOM      1  C   UNL     1      34.550 -17.860 -22.588  0.00  0.00    -0.011 C 
ENDROOT
BRANCH   1   2
ATOM      2  C   UNL     1      34.658 -18.459 -21.165  0.00  0.00    -0.002 C 
BRANCH   2   3
ATOM      3  C   UNL     1      34.294 -19.952 -21.025  0.00  0.00    -0.000 C 
ATOM      4  C   UNL     1      32.918 -20.161 -20.394  0.00  0.00    -0.000 C 
ATOM      5  C   UNL     1      35.360 -20.664 -20.187  0.00  0.00    -0.000 C 
ENDBRANCH   2   3
ENDBRANCH   1   2
BRANCH   1   6
ATOM      6  C   UNL     1      35.282 -16.514 -22.745  0.00  0.00    +0.107 C 
BRANCH   6   8
ATOM      7  O   UNL     1      33.726 -15.719 -24.427  0.00  0.00    -0.250 OA
ATOM      8  C   UNL     1      34.507 -15.476 -23.517  0.00  0.00    +0.314 C 
BRANCH   8   9
ATOM      9  O   UNL     1      34.775 -14.226 -23.068  0.00  0.00    -0.480 OA
ATOM     10  H   UNL     1      34.469 -13.480 -23.545  0.00  0.00    +0.295 HD
ENDBRANCH   8   9
ENDBRANCH   6   8
ENDBRANCH   1   6
BRANCH   1  11
ATOM     11  C   UNL     1      35.015 -18.930 -23.603  0.00  0.00    -0.086 C 
BRANCH  11  12
ATOM     12  N   UNL     1      34.333 -18.809 -24.887  0.00  0.00    +0.380 N 
ATOM     13  H   UNL     1      33.333 -18.963 -24.756  0.00  0.00    -0.089 HD
ATOM     14  H   UNL     1      34.702 -19.505 -25.535  0.00  0.00    -0.089 HD
ATOM     15  H   UNL     1      34.486 -17.875 -25.267  0.00  0.00    -0.089 HD
ENDBRANCH  11  12
ENDBRANCH   1  11
TORSDOF 7
ENDMDL
MODEL 7
REMARK VINA RESULT:      -5.4     19.301     20.456
REMARK  Name = 5486971
REMARK  7 active torsions:
REMARK  status: ('A' for Active; 'I' for Inactive)
REMARK    1  A    between atoms: C_1  and  C_2
REMARK    2  A    between atoms: C_1  and  C_6
REMARK    3  A    between atoms: C_1  and  C_11
REMARK    4  A    between atoms: C_2  and  C_3
REMARK    5  A    between atoms: C_6  and  C_8
REMARK    6  A    between atoms: C_8  and  O_9
REMARK    7  A    between atoms: C_11  and  N_12
REMARK                            x       y       z     vdW  Elec       q    Type
REMARK                         _______ _______ _______ _____ _____    ______ ____
ROOT
ATOM      1  C   UNL     1      32.532  -7.724 -22.107  0.00  0.00    -0.011 C 
ENDROOT
BRANCH   1   2
ATOM      2  C   UNL     1      33.132  -8.692 -23.156  0.00  0.00    -0.002 C 
BRANCH   2   3
ATOM      3  C   UNL     1      34.545  -8.347 -23.671  0.00  0.00    -0.000 C 
ATOM      4  C   UNL     1      34.576  -7.038 -24.460  0.00  0.00    -0.000 C 
ATOM      5  C   UNL     1      35.066  -9.491 -24.547  0.00  0.00    -0.000 C 
ENDBRANCH   2   3
ENDBRANCH   1   2
BRANCH   1   6
ATOM      6  C   UNL     1      31.221  -7.059 -22.566  0.00  0.00    +0.107 C 
BRANCH   6   8
ATOM      7  O   UNL     1      29.987  -5.012 -22.153  0.00  0.00    -0.250 OA
ATOM      8  C   UNL     1      31.008  -5.671 -22.014  0.00  0.00    +0.314 C 
BRANCH   8   9
ATOM      9  O   UNL     1      32.094  -5.242 -21.326  0.00  0.00    -0.480 OA
ATOM     10  H   UNL     1      32.120  -5.323 -20.392  0.00  0.00    +0.295 HD
ENDBRANCH   8   9
ENDBRANCH   6   8
ENDBRANCH   1   6
BRANCH   1  11
ATOM     11  C   UNL     1      32.394  -8.484 -20.768  0.00  0.00    -0.086 C 
BRANCH  11  12
ATOM     12  N   UNL     1      32.880  -7.701 -19.636  0.00  0.00    +0.380 N 
ATOM     13  H   UNL     1      32.087  -7.297 -19.137  0.00  0.00    -0.089 HD
ATOM     14  H   UNL     1      33.486  -6.953 -19.974  0.00  0.00    -0.089 HD
ATOM     15  H   UNL     1      33.406  -8.306 -19.006  0.00  0.00    -0.089 HD
ENDBRANCH  11  12
ENDBRANCH   1  11
TORSDOF 7
ENDMDL
MODEL 8
REMARK VINA RESULT:      -5.3     17.803     18.512
REMARK  Name = 5486971
REMARK  7 active torsions:
REMARK  status: ('A' for Active; 'I' for Inactive)
REMARK    1  A    between atoms: C_1  and  C_2
REMARK    2  A    between atoms: C_1  and  C_6
REMARK    3  A    between atoms: C_1  and  C_11
REMARK    4  A    between atoms: C_2  and  C_3
REMARK    5  A    between atoms: C_6  and  C_8
REMARK    6  A    between atoms: C_8  and  O_9
REMARK    7  A    between atoms: C_11  and  N_12
REMARK                            x       y       z     vdW  Elec       q    Type
REMARK                         _______ _______ _______ _____ _____    ______ ____
ROOT
ATOM      1  C   UNL     1      32.259  -9.609 -22.263  0.00  0.00    -0.011 C 
ENDROOT
BRANCH   1   2
ATOM      2  C   UNL     1      32.869  -9.288 -23.649  0.00  0.00    -0.002 C 
BRANCH   2   3
ATOM      3  C   UNL     1      34.369  -8.929 -23.667  0.00  0.00    -0.000 C 
ATOM      4  C   UNL     1      34.612  -7.444 -23.934  0.00  0.00    -0.000 C 
ATOM      5  C   UNL     1      35.085  -9.768 -24.729  0.00  0.00    -0.000 C 
ENDBRANCH   2   3
ENDBRANCH   1   2
BRANCH   1   6
ATOM      6  C   UNL     1      31.986  -8.359 -21.407  0.00  0.00    +0.107 C 
BRANCH   6   8
ATOM      7  O   UNL     1      32.161  -9.439 -19.242  0.00  0.00    -0.250 OA
ATOM      8  C   UNL     1      32.421  -8.490 -19.968  0.00  0.00    +0.314 C 
BRANCH   8   9
ATOM      9  O   UNL     1      33.153  -7.419 -19.576  0.00  0.00    -0.480 OA
ATOM     10  H   UNL     1      33.074  -6.604 -20.032  0.00  0.00    +0.295 HD
ENDBRANCH   8   9
ENDBRANCH   6   8
ENDBRANCH   1   6
BRANCH   1  11
ATOM     11  C   UNL     1      31.005 -10.489 -22.476  0.00  0.00    -0.086 C 
BRANCH  11  12
ATOM     12  N   UNL     1      30.813 -11.450 -21.395  0.00  0.00    +0.380 N 
ATOM     13  H   UNL     1      29.860 -11.814 -21.430  0.00  0.00    -0.089 HD
ATOM     14  H   UNL     1      30.969 -10.989 -20.498  0.00  0.00    -0.089 HD
ATOM     15  H   UNL     1      31.474 -12.219 -21.502  0.00  0.00    -0.089 HD
ENDBRANCH  11  12
ENDBRANCH   1  11
TORSDOF 7
ENDMDL
MODEL 9
REMARK VINA RESULT:      -5.3     12.911     14.209
REMARK  Name = 5486971
REMARK  7 active torsions:
REMARK  status: ('A' for Active; 'I' for Inactive)
REMARK    1  A    between atoms: C_1  and  C_2
REMARK    2  A    between atoms: C_1  and  C_6
REMARK    3  A    between atoms: C_1  and  C_11
REMARK    4  A    between atoms: C_2  and  C_3
REMARK    5  A    between atoms: C_6  and  C_8
REMARK    6  A    between atoms: C_8  and  O_9
REMARK    7  A    between atoms: C_11  and  N_12
REMARK                            x       y       z     vdW  Elec       q    Type
REMARK                         _______ _______ _______ _____ _____    ______ ____
ROOT
ATOM      1  C   UNL     1      33.722 -14.205 -23.406  0.00  0.00    -0.011 C 
ENDROOT
BRANCH   1   2
ATOM      2  C   UNL     1      32.608 -14.126 -22.334  0.00  0.00    -0.002 C 
BRANCH   2   3
ATOM      3  C   UNL     1      32.982 -14.631 -20.925  0.00  0.00    -0.000 C 
ATOM      4  C   UNL     1      34.486 -14.849 -20.763  0.00  0.00    -0.000 C 
ATOM      5  C   UNL     1      32.237 -15.936 -20.633  0.00  0.00    -0.000 C 
ENDBRANCH   2   3
ENDBRANCH   1   2
BRANCH   1   6
ATOM      6  C   UNL     1      33.489 -15.309 -24.454  0.00  0.00    +0.107 C 
BRANCH   6   8
ATOM      7  O   UNL     1      34.873 -16.820 -25.751  0.00  0.00    -0.250 OA
ATOM      8  C   UNL     1      34.704 -16.157 -24.737  0.00  0.00    +0.314 C 
BRANCH   8   9
ATOM      9  O   UNL     1      35.602 -16.086 -23.725  0.00  0.00    -0.480 OA
ATOM     10  H   UNL     1      36.476 -16.399 -23.850  0.00  0.00    +0.295 HD
ENDBRANCH   8   9
ENDBRANCH   6   8
ENDBRANCH   1   6
BRANCH   1  11
ATOM     11  C   UNL     1      33.898 -12.800 -24.029  0.00  0.00    -0.086 C 
BRANCH  11  12
ATOM     12  N   UNL     1      33.068 -11.796 -23.372  0.00  0.00    +0.380 N 
ATOM     13  H   UNL     1      33.662 -11.053 -23.002  0.00  0.00    -0.089 HD
ATOM     14  H   UNL     1      32.550 -12.230 -22.606  0.00  0.00    -0.089 HD
ATOM     15  H   UNL     1      32.412 -11.403 -24.046  0.00  0.00    -0.089 HD
ENDBRANCH  11  12
ENDBRANCH   1  11
TORSDOF 7
ENDMDL
