MODEL 1
REMARK VINA RESULT:     -10.2      0.000      0.000
REMARK  Name = 9951059
REMARK  5 active torsions:
REMARK  status: ('A' for Active; 'I' for Inactive)
REMARK    1  A    between atoms: C_1  and  C_8
REMARK    2  A    between atoms: C_1  and  N_11
REMARK    3  A    between atoms: C_1  and  C_22
REMARK    4  A    between atoms: C_12  and  C_17
REMARK    5  A    between atoms: C_22  and  C_25
REMARK                            x       y       z     vdW  Elec       q    Type
REMARK                         _______ _______ _______ _____ _____    ______ ____
ROOT
ATOM      1  C   UNL     1      34.005 -23.434 -15.978  0.00  0.00    +0.154 C 
ENDROOT
BRANCH   1   8
ATOM      2  O   UNL     1      33.226 -24.590 -14.048  0.00  0.00    -0.273 OA
ATOM      3  N   UNL     1      31.636 -23.555 -15.373  0.00  0.00    -0.280 N 
ATOM      4  C   UNL     1      30.486 -23.857 -14.518  0.00  0.00    +0.075 C 
ATOM      5  C   UNL     1      29.392 -22.920 -15.036  0.00  0.00    +0.022 C 
ATOM      6  C   UNL     1      29.719 -22.780 -16.517  0.00  0.00    +0.023 C 
ATOM      7  C   UNL     1      31.240 -22.760 -16.531  0.00  0.00    +0.093 C 
ATOM      8  C   UNL     1      32.931 -23.916 -15.037  0.00  0.00    +0.244 C 
ATOM      9  C   UNL     1      30.082 -25.327 -14.624  0.00  0.00    +0.022 C 
ENDBRANCH   1   8
BRANCH   1  11
ATOM     10  O   UNL     1      36.596 -22.825 -14.820  0.00  0.00    -0.273 OA
ATOM     11  N   UNL     1      35.090 -24.343 -15.744  0.00  0.00    -0.297 N 
ATOM     12  C   UNL     1      36.302 -23.962 -15.181  0.00  0.00    +0.244 C 
ATOM     13  H   UNL     1      34.969 -25.287 -15.994  0.00  0.00    +0.150 HD
BRANCH  12  17
ATOM     14  O   UNL     1      38.638 -26.064 -13.398  0.00  0.00    -0.436 OA
ATOM     15  O   UNL     1      40.612 -25.119 -14.076  0.00  0.00    -0.226 OA
ATOM     16  N   UNL     1      38.588 -24.625 -15.112  0.00  0.00    -0.261 N 
ATOM     17  C   UNL     1      37.249 -25.109 -15.025  0.00  0.00    +0.192 C 
ATOM     18  C   UNL     1      37.239 -25.826 -13.684  0.00  0.00    +0.197 C 
ATOM     19  C   UNL     1      36.657 -25.053 -12.507  0.00  0.00    +0.050 C 
ATOM     20  C   UNL     1      39.401 -25.245 -14.190  0.00  0.00    +0.402 C 
ATOM     21  H   UNL     1      38.892 -23.937 -15.747  0.00  0.00    +0.153 HD
ENDBRANCH  12  17
ENDBRANCH   1  11
BRANCH   1  22
ATOM     22  C   UNL     1      33.499 -23.456 -17.415  0.00  0.00    +0.071 C 
BRANCH  22  25
ATOM     23  S   UNL     1      34.940 -20.862 -20.069  0.00  0.00    -0.108 S 
ATOM     24  N   UNL     1      35.597 -22.364 -18.071  0.00  0.00    -0.266 NA
ATOM     25  C   UNL     1      34.257 -22.514 -18.306  0.00  0.00    +0.046 C 
ATOM     26  C   UNL     1      33.708 -21.799 -19.331  0.00  0.00    +0.100 C 
ATOM     27  C   UNL     1      36.069 -21.507 -18.949  0.00  0.00    +0.183 C 
ENDBRANCH  22  25
ENDBRANCH   1  22
TORSDOF 5
ENDMDL
MODEL 2
REMARK VINA RESULT:      -9.7      1.613      2.050
REMARK  Name = 9951059
REMARK  5 active torsions:
REMARK  status: ('A' for Active; 'I' for Inactive)
REMARK    1  A    between atoms: C_1  and  C_8
REMARK    2  A    between atoms: C_1  and  N_11
REMARK    3  A    between atoms: C_1  and  C_22
REMARK    4  A    between atoms: C_12  and  C_17
REMARK    5  A    between atoms: C_22  and  C_25
REMARK                            x       y       z     vdW  Elec       q    Type
REMARK                         _______ _______ _______ _____ _____    ______ ____
ROOT
ATOM      1  C   UNL     1      33.683 -23.087 -15.368  0.00  0.00    +0.154 C 
ENDROOT
BRANCH   1   8
ATOM      2  O   UNL     1      32.796 -24.634 -13.791  0.00  0.00    -0.273 OA
ATOM      3  N   UNL     1      31.293 -23.594 -15.210  0.00  0.00    -0.280 N 
ATOM      4  C   UNL     1      30.083 -24.172 -14.622  0.00  0.00    +0.075 C 
ATOM      5  C   UNL     1      28.955 -23.302 -15.183  0.00  0.00    +0.022 C 
ATOM      6  C   UNL     1      29.481 -22.879 -16.548  0.00  0.00    +0.023 C 
ATOM      7  C   UNL     1      30.966 -22.672 -16.294  0.00  0.00    +0.093 C 
ATOM      8  C   UNL     1      32.560 -23.846 -14.708  0.00  0.00    +0.244 C 
ATOM      9  C   UNL     1      29.922 -25.642 -15.008  0.00  0.00    +0.022 C 
ENDBRANCH   1   8
BRANCH   1  11
ATOM     10  O   UNL     1      36.267 -24.404 -15.466  0.00  0.00    -0.273 OA
ATOM     11  N   UNL     1      34.709 -23.067 -14.365  0.00  0.00    -0.297 N 
ATOM     12  C   UNL     1      35.923 -23.731 -14.498  0.00  0.00    +0.244 C 
ATOM     13  H   UNL     1      34.545 -22.556 -13.540  0.00  0.00    +0.150 HD
BRANCH  12  17
ATOM     14  O   UNL     1      37.619 -24.704 -11.461  0.00  0.00    -0.436 OA
ATOM     15  O   UNL     1      36.151 -23.875  -9.909  0.00  0.00    -0.226 OA
ATOM     16  N   UNL     1      36.024 -23.297 -12.159  0.00  0.00    -0.261 N 
ATOM     17  C   UNL     1      36.822 -23.525 -13.320  0.00  0.00    +0.192 C 
ATOM     18  C   UNL     1      37.687 -24.704 -12.906  0.00  0.00    +0.197 C 
ATOM     19  C   UNL     1      37.233 -26.078 -13.385  0.00  0.00    +0.050 C 
ATOM     20  C   UNL     1      36.546 -23.947 -11.064  0.00  0.00    +0.402 C 
ATOM     21  H   UNL     1      35.208 -22.747 -12.143  0.00  0.00    +0.153 HD
ENDBRANCH  12  17
ENDBRANCH   1  11
BRANCH   1  22
ATOM     22  C   UNL     1      34.109 -23.783 -16.655  0.00  0.00    +0.071 C 
BRANCH  22  25
ATOM     23  S   UNL     1      34.166 -21.285 -19.754  0.00  0.00    -0.108 S 
ATOM     24  N   UNL     1      35.645 -22.343 -17.918  0.00  0.00    -0.266 NA
ATOM     25  C   UNL     1      34.367 -22.815 -17.774  0.00  0.00    +0.046 C 
ATOM     26  C   UNL     1      33.424 -22.372 -18.655  0.00  0.00    +0.100 C 
ATOM     27  C   UNL     1      35.659 -21.519 -18.942  0.00  0.00    +0.183 C 
ENDBRANCH  22  25
ENDBRANCH   1  22
TORSDOF 5
ENDMDL
MODEL 3
REMARK VINA RESULT:      -9.3      1.718      6.000
REMARK  Name = 9951059
REMARK  5 active torsions:
REMARK  status: ('A' for Active; 'I' for Inactive)
REMARK    1  A    between atoms: C_1  and  C_8
REMARK    2  A    between atoms: C_1  and  N_11
REMARK    3  A    between atoms: C_1  and  C_22
REMARK    4  A    between atoms: C_12  and  C_17
REMARK    5  A    between atoms: C_22  and  C_25
REMARK                            x       y       z     vdW  Elec       q    Type
REMARK                         _______ _______ _______ _____ _____    ______ ____
ROOT
ATOM      1  C   UNL     1      36.132 -22.996 -15.840  0.00  0.00    +0.154 C 
ENDROOT
BRANCH   1   8
ATOM      2  O   UNL     1      37.519 -22.579 -13.952  0.00  0.00    -0.273 OA
ATOM      3  N   UNL     1      37.061 -24.790 -14.458  0.00  0.00    -0.280 N 
ATOM      4  C   UNL     1      37.751 -25.371 -13.305  0.00  0.00    +0.075 C 
ATOM      5  C   UNL     1      37.232 -26.810 -13.258  0.00  0.00    +0.022 C 
ATOM      6  C   UNL     1      36.962 -27.136 -14.721  0.00  0.00    +0.023 C 
ATOM      7  C   UNL     1      36.426 -25.823 -15.271  0.00  0.00    +0.093 C 
ATOM      8  C   UNL     1      36.968 -23.422 -14.661  0.00  0.00    +0.244 C 
ATOM      9  C   UNL     1      39.269 -25.312 -13.475  0.00  0.00    +0.022 C 
ENDBRANCH   1   8
BRANCH   1  11
ATOM     10  O   UNL     1      33.534 -24.113 -16.496  0.00  0.00    -0.273 OA
ATOM     11  N   UNL     1      34.866 -22.662 -15.252  0.00  0.00    -0.297 N 
ATOM     12  C   UNL     1      33.665 -23.252 -15.630  0.00  0.00    +0.244 C 
ATOM     13  H   UNL     1      34.847 -21.981 -14.542  0.00  0.00    +0.150 HD
BRANCH  12  17
ATOM     14  O   UNL     1      30.639 -23.562 -13.683  0.00  0.00    -0.436 OA
ATOM     15  O   UNL     1      29.078 -23.244 -15.330  0.00  0.00    -0.226 OA
ATOM     16  N   UNL     1      31.333 -22.775 -15.660  0.00  0.00    -0.261 N 
ATOM     17  C   UNL     1      32.502 -22.742 -14.841  0.00  0.00    +0.192 C 
ATOM     18  C   UNL     1      32.085 -23.561 -13.631  0.00  0.00    +0.197 C 
ATOM     19  C   UNL     1      32.543 -25.015 -13.606  0.00  0.00    +0.050 C 
ATOM     20  C   UNL     1      30.237 -23.199 -14.942  0.00  0.00    +0.402 C 
ATOM     21  H   UNL     1      31.312 -22.527 -16.612  0.00  0.00    +0.153 HD
ENDBRANCH  12  17
ENDBRANCH   1  11
BRANCH   1  22
ATOM     22  C   UNL     1      36.789 -21.824 -16.560  0.00  0.00    +0.071 C 
BRANCH  22  25
ATOM     23  S   UNL     1      35.937 -20.949 -20.349  0.00  0.00    -0.108 S 
ATOM     24  N   UNL     1      35.231 -22.435 -18.355  0.00  0.00    -0.266 NA
ATOM     25  C   UNL     1      36.291 -21.660 -17.967  0.00  0.00    +0.046 C 
ATOM     26  C   UNL     1      36.816 -20.797 -18.884  0.00  0.00    +0.100 C 
ATOM     27  C   UNL     1      34.954 -22.143 -19.607  0.00  0.00    +0.183 C 
ENDBRANCH  22  25
ENDBRANCH   1  22
TORSDOF 5
ENDMDL
MODEL 4
REMARK VINA RESULT:      -9.3      2.207      6.533
REMARK  Name = 9951059
REMARK  5 active torsions:
REMARK  status: ('A' for Active; 'I' for Inactive)
REMARK    1  A    between atoms: C_1  and  C_8
REMARK    2  A    between atoms: C_1  and  N_11
REMARK    3  A    between atoms: C_1  and  C_22
REMARK    4  A    between atoms: C_12  and  C_17
REMARK    5  A    between atoms: C_22  and  C_25
REMARK                            x       y       z     vdW  Elec       q    Type
REMARK                         _______ _______ _______ _____ _____    ______ ____
ROOT
ATOM      1  C   UNL     1      34.444 -23.527 -15.414  0.00  0.00    +0.154 C 
ENDROOT
BRANCH   1   8
ATOM      2  O   UNL     1      33.959 -24.167 -13.174  0.00  0.00    -0.273 OA
ATOM      3  N   UNL     1      36.045 -24.728 -14.004  0.00  0.00    -0.280 N 
ATOM      4  C   UNL     1      36.497 -25.474 -12.828  0.00  0.00    +0.075 C 
ATOM      5  C   UNL     1      37.714 -26.252 -13.336  0.00  0.00    +0.022 C 
ATOM      6  C   UNL     1      38.291 -25.341 -14.412  0.00  0.00    +0.023 C 
ATOM      7  C   UNL     1      37.049 -24.752 -15.064  0.00  0.00    +0.093 C 
ATOM      8  C   UNL     1      34.781 -24.168 -14.092  0.00  0.00    +0.244 C 
ATOM      9  C   UNL     1      36.853 -24.536 -11.675  0.00  0.00    +0.022 C 
ENDBRANCH   1   8
BRANCH   1  11
ATOM     10  O   UNL     1      32.256 -23.931 -17.278  0.00  0.00    -0.273 OA
ATOM     11  N   UNL     1      33.077 -23.123 -15.254  0.00  0.00    -0.297 N 
ATOM     12  C   UNL     1      32.091 -23.360 -16.204  0.00  0.00    +0.244 C 
ATOM     13  H   UNL     1      32.824 -22.653 -14.427  0.00  0.00    +0.150 HD
BRANCH  12  17
ATOM     14  O   UNL     1      28.594 -23.673 -15.353  0.00  0.00    -0.436 OA
ATOM     15  O   UNL     1      27.650 -23.125 -17.368  0.00  0.00    -0.226 OA
ATOM     16  N   UNL     1      29.902 -22.754 -16.920  0.00  0.00    -0.261 N 
ATOM     17  C   UNL     1      30.748 -22.858 -15.775  0.00  0.00    +0.192 C 
ATOM     18  C   UNL     1      29.947 -23.757 -14.847  0.00  0.00    +0.197 C 
ATOM     19  C   UNL     1      30.338 -25.229 -14.827  0.00  0.00    +0.050 C 
ATOM     20  C   UNL     1      28.624 -23.178 -16.632  0.00  0.00    +0.402 C 
ATOM     21  H   UNL     1      30.193 -22.422 -17.800  0.00  0.00    +0.153 HD
ENDBRANCH  12  17
ENDBRANCH   1  11
BRANCH   1  22
ATOM     22  C   UNL     1      35.389 -22.364 -15.694  0.00  0.00    +0.071 C 
BRANCH  22  25
ATOM     23  S   UNL     1      36.523 -21.498 -19.411  0.00  0.00    -0.108 S 
ATOM     24  N   UNL     1      34.633 -22.581 -18.020  0.00  0.00    -0.266 NA
ATOM     25  C   UNL     1      35.607 -22.141 -17.163  0.00  0.00    +0.046 C 
ATOM     26  C   UNL     1      36.701 -21.532 -17.706  0.00  0.00    +0.100 C 
ATOM     27  C   UNL     1      35.012 -22.294 -19.245  0.00  0.00    +0.183 C 
ENDBRANCH  22  25
ENDBRANCH   1  22
TORSDOF 5
ENDMDL
MODEL 5
REMARK VINA RESULT:      -9.2      2.838      6.498
REMARK  Name = 9951059
REMARK  5 active torsions:
REMARK  status: ('A' for Active; 'I' for Inactive)
REMARK    1  A    between atoms: C_1  and  C_8
REMARK    2  A    between atoms: C_1  and  N_11
REMARK    3  A    between atoms: C_1  and  C_22
REMARK    4  A    between atoms: C_12  and  C_17
REMARK    5  A    between atoms: C_22  and  C_25
REMARK                            x       y       z     vdW  Elec       q    Type
REMARK                         _______ _______ _______ _____ _____    ______ ____
ROOT
ATOM      1  C   UNL     1      33.991 -23.904 -14.761  0.00  0.00    +0.154 C 
ENDROOT
BRANCH   1   8
ATOM      2  O   UNL     1      35.466 -25.588 -15.568  0.00  0.00    -0.273 OA
ATOM      3  N   UNL     1      36.114 -24.441 -13.666  0.00  0.00    -0.280 N 
ATOM      4  C   UNL     1      37.426 -25.077 -13.527  0.00  0.00    +0.075 C 
ATOM      5  C   UNL     1      38.167 -24.170 -12.542  0.00  0.00    +0.022 C 
ATOM      6  C   UNL     1      37.053 -23.626 -11.657  0.00  0.00    +0.023 C 
ATOM      7  C   UNL     1      35.904 -23.431 -12.633  0.00  0.00    +0.093 C 
ATOM      8  C   UNL     1      35.254 -24.726 -14.714  0.00  0.00    +0.244 C 
ATOM      9  C   UNL     1      37.300 -26.509 -13.010  0.00  0.00    +0.022 C 
ENDBRANCH   1   8
BRANCH   1  11
ATOM     10  O   UNL     1      35.617 -22.251 -16.507  0.00  0.00    -0.273 OA
ATOM     11  N   UNL     1      33.798 -23.663 -16.162  0.00  0.00    -0.297 N 
ATOM     12  C   UNL     1      34.631 -22.853 -16.923  0.00  0.00    +0.244 C 
ATOM     13  H   UNL     1      33.034 -24.097 -16.608  0.00  0.00    +0.150 HD
BRANCH  12  17
ATOM     14  O   UNL     1      34.447 -21.393 -20.223  0.00  0.00    -0.436 OA
ATOM     15  O   UNL     1      32.420 -20.335 -20.071  0.00  0.00    -0.226 OA
ATOM     16  N   UNL     1      33.118 -21.896 -18.494  0.00  0.00    -0.261 N 
ATOM     17  C   UNL     1      34.219 -22.794 -18.360  0.00  0.00    +0.192 C 
ATOM     18  C   UNL     1      35.234 -22.227 -19.339  0.00  0.00    +0.197 C 
ATOM     19  C   UNL     1      36.334 -21.355 -18.746  0.00  0.00    +0.050 C 
ATOM     20  C   UNL     1      33.240 -21.127 -19.628  0.00  0.00    +0.402 C 
ATOM     21  H   UNL     1      32.369 -21.835 -17.858  0.00  0.00    +0.153 HD
ENDBRANCH  12  17
ENDBRANCH   1  11
BRANCH   1  22
ATOM     22  C   UNL     1      32.840 -24.665 -14.115  0.00  0.00    +0.071 C 
BRANCH  22  25
ATOM     23  S   UNL     1      29.138 -24.148 -15.486  0.00  0.00    -0.108 S 
ATOM     24  N   UNL     1      31.306 -22.894 -14.849  0.00  0.00    -0.266 NA
ATOM     25  C   UNL     1      31.500 -24.233 -14.637  0.00  0.00    +0.046 C 
ATOM     26  C   UNL     1      30.463 -25.076 -14.916  0.00  0.00    +0.100 C 
ATOM     27  C   UNL     1      30.083 -22.728 -15.301  0.00  0.00    +0.183 C 
ENDBRANCH  22  25
ENDBRANCH   1  22
TORSDOF 5
ENDMDL
MODEL 6
REMARK VINA RESULT:      -9.2      1.765      2.079
REMARK  Name = 9951059
REMARK  5 active torsions:
REMARK  status: ('A' for Active; 'I' for Inactive)
REMARK    1  A    between atoms: C_1  and  C_8
REMARK    2  A    between atoms: C_1  and  N_11
REMARK    3  A    between atoms: C_1  and  C_22
REMARK    4  A    between atoms: C_12  and  C_17
REMARK    5  A    between atoms: C_22  and  C_25
REMARK                            x       y       z     vdW  Elec       q    Type
REMARK                         _______ _______ _______ _____ _____    ______ ____
ROOT
ATOM      1  C   UNL     1      33.678 -23.656 -14.664  0.00  0.00    +0.154 C 
ENDROOT
BRANCH   1   8
ATOM      2  O   UNL     1      32.394 -25.201 -13.389  0.00  0.00    -0.273 OA
ATOM      3  N   UNL     1      31.255 -23.894 -14.921  0.00  0.00    -0.280 N 
ATOM      4  C   UNL     1      29.913 -24.369 -14.580  0.00  0.00    +0.075 C 
ATOM      5  C   UNL     1      28.986 -23.336 -15.226  0.00  0.00    +0.022 C 
ATOM      6  C   UNL     1      29.768 -22.878 -16.450  0.00  0.00    +0.023 C 
ATOM      7  C   UNL     1      31.205 -22.863 -15.953  0.00  0.00    +0.093 C 
ATOM      8  C   UNL     1      32.391 -24.327 -14.256  0.00  0.00    +0.244 C 
ATOM      9  C   UNL     1      29.666 -25.778 -15.117  0.00  0.00    +0.022 C 
ENDBRANCH   1   8
BRANCH   1  11
ATOM     10  O   UNL     1      34.777 -23.519 -11.981  0.00  0.00    -0.273 OA
ATOM     11  N   UNL     1      34.691 -24.496 -14.093  0.00  0.00    -0.297 N 
ATOM     12  C   UNL     1      35.159 -24.358 -12.792  0.00  0.00    +0.244 C 
ATOM     13  H   UNL     1      35.074 -25.209 -14.653  0.00  0.00    +0.150 HD
BRANCH  12  17
ATOM     14  O   UNL     1      38.497 -25.736 -12.687  0.00  0.00    -0.436 OA
ATOM     15  O   UNL     1      38.409 -27.115 -14.515  0.00  0.00    -0.226 OA
ATOM     16  N   UNL     1      36.498 -26.153 -13.603  0.00  0.00    -0.261 N 
ATOM     17  C   UNL     1      36.195 -25.378 -12.443  0.00  0.00    +0.192 C 
ATOM     18  C   UNL     1      37.560 -24.853 -12.027  0.00  0.00    +0.197 C 
ATOM     19  C   UNL     1      37.895 -23.428 -12.452  0.00  0.00    +0.050 C 
ATOM     20  C   UNL     1      37.848 -26.405 -13.693  0.00  0.00    +0.402 C 
ATOM     21  H   UNL     1      35.829 -26.466 -14.254  0.00  0.00    +0.153 HD
ENDBRANCH  12  17
ENDBRANCH   1  11
BRANCH   1  22
ATOM     22  C   UNL     1      33.764 -23.554 -16.182  0.00  0.00    +0.071 C 
BRANCH  22  25
ATOM     23  S   UNL     1      37.215 -21.663 -16.783  0.00  0.00    -0.108 S 
ATOM     24  N   UNL     1      35.078 -22.502 -17.969  0.00  0.00    -0.266 NA
ATOM     25  C   UNL     1      34.995 -22.827 -16.641  0.00  0.00    +0.046 C 
ATOM     26  C   UNL     1      36.035 -22.466 -15.834  0.00  0.00    +0.100 C 
ATOM     27  C   UNL     1      36.219 -21.879 -18.163  0.00  0.00    +0.183 C 
ENDBRANCH  22  25
ENDBRANCH   1  22
TORSDOF 5
ENDMDL
MODEL 7
REMARK VINA RESULT:      -8.8      1.558      2.120
REMARK  Name = 9951059
REMARK  5 active torsions:
REMARK  status: ('A' for Active; 'I' for Inactive)
REMARK    1  A    between atoms: C_1  and  C_8
REMARK    2  A    between atoms: C_1  and  N_11
REMARK    3  A    between atoms: C_1  and  C_22
REMARK    4  A    between atoms: C_12  and  C_17
REMARK    5  A    between atoms: C_22  and  C_25
REMARK                            x       y       z     vdW  Elec       q    Type
REMARK                         _______ _______ _______ _____ _____    ______ ____
ROOT
ATOM      1  C   UNL     1      33.544 -23.118 -16.997  0.00  0.00    +0.154 C 
ENDROOT
BRANCH   1   8
ATOM      2  O   UNL     1      31.259 -23.364 -17.615  0.00  0.00    -0.273 OA
ATOM      3  N   UNL     1      31.747 -23.361 -15.353  0.00  0.00    -0.280 N 
ATOM      4  C   UNL     1      30.384 -23.627 -14.888  0.00  0.00    +0.075 C 
ATOM      5  C   UNL     1      30.572 -24.043 -13.427  0.00  0.00    +0.022 C 
ATOM      6  C   UNL     1      31.803 -23.257 -12.993  0.00  0.00    +0.023 C 
ATOM      7  C   UNL     1      32.682 -23.283 -14.234  0.00  0.00    +0.093 C 
ATOM      8  C   UNL     1      32.077 -23.294 -16.697  0.00  0.00    +0.244 C 
ATOM      9  C   UNL     1      29.496 -22.391 -15.025  0.00  0.00    +0.022 C 
ENDBRANCH   1   8
BRANCH   1  11
ATOM     10  O   UNL     1      36.356 -23.256 -16.290  0.00  0.00    -0.273 OA
ATOM     11  N   UNL     1      34.180 -24.074 -16.136  0.00  0.00    -0.297 N 
ATOM     12  C   UNL     1      35.541 -24.063 -15.852  0.00  0.00    +0.244 C 
ATOM     13  H   UNL     1      33.623 -24.773 -15.725  0.00  0.00    +0.150 HD
BRANCH  12  17
ATOM     14  O   UNL     1      37.233 -25.454 -12.979  0.00  0.00    -0.436 OA
ATOM     15  O   UNL     1      39.121 -26.266 -13.992  0.00  0.00    -0.226 OA
ATOM     16  N   UNL     1      37.266 -25.575 -15.214  0.00  0.00    -0.261 N 
ATOM     17  C   UNL     1      35.938 -25.152 -14.907  0.00  0.00    +0.192 C 
ATOM     18  C   UNL     1      36.037 -24.780 -13.437  0.00  0.00    +0.197 C 
ATOM     19  C   UNL     1      36.198 -23.297 -13.123  0.00  0.00    +0.050 C 
ATOM     20  C   UNL     1      37.990 -25.807 -14.067  0.00  0.00    +0.402 C 
ATOM     21  H   UNL     1      37.619 -25.685 -16.126  0.00  0.00    +0.153 HD
ENDBRANCH  12  17
ENDBRANCH   1  11
BRANCH   1  22
ATOM     22  C   UNL     1      33.815 -23.365 -18.477  0.00  0.00    +0.071 C 
BRANCH  22  25
ATOM     23  S   UNL     1      35.090 -20.145 -20.441  0.00  0.00    -0.108 S 
ATOM     24  N   UNL     1      32.965 -21.356 -19.603  0.00  0.00    -0.266 NA
ATOM     25  C   UNL     1      34.060 -22.093 -19.237  0.00  0.00    +0.046 C 
ATOM     26  C   UNL     1      35.290 -21.619 -19.588  0.00  0.00    +0.100 C 
ATOM     27  C   UNL     1      33.391 -20.295 -20.252  0.00  0.00    +0.183 C 
ENDBRANCH  22  25
ENDBRANCH   1  22
TORSDOF 5
ENDMDL
MODEL 8
REMARK VINA RESULT:      -7.9      9.618     12.251
REMARK  Name = 9951059
REMARK  5 active torsions:
REMARK  status: ('A' for Active; 'I' for Inactive)
REMARK    1  A    between atoms: C_1  and  C_8
REMARK    2  A    between atoms: C_1  and  N_11
REMARK    3  A    between atoms: C_1  and  C_22
REMARK    4  A    between atoms: C_12  and  C_17
REMARK    5  A    between atoms: C_22  and  C_25
REMARK                            x       y       z     vdW  Elec       q    Type
REMARK                         _______ _______ _______ _____ _____    ______ ____
ROOT
ATOM      1  C   UNL     1      33.262 -13.822 -22.574  0.00  0.00    +0.154 C 
ENDROOT
BRANCH   1   8
ATOM      2  O   UNL     1      32.270 -13.791 -20.411  0.00  0.00    -0.273 OA
ATOM      3  N   UNL     1      32.287 -11.802 -21.594  0.00  0.00    -0.280 N 
ATOM      4  C   UNL     1      31.701 -10.975 -20.536  0.00  0.00    +0.075 C 
ATOM      5  C   UNL     1      31.987  -9.542 -20.995  0.00  0.00    +0.022 C 
ATOM      6  C   UNL     1      31.971  -9.649 -22.514  0.00  0.00    +0.023 C 
ATOM      7  C   UNL     1      32.616 -11.002 -22.770  0.00  0.00    +0.093 C 
ATOM      8  C   UNL     1      32.563 -13.149 -21.421  0.00  0.00    +0.244 C 
ATOM      9  C   UNL     1      30.205 -11.242 -20.383  0.00  0.00    +0.022 C 
ENDBRANCH   1   8
BRANCH   1  11
ATOM     10  O   UNL     1      35.344 -15.552 -23.622  0.00  0.00    -0.273 OA
ATOM     11  N   UNL     1      33.745 -15.048 -22.005  0.00  0.00    -0.297 N 
ATOM     12  C   UNL     1      34.752 -15.815 -22.579  0.00  0.00    +0.244 C 
ATOM     13  H   UNL     1      33.342 -15.361 -21.164  0.00  0.00    +0.150 HD
BRANCH  12  17
ATOM     14  O   UNL     1      34.853 -19.357 -21.875  0.00  0.00    -0.436 OA
ATOM     15  O   UNL     1      32.982 -19.550 -20.566  0.00  0.00    -0.226 OA
ATOM     16  N   UNL     1      33.901 -17.483 -21.107  0.00  0.00    -0.261 N 
ATOM     17  C   UNL     1      35.081 -17.029 -21.769  0.00  0.00    +0.192 C 
ATOM     18  C   UNL     1      35.529 -18.262 -22.537  0.00  0.00    +0.197 C 
ATOM     19  C   UNL     1      35.153 -18.315 -24.012  0.00  0.00    +0.050 C 
ATOM     20  C   UNL     1      33.819 -18.857 -21.126  0.00  0.00    +0.402 C 
ATOM     21  H   UNL     1      33.232 -16.891 -20.692  0.00  0.00    +0.153 HD
ENDBRANCH  12  17
ENDBRANCH   1  11
BRANCH   1  22
ATOM     22  C   UNL     1      32.292 -14.034 -23.730  0.00  0.00    +0.071 C 
BRANCH  22  25
ATOM     23  S   UNL     1      33.571 -13.504 -27.462  0.00  0.00    -0.108 S 
ATOM     24  N   UNL     1      33.589 -12.461 -25.097  0.00  0.00    -0.266 NA
ATOM     25  C   UNL     1      32.876 -13.630 -25.053  0.00  0.00    +0.046 C 
ATOM     26  C   UNL     1      32.748 -14.340 -26.212  0.00  0.00    +0.100 C 
ATOM     27  C   UNL     1      34.008 -12.290 -26.332  0.00  0.00    +0.183 C 
ENDBRANCH  22  25
ENDBRANCH   1  22
TORSDOF 5
ENDMDL
MODEL 9
REMARK VINA RESULT:      -7.8     15.867     18.737
REMARK  Name = 9951059
REMARK  5 active torsions:
REMARK  status: ('A' for Active; 'I' for Inactive)
REMARK    1  A    between atoms: C_1  and  C_8
REMARK    2  A    between atoms: C_1  and  N_11
REMARK    3  A    between atoms: C_1  and  C_22
REMARK    4  A    between atoms: C_12  and  C_17
REMARK    5  A    between atoms: C_22  and  C_25
REMARK                            x       y       z     vdW  Elec       q    Type
REMARK                         _______ _______ _______ _____ _____    ______ ____
ROOT
ATOM      1  C   UNL     1      33.027  -8.188 -23.081  0.00  0.00    +0.154 C 
ENDROOT
BRANCH   1   8
ATOM      2  O   UNL     1      32.932  -7.481 -20.811  0.00  0.00    -0.273 OA
ATOM      3  N   UNL     1      31.962  -9.518 -21.324  0.00  0.00    -0.280 N 
ATOM      4  C   UNL     1      31.429  -9.790 -19.987  0.00  0.00    +0.075 C 
ATOM      5  C   UNL     1      30.421 -10.918 -20.220  0.00  0.00    +0.022 C 
ATOM      6  C   UNL     1      31.011 -11.680 -21.400  0.00  0.00    +0.023 C 
ATOM      7  C   UNL     1      31.597 -10.574 -22.264  0.00  0.00    +0.093 C 
ATOM      8  C   UNL     1      32.640  -8.350 -21.633  0.00  0.00    +0.244 C 
ATOM      9  C   UNL     1      32.536 -10.198 -19.017  0.00  0.00    +0.022 C 
ENDBRANCH   1   8
BRANCH   1  11
ATOM     10  O   UNL     1      30.908  -6.866 -24.560  0.00  0.00    -0.273 OA
ATOM     11  N   UNL     1      32.874  -6.780 -23.314  0.00  0.00    -0.297 N 
ATOM     12  C   UNL     1      31.822  -6.233 -24.038  0.00  0.00    +0.244 C 
ATOM     13  H   UNL     1      33.551  -6.171 -22.941  0.00  0.00    +0.150 HD
BRANCH  12  17
ATOM     14  O   UNL     1      30.635  -2.869 -23.464  0.00  0.00    -0.436 OA
ATOM     15  O   UNL     1      29.618  -2.464 -25.477  0.00  0.00    -0.226 OA
ATOM     16  N   UNL     1      31.031  -4.284 -25.154  0.00  0.00    -0.261 N 
ATOM     17  C   UNL     1      31.888  -4.740 -24.108  0.00  0.00    +0.192 C 
ATOM     18  C   UNL     1      31.377  -3.976 -22.898  0.00  0.00    +0.197 C 
ATOM     19  C   UNL     1      30.434  -4.730 -21.969  0.00  0.00    +0.050 C 
ATOM     20  C   UNL     1      30.352  -3.147 -24.777  0.00  0.00    +0.402 C 
ATOM     21  H   UNL     1      30.936  -4.724 -26.029  0.00  0.00    +0.153 HD
ENDBRANCH  12  17
ENDBRANCH   1  11
BRANCH   1  22
ATOM     22  C   UNL     1      34.450  -8.686 -23.308  0.00  0.00    +0.071 C 
BRANCH  22  25
ATOM     23  S   UNL     1      34.151 -11.786 -25.788  0.00  0.00    -0.108 S 
ATOM     24  N   UNL     1      35.487  -9.622 -25.327  0.00  0.00    -0.266 NA
ATOM     25  C   UNL     1      34.524  -9.754 -24.361  0.00  0.00    +0.046 C 
ATOM     26  C   UNL     1      33.705 -10.843 -24.427  0.00  0.00    +0.100 C 
ATOM     27  C   UNL     1      35.384 -10.647 -26.143  0.00  0.00    +0.183 C 
ENDBRANCH  22  25
ENDBRANCH   1  22
TORSDOF 5
ENDMDL
