MODEL 1
REMARK VINA RESULT:      -6.3      0.000      0.000
REMARK  Name = 446578
REMARK  4 active torsions:
REMARK  status: ('A' for Active; 'I' for Inactive)
REMARK    1  A    between atoms: C_2  and  O_8
REMARK    2  A    between atoms: C_3  and  O_10
REMARK    3  A    between atoms: C_4  and  O_12
REMARK    4  A    between atoms: C_6  and  O_14
REMARK                            x       y       z     vdW  Elec       q    Type
REMARK                         _______ _______ _______ _____ _____    ______ ____
ROOT
ATOM      1  O   UNL     1      35.872 -24.523 -13.499  0.00  0.00    -0.329 OA
ATOM      2  C   UNL     1      38.197 -25.798 -14.616  0.00  0.00    +0.171 C 
ATOM      3  C   UNL     1      38.264 -24.987 -13.317  0.00  0.00    +0.167 C 
ATOM      4  C   UNL     1      36.785 -26.335 -14.845  0.00  0.00    +0.196 C 
ATOM      5  C   UNL     1      37.159 -23.921 -13.294  0.00  0.00    +0.147 C 
ATOM      6  C   UNL     1      35.753 -25.208 -14.749  0.00  0.00    +0.266 C 
ATOM      7  C   UNL     1      37.103 -23.171 -11.967  0.00  0.00    +0.035 C 
ENDROOT
BRANCH   2   8
ATOM      8  O   UNL     1      39.114 -26.887 -14.559  0.00  0.00    -0.379 OA
ATOM      9  H   UNL     1      38.628 -27.712 -14.404  0.00  0.00    +0.211 HD
ENDBRANCH   2   8
BRANCH   3  10
ATOM     10  O   UNL     1      38.121 -25.861 -12.194  0.00  0.00    -0.379 OA
ATOM     11  H   UNL     1      37.629 -25.407 -11.492  0.00  0.00    +0.211 HD
ENDBRANCH   3  10
BRANCH   4  12
ATOM     12  O   UNL     1      36.718 -26.954 -16.127  0.00  0.00    -0.378 OA
ATOM     13  H   UNL     1      36.791 -26.276 -16.817  0.00  0.00    +0.211 HD
ENDBRANCH   4  12
BRANCH   6  14
ATOM     14  O   UNL     1      35.892 -24.320 -15.857  0.00  0.00    -0.326 OA
ATOM     15  C   UNL     1      34.718 -23.544 -16.049  0.00  0.00    +0.177 C 
ENDBRANCH   6  14
TORSDOF 4
ENDMDL
MODEL 2
REMARK VINA RESULT:      -6.0      2.110      3.608
REMARK  Name = 446578
REMARK  4 active torsions:
REMARK  status: ('A' for Active; 'I' for Inactive)
REMARK    1  A    between atoms: C_2  and  O_8
REMARK    2  A    between atoms: C_3  and  O_10
REMARK    3  A    between atoms: C_4  and  O_12
REMARK    4  A    between atoms: C_6  and  O_14
REMARK                            x       y       z     vdW  Elec       q    Type
REMARK                         _______ _______ _______ _____ _____    ______ ____
ROOT
ATOM      1  O   UNL     1      35.985 -24.546 -14.353  0.00  0.00    -0.329 OA
ATOM      2  C   UNL     1      36.598 -23.459 -11.761  0.00  0.00    +0.171 C 
ATOM      3  C   UNL     1      35.168 -23.835 -12.163  0.00  0.00    +0.167 C 
ATOM      4  C   UNL     1      37.616 -24.265 -12.567  0.00  0.00    +0.196 C 
ATOM      5  C   UNL     1      34.998 -23.744 -13.686  0.00  0.00    +0.147 C 
ATOM      6  C   UNL     1      37.330 -24.154 -14.068  0.00  0.00    +0.266 C 
ATOM      7  C   UNL     1      33.629 -24.231 -14.149  0.00  0.00    +0.035 C 
ENDROOT
BRANCH   2   8
ATOM      8  O   UNL     1      36.795 -23.703 -10.371  0.00  0.00    -0.379 OA
ATOM      9  H   UNL     1      37.571 -24.272 -10.249  0.00  0.00    +0.211 HD
ENDBRANCH   2   8
BRANCH   3  10
ATOM     10  O   UNL     1      34.875 -25.163 -11.719  0.00  0.00    -0.379 OA
ATOM     11  H   UNL     1      34.974 -25.210 -10.756  0.00  0.00    +0.211 HD
ENDBRANCH   3  10
BRANCH   4  12
ATOM     12  O   UNL     1      38.928 -23.789 -12.281  0.00  0.00    -0.378 OA
ATOM     13  H   UNL     1      39.209 -23.177 -12.980  0.00  0.00    +0.211 HD
ENDBRANCH   4  12
BRANCH   6  14
ATOM     14  O   UNL     1      37.606 -22.830 -14.523  0.00  0.00    -0.326 OA
ATOM     15  C   UNL     1      37.623 -22.764 -15.941  0.00  0.00    +0.177 C 
ENDBRANCH   6  14
TORSDOF 4
ENDMDL
MODEL 3
REMARK VINA RESULT:      -5.9      1.958      3.199
REMARK  Name = 446578
REMARK  4 active torsions:
REMARK  status: ('A' for Active; 'I' for Inactive)
REMARK    1  A    between atoms: C_2  and  O_8
REMARK    2  A    between atoms: C_3  and  O_10
REMARK    3  A    between atoms: C_4  and  O_12
REMARK    4  A    between atoms: C_6  and  O_14
REMARK                            x       y       z     vdW  Elec       q    Type
REMARK                         _______ _______ _______ _____ _____    ______ ____
ROOT
ATOM      1  O   UNL     1      37.269 -23.798 -14.031  0.00  0.00    -0.329 OA
ATOM      2  C   UNL     1      35.740 -24.989 -11.905  0.00  0.00    +0.171 C 
ATOM      3  C   UNL     1      37.234 -25.278 -12.088  0.00  0.00    +0.167 C 
ATOM      4  C   UNL     1      35.373 -23.635 -12.511  0.00  0.00    +0.196 C 
ATOM      5  C   UNL     1      37.637 -25.102 -13.559  0.00  0.00    +0.147 C 
ATOM      6  C   UNL     1      35.864 -23.538 -13.959  0.00  0.00    +0.266 C 
ATOM      7  C   UNL     1      39.139 -25.255 -13.772  0.00  0.00    +0.035 C 
ENDROOT
BRANCH   2   8
ATOM      8  O   UNL     1      35.408 -24.992 -10.519  0.00  0.00    -0.379 OA
ATOM      9  H   UNL     1      34.825 -25.743 -10.328  0.00  0.00    +0.211 HD
ENDBRANCH   2   8
BRANCH   3  10
ATOM     10  O   UNL     1      38.000 -24.395 -11.264  0.00  0.00    -0.379 OA
ATOM     11  H   UNL     1      37.506 -23.572 -11.127  0.00  0.00    +0.211 HD
ENDBRANCH   3  10
BRANCH   4  12
ATOM     12  O   UNL     1      33.960 -23.462 -12.461  0.00  0.00    -0.378 OA
ATOM     13  H   UNL     1      33.619 -23.832 -11.631  0.00  0.00    +0.211 HD
ENDBRANCH   4  12
BRANCH   6  14
ATOM     14  O   UNL     1      35.116 -24.423 -14.791  0.00  0.00    -0.326 OA
ATOM     15  C   UNL     1      34.493 -23.725 -15.860  0.00  0.00    +0.177 C 
ENDBRANCH   6  14
TORSDOF 4
ENDMDL
MODEL 4
REMARK VINA RESULT:      -5.8     11.582     12.552
REMARK  Name = 446578
REMARK  4 active torsions:
REMARK  status: ('A' for Active; 'I' for Inactive)
REMARK    1  A    between atoms: C_2  and  O_8
REMARK    2  A    between atoms: C_3  and  O_10
REMARK    3  A    between atoms: C_4  and  O_12
REMARK    4  A    between atoms: C_6  and  O_14
REMARK                            x       y       z     vdW  Elec       q    Type
REMARK                         _______ _______ _______ _____ _____    ______ ____
ROOT
ATOM      1  O   UNL     1      43.506 -14.383 -17.234  0.00  0.00    -0.329 OA
ATOM      2  C   UNL     1      40.945 -15.012 -16.084  0.00  0.00    +0.171 C 
ATOM      3  C   UNL     1      41.741 -16.039 -16.896  0.00  0.00    +0.167 C 
ATOM      4  C   UNL     1      41.875 -13.966 -15.474  0.00  0.00    +0.196 C 
ATOM      5  C   UNL     1      42.659 -15.330 -17.902  0.00  0.00    +0.147 C 
ATOM      6  C   UNL     1      42.786 -13.357 -16.545  0.00  0.00    +0.266 C 
ATOM      7  C   UNL     1      43.566 -16.304 -18.647  0.00  0.00    +0.035 C 
ENDROOT
BRANCH   2   8
ATOM      8  O   UNL     1      40.221 -15.665 -15.044  0.00  0.00    -0.379 OA
ATOM      9  H   UNL     1      40.445 -15.262 -14.191  0.00  0.00    +0.211 HD
ENDBRANCH   2   8
BRANCH   3  10
ATOM     10  O   UNL     1      42.521 -16.851 -16.014  0.00  0.00    -0.379 OA
ATOM     11  H   UNL     1      42.214 -16.724 -15.103  0.00  0.00    +0.211 HD
ENDBRANCH   3  10
BRANCH   4  12
ATOM     12  O   UNL     1      41.098 -12.945 -14.854  0.00  0.00    -0.378 OA
ATOM     13  H   UNL     1      40.821 -13.240 -13.972  0.00  0.00    +0.211 HD
ENDBRANCH   4  12
BRANCH   6  14
ATOM     14  O   UNL     1      42.019 -12.553 -17.440  0.00  0.00    -0.326 OA
ATOM     15  C   UNL     1      42.660 -11.313 -17.699  0.00  0.00    +0.177 C 
ENDBRANCH   6  14
TORSDOF 4
ENDMDL
MODEL 5
REMARK VINA RESULT:      -5.8      1.615      3.768
REMARK  Name = 446578
REMARK  4 active torsions:
REMARK  status: ('A' for Active; 'I' for Inactive)
REMARK    1  A    between atoms: C_2  and  O_8
REMARK    2  A    between atoms: C_3  and  O_10
REMARK    3  A    between atoms: C_4  and  O_12
REMARK    4  A    between atoms: C_6  and  O_14
REMARK                            x       y       z     vdW  Elec       q    Type
REMARK                         _______ _______ _______ _____ _____    ______ ____
ROOT
ATOM      1  O   UNL     1      36.813 -24.862 -15.315  0.00  0.00    -0.329 OA
ATOM      2  C   UNL     1      35.887 -24.619 -12.603  0.00  0.00    +0.171 C 
ATOM      3  C   UNL     1      35.184 -23.908 -13.765  0.00  0.00    +0.167 C 
ATOM      4  C   UNL     1      36.637 -25.854 -13.098  0.00  0.00    +0.196 C 
ATOM      5  C   UNL     1      36.175 -23.643 -14.907  0.00  0.00    +0.147 C 
ATOM      6  C   UNL     1      37.556 -25.497 -14.271  0.00  0.00    +0.266 C 
ATOM      7  C   UNL     1      35.496 -23.052 -16.139  0.00  0.00    +0.035 C 
ENDROOT
BRANCH   2   8
ATOM      8  O   UNL     1      34.932 -25.008 -11.619  0.00  0.00    -0.379 OA
ATOM      9  H   UNL     1      34.852 -25.974 -11.610  0.00  0.00    +0.211 HD
ENDBRANCH   2   8
BRANCH   3  10
ATOM     10  O   UNL     1      34.100 -24.712 -14.237  0.00  0.00    -0.379 OA
ATOM     11  H   UNL     1      33.956 -25.451 -13.625  0.00  0.00    +0.211 HD
ENDBRANCH   3  10
BRANCH   4  12
ATOM     12  O   UNL     1      37.399 -26.404 -12.028  0.00  0.00    -0.378 OA
ATOM     13  H   UNL     1      36.884 -27.098 -11.587  0.00  0.00    +0.211 HD
ENDBRANCH   4  12
BRANCH   6  14
ATOM     14  O   UNL     1      38.637 -24.684 -13.817  0.00  0.00    -0.326 OA
ATOM     15  C   UNL     1      39.891 -25.249 -14.166  0.00  0.00    +0.177 C 
ENDBRANCH   6  14
TORSDOF 4
ENDMDL
MODEL 6
REMARK VINA RESULT:      -5.8      9.479     11.790
REMARK  Name = 446578
REMARK  4 active torsions:
REMARK  status: ('A' for Active; 'I' for Inactive)
REMARK    1  A    between atoms: C_2  and  O_8
REMARK    2  A    between atoms: C_3  and  O_10
REMARK    3  A    between atoms: C_4  and  O_12
REMARK    4  A    between atoms: C_6  and  O_14
REMARK                            x       y       z     vdW  Elec       q    Type
REMARK                         _______ _______ _______ _____ _____    ______ ____
ROOT
ATOM      1  O   UNL     1      35.276 -17.726 -21.456  0.00  0.00    -0.329 OA
ATOM      2  C   UNL     1      34.310 -17.645 -24.165  0.00  0.00    +0.171 C 
ATOM      3  C   UNL     1      34.444 -16.376 -23.314  0.00  0.00    +0.167 C 
ATOM      4  C   UNL     1      35.271 -18.727 -23.676  0.00  0.00    +0.196 C 
ATOM      5  C   UNL     1      34.323 -16.717 -21.822  0.00  0.00    +0.147 C 
ATOM      6  C   UNL     1      35.113 -18.954 -22.170  0.00  0.00    +0.266 C 
ATOM      7  C   UNL     1      34.576 -15.508 -20.928  0.00  0.00    +0.035 C 
ENDROOT
BRANCH   2   8
ATOM      8  O   UNL     1      34.586 -17.348 -25.531  0.00  0.00    -0.379 OA
ATOM      9  H   UNL     1      34.778 -18.170 -26.009  0.00  0.00    +0.211 HD
ENDBRANCH   2   8
BRANCH   3  10
ATOM     10  O   UNL     1      35.705 -15.754 -23.572  0.00  0.00    -0.379 OA
ATOM     11  H   UNL     1      35.754 -15.497 -24.506  0.00  0.00    +0.211 HD
ENDBRANCH   3  10
BRANCH   4  12
ATOM     12  O   UNL     1      35.020 -19.937 -24.385  0.00  0.00    -0.378 OA
ATOM     13  H   UNL     1      34.533 -20.551 -23.812  0.00  0.00    +0.211 HD
ENDBRANCH   4  12
BRANCH   6  14
ATOM     14  O   UNL     1      33.852 -19.564 -21.897  0.00  0.00    -0.326 OA
ATOM     15  C   UNL     1      33.833 -20.157 -20.606  0.00  0.00    +0.177 C 
ENDBRANCH   6  14
TORSDOF 4
ENDMDL
MODEL 7
REMARK VINA RESULT:      -5.7      1.799      2.047
REMARK  Name = 446578
REMARK  4 active torsions:
REMARK  status: ('A' for Active; 'I' for Inactive)
REMARK    1  A    between atoms: C_2  and  O_8
REMARK    2  A    between atoms: C_3  and  O_10
REMARK    3  A    between atoms: C_4  and  O_12
REMARK    4  A    between atoms: C_6  and  O_14
REMARK                            x       y       z     vdW  Elec       q    Type
REMARK                         _______ _______ _______ _____ _____    ______ ____
ROOT
ATOM      1  O   UNL     1      36.025 -24.314 -14.425  0.00  0.00    -0.329 OA
ATOM      2  C   UNL     1      38.611 -25.099 -13.438  0.00  0.00    +0.171 C 
ATOM      3  C   UNL     1      37.346 -25.216 -12.579  0.00  0.00    +0.167 C 
ATOM      4  C   UNL     1      38.260 -25.142 -14.924  0.00  0.00    +0.196 C 
ATOM      5  C   UNL     1      36.301 -24.183 -13.022  0.00  0.00    +0.147 C 
ATOM      6  C   UNL     1      37.173 -24.115 -15.255  0.00  0.00    +0.266 C 
ATOM      7  C   UNL     1      34.977 -24.343 -12.282  0.00  0.00    +0.035 C 
ENDROOT
BRANCH   2   8
ATOM      8  O   UNL     1      39.508 -26.163 -13.133  0.00  0.00    -0.379 OA
ATOM      9  H   UNL     1      39.028 -26.872 -12.677  0.00  0.00    +0.211 HD
ENDBRANCH   2   8
BRANCH   3  10
ATOM     10  O   UNL     1      36.806 -26.536 -12.692  0.00  0.00    -0.379 OA
ATOM     11  H   UNL     1      37.498 -27.142 -13.000  0.00  0.00    +0.211 HD
ENDBRANCH   3  10
BRANCH   4  12
ATOM     12  O   UNL     1      39.431 -24.881 -15.693  0.00  0.00    -0.378 OA
ATOM     13  H   UNL     1      39.408 -25.409 -16.506  0.00  0.00    +0.211 HD
ENDBRANCH   4  12
BRANCH   6  14
ATOM     14  O   UNL     1      37.694 -22.793 -15.134  0.00  0.00    -0.326 OA
ATOM     15  C   UNL     1      37.221 -21.953 -16.176  0.00  0.00    +0.177 C 
ENDBRANCH   6  14
TORSDOF 4
ENDMDL
MODEL 8
REMARK VINA RESULT:      -5.7      1.672      2.604
REMARK  Name = 446578
REMARK  4 active torsions:
REMARK  status: ('A' for Active; 'I' for Inactive)
REMARK    1  A    between atoms: C_2  and  O_8
REMARK    2  A    between atoms: C_3  and  O_10
REMARK    3  A    between atoms: C_4  and  O_12
REMARK    4  A    between atoms: C_6  and  O_14
REMARK                            x       y       z     vdW  Elec       q    Type
REMARK                         _______ _______ _______ _____ _____    ______ ____
ROOT
ATOM      1  O   UNL     1      38.332 -23.896 -14.186  0.00  0.00    -0.329 OA
ATOM      2  C   UNL     1      36.716 -25.996 -15.306  0.00  0.00    +0.171 C 
ATOM      3  C   UNL     1      38.040 -26.288 -14.592  0.00  0.00    +0.167 C 
ATOM      4  C   UNL     1      36.114 -24.682 -14.814  0.00  0.00    +0.196 C 
ATOM      5  C   UNL     1      38.978 -25.076 -14.687  0.00  0.00    +0.147 C 
ATOM      6  C   UNL     1      37.142 -23.549 -14.898  0.00  0.00    +0.266 C 
ATOM      7  C   UNL     1      40.260 -25.268 -13.883  0.00  0.00    +0.035 C 
ENDROOT
BRANCH   2   8
ATOM      8  O   UNL     1      35.792 -27.056 -15.074  0.00  0.00    -0.379 OA
ATOM      9  H   UNL     1      35.067 -27.000 -15.715  0.00  0.00    +0.211 HD
ENDBRANCH   2   8
BRANCH   3  10
ATOM     10  O   UNL     1      37.789 -26.602 -13.219  0.00  0.00    -0.379 OA
ATOM     11  H   UNL     1      36.840 -26.758 -13.093  0.00  0.00    +0.211 HD
ENDBRANCH   3  10
BRANCH   4  12
ATOM     12  O   UNL     1      34.968 -24.364 -15.599  0.00  0.00    -0.378 OA
ATOM     13  H   UNL     1      34.199 -24.848 -15.259  0.00  0.00    +0.211 HD
ENDBRANCH   4  12
BRANCH   6  14
ATOM     14  O   UNL     1      37.412 -23.232 -16.262  0.00  0.00    -0.326 OA
ATOM     15  C   UNL     1      37.182 -21.857 -16.530  0.00  0.00    +0.177 C 
ENDBRANCH   6  14
TORSDOF 4
ENDMDL
MODEL 9
REMARK VINA RESULT:      -5.7      1.704      3.141
REMARK  Name = 446578
REMARK  4 active torsions:
REMARK  status: ('A' for Active; 'I' for Inactive)
REMARK    1  A    between atoms: C_2  and  O_8
REMARK    2  A    between atoms: C_3  and  O_10
REMARK    3  A    between atoms: C_4  and  O_12
REMARK    4  A    between atoms: C_6  and  O_14
REMARK                            x       y       z     vdW  Elec       q    Type
REMARK                         _______ _______ _______ _____ _____    ______ ____
ROOT
ATOM      1  O   UNL     1      37.576 -22.981 -13.599  0.00  0.00    -0.329 OA
ATOM      2  C   UNL     1      37.905 -25.767 -14.239  0.00  0.00    +0.171 C 
ATOM      3  C   UNL     1      38.006 -24.673 -15.308  0.00  0.00    +0.167 C 
ATOM      4  C   UNL     1      38.237 -25.205 -12.858  0.00  0.00    +0.196 C 
ATOM      5  C   UNL     1      37.180 -23.445 -14.898  0.00  0.00    +0.147 C 
ATOM      6  C   UNL     1      37.402 -23.954 -12.565  0.00  0.00    +0.266 C 
ATOM      7  C   UNL     1      37.350 -22.281 -15.868  0.00  0.00    +0.035 C 
ENDROOT
BRANCH   2   8
ATOM      8  O   UNL     1      38.800 -26.832 -14.544  0.00  0.00    -0.379 OA
ATOM      9  H   UNL     1      38.979 -26.843 -15.498  0.00  0.00    +0.211 HD
ENDBRANCH   2   8
BRANCH   3  10
ATOM     10  O   UNL     1      39.375 -24.300 -15.489  0.00  0.00    -0.379 OA
ATOM     11  H   UNL     1      39.642 -23.697 -14.778  0.00  0.00    +0.211 HD
ENDBRANCH   3  10
BRANCH   4  12
ATOM     12  O   UNL     1      37.989 -26.202 -11.871  0.00  0.00    -0.378 OA
ATOM     13  H   UNL     1      38.752 -26.799 -11.816  0.00  0.00    +0.211 HD
ENDBRANCH   4  12
BRANCH   6  14
ATOM     14  O   UNL     1      36.031 -24.309 -12.394  0.00  0.00    -0.326 OA
ATOM     15  C   UNL     1      35.617 -24.141 -11.046  0.00  0.00    +0.177 C 
ENDBRANCH   6  14
TORSDOF 4
ENDMDL
