MODEL 1
REMARK VINA RESULT:      -7.2      0.000      0.000
REMARK  Name = 17754207
REMARK  8 active torsions:
REMARK  status: ('A' for Active; 'I' for Inactive)
REMARK    1  A    between atoms: C_1  and  C_14
REMARK    2  A    between atoms: C_2  and  O_10
REMARK    3  A    between atoms: C_4  and  N_7
REMARK    4  A    between atoms: C_6  and  O_12
REMARK    5  A    between atoms: C_14  and  CA_15
REMARK    6  A    between atoms: CA_15  and  N_16
REMARK    7  A    between atoms: CA_15  and  C_21
REMARK    8  A    between atoms: C_21  and  O_22
REMARK                            x       y       z     vdW  Elec       q    Type
REMARK                         _______ _______ _______ _____ _____    ______ ____
ROOT
ATOM      1  C   UNL     1      35.211 -19.201 -21.124  0.00  0.00    +0.011 C 
ATOM      2  C   UNL     1      36.421 -19.735 -20.679  0.00  0.00    +0.133 C 
ATOM      3  C   UNL     1      34.006 -19.796 -20.751  0.00  0.00    +0.016 C 
ATOM      4  C   UNL     1      34.010 -20.927 -19.934  0.00  0.00    +0.076 C 
ATOM      5  C   UNL     1      36.424 -20.866 -19.861  0.00  0.00    +0.074 C 
ATOM      6  C   UNL     1      35.219 -21.463 -19.490  0.00  0.00    +0.149 C 
ENDROOT
BRANCH   4   7
ATOM      7  N   UNL     1      32.784 -21.521 -19.565  0.00  0.00    -0.355 N 
ATOM      8  H   UNL     1      31.959 -21.288 -20.049  0.00  0.00    +0.142 HD
ATOM      9  H   UNL     1      32.753 -22.168 -18.824  0.00  0.00    +0.142 HD
ENDBRANCH   4   7
BRANCH   2  10
ATOM     10  O   UNL     1      37.606 -19.165 -21.033  0.00  0.00    -0.506 OA
ATOM     11  H   UNL     1      38.296 -19.090 -20.404  0.00  0.00    +0.292 HD
ENDBRANCH   2  10
BRANCH   6  12
ATOM     12  O   UNL     1      35.245 -22.567 -18.691  0.00  0.00    -0.504 OA
ATOM     13  H   UNL     1      34.650 -22.638 -17.971  0.00  0.00    +0.292 HD
ENDBRANCH   6  12
BRANCH   1  14
ATOM     14  C   UNL     1      35.187 -17.976 -22.008  0.00  0.00    +0.018 C 
BRANCH  14  15
ATOM     15  CA  UNL     1      34.575 -18.250 -23.391  0.00  0.00    +0.040 C 
BRANCH  15  16
ATOM     16  N   UNL     1      35.111 -19.497 -23.931  0.00  0.00    +0.389 N 
ATOM     17  H1  UNL     1      35.191 -20.185 -23.182  0.00  0.00    -0.088 HD
ATOM     18  H2  UNL     1      36.032 -19.326 -24.335  0.00  0.00    -0.088 HD
ATOM     19  H3  UNL     1      34.484 -19.852 -24.653  0.00  0.00    -0.088 HD
ENDBRANCH  15  16
BRANCH  15  21
ATOM     20  OXT UNL     1      34.577 -17.158 -25.568  0.00  0.00    -0.253 OA
ATOM     21  C   UNL     1      34.918 -17.161 -24.393  0.00  0.00    +0.293 C 
BRANCH  21  22
ATOM     22  O   UNL     1      35.630 -16.149 -23.833  0.00  0.00    -0.482 OA
ATOM     23  H   UNL     1      35.708 -15.327 -24.278  0.00  0.00    +0.295 HD
ENDBRANCH  21  22
ENDBRANCH  15  21
ENDBRANCH  14  15
ENDBRANCH   1  14
TORSDOF 8
ENDMDL
MODEL 2
REMARK VINA RESULT:      -7.1      9.264     10.445
REMARK  Name = 17754207
REMARK  8 active torsions:
REMARK  status: ('A' for Active; 'I' for Inactive)
REMARK    1  A    between atoms: C_1  and  C_14
REMARK    2  A    between atoms: C_2  and  O_10
REMARK    3  A    between atoms: C_4  and  N_7
REMARK    4  A    between atoms: C_6  and  O_12
REMARK    5  A    between atoms: C_14  and  CA_15
REMARK    6  A    between atoms: CA_15  and  N_16
REMARK    7  A    between atoms: CA_15  and  C_21
REMARK    8  A    between atoms: C_21  and  O_22
REMARK                            x       y       z     vdW  Elec       q    Type
REMARK                         _______ _______ _______ _____ _____    ______ ____
ROOT
ATOM      1  C   UNL     1      36.603 -25.372 -13.956  0.00  0.00    +0.011 C 
ATOM      2  C   UNL     1      36.367 -25.161 -12.597  0.00  0.00    +0.133 C 
ATOM      3  C   UNL     1      35.691 -24.906 -14.902  0.00  0.00    +0.016 C 
ATOM      4  C   UNL     1      34.542 -24.230 -14.491  0.00  0.00    +0.076 C 
ATOM      5  C   UNL     1      35.217 -24.485 -12.186  0.00  0.00    +0.074 C 
ATOM      6  C   UNL     1      34.304 -24.020 -13.133  0.00  0.00    +0.149 C 
ENDROOT
BRANCH   4   7
ATOM      7  N   UNL     1      33.626 -23.765 -15.460  0.00  0.00    -0.355 N 
ATOM      8  H   UNL     1      33.868 -23.010 -16.043  0.00  0.00    +0.142 HD
ATOM      9  H   UNL     1      32.746 -24.196 -15.552  0.00  0.00    +0.142 HD
ENDBRANCH   4   7
BRANCH   2  10
ATOM     10  O   UNL     1      37.247 -25.608 -11.659  0.00  0.00    -0.506 OA
ATOM     11  H   UNL     1      36.959 -26.192 -10.986  0.00  0.00    +0.292 HD
ENDBRANCH   2  10
BRANCH   6  12
ATOM     12  O   UNL     1      33.188 -23.362 -12.710  0.00  0.00    -0.504 OA
ATOM     13  H   UNL     1      32.835 -22.662 -13.222  0.00  0.00    +0.292 HD
ENDBRANCH   6  12
BRANCH   1  14
ATOM     14  C   UNL     1      37.842 -26.101 -14.419  0.00  0.00    +0.018 C 
BRANCH  14  15
ATOM     15  CA  UNL     1      39.077 -25.190 -14.496  0.00  0.00    +0.040 C 
BRANCH  15  16
ATOM     16  N   UNL     1      38.925 -24.242 -15.597  0.00  0.00    +0.389 N 
ATOM     17  H1  UNL     1      38.005 -24.358 -16.021  0.00  0.00    -0.088 HD
ATOM     18  H2  UNL     1      39.646 -24.416 -16.298  0.00  0.00    -0.088 HD
ATOM     19  H3  UNL     1      39.019 -23.290 -15.243  0.00  0.00    -0.088 HD
ENDBRANCH  15  16
BRANCH  15  21
ATOM     20  OXT UNL     1      41.034 -26.521 -13.917  0.00  0.00    -0.253 OA
ATOM     21  C   UNL     1      40.349 -25.974 -14.772  0.00  0.00    +0.293 C 
BRANCH  21  22
ATOM     22  O   UNL     1      40.640 -26.038 -16.097  0.00  0.00    -0.482 OA
ATOM     23  H   UNL     1      40.796 -25.250 -16.582  0.00  0.00    +0.295 HD
ENDBRANCH  21  22
ENDBRANCH  15  21
ENDBRANCH  14  15
ENDBRANCH   1  14
TORSDOF 8
ENDMDL
MODEL 3
REMARK VINA RESULT:      -7.0      7.415      8.816
REMARK  Name = 17754207
REMARK  8 active torsions:
REMARK  status: ('A' for Active; 'I' for Inactive)
REMARK    1  A    between atoms: C_1  and  C_14
REMARK    2  A    between atoms: C_2  and  O_10
REMARK    3  A    between atoms: C_4  and  N_7
REMARK    4  A    between atoms: C_6  and  O_12
REMARK    5  A    between atoms: C_14  and  CA_15
REMARK    6  A    between atoms: CA_15  and  N_16
REMARK    7  A    between atoms: CA_15  and  C_21
REMARK    8  A    between atoms: C_21  and  O_22
REMARK                            x       y       z     vdW  Elec       q    Type
REMARK                         _______ _______ _______ _____ _____    ______ ____
ROOT
ATOM      1  C   UNL     1      31.573 -23.199 -15.260  0.00  0.00    +0.011 C 
ATOM      2  C   UNL     1      32.199 -22.989 -16.489  0.00  0.00    +0.133 C 
ATOM      3  C   UNL     1      32.283 -23.766 -14.203  0.00  0.00    +0.016 C 
ATOM      4  C   UNL     1      33.621 -24.124 -14.373  0.00  0.00    +0.076 C 
ATOM      5  C   UNL     1      33.537 -23.347 -16.659  0.00  0.00    +0.074 C 
ATOM      6  C   UNL     1      34.248 -23.915 -15.602  0.00  0.00    +0.149 C 
ENDROOT
BRANCH   4   7
ATOM      7  N   UNL     1      34.329 -24.698 -13.295  0.00  0.00    -0.355 N 
ATOM      8  H   UNL     1      35.311 -24.638 -13.263  0.00  0.00    +0.142 HD
ATOM      9  H   UNL     1      33.841 -25.159 -12.575  0.00  0.00    +0.142 HD
ENDBRANCH   4   7
BRANCH   2  10
ATOM     10  O   UNL     1      31.520 -22.436 -17.531  0.00  0.00    -0.506 OA
ATOM     11  H   UNL     1      31.609 -22.794 -18.392  0.00  0.00    +0.292 HD
ENDBRANCH   2  10
BRANCH   6  12
ATOM     12  O   UNL     1      35.554 -24.257 -15.789  0.00  0.00    -0.504 OA
ATOM     13  H   UNL     1      35.780 -25.139 -16.011  0.00  0.00    +0.292 HD
ENDBRANCH   6  12
BRANCH   1  14
ATOM     14  C   UNL     1      30.125 -22.817 -15.057  0.00  0.00    +0.018 C 
BRANCH  14  15
ATOM     15  CA  UNL     1      29.149 -23.917 -15.502  0.00  0.00    +0.040 C 
BRANCH  15  16
ATOM     16  N   UNL     1      29.882 -25.154 -15.759  0.00  0.00    +0.389 N 
ATOM     17  H1  UNL     1      29.609 -25.859 -15.075  0.00  0.00    -0.088 HD
ATOM     18  H2  UNL     1      30.884 -24.978 -15.684  0.00  0.00    -0.088 HD
ATOM     19  H3  UNL     1      29.666 -25.489 -16.698  0.00  0.00    -0.088 HD
ENDBRANCH  15  16
BRANCH  15  21
ATOM     20  OXT UNL     1      27.749 -24.330 -17.452  0.00  0.00    -0.253 OA
ATOM     21  C   UNL     1      28.435 -23.558 -16.794  0.00  0.00    +0.293 C 
BRANCH  21  22
ATOM     22  O   UNL     1      28.611 -22.256 -17.137  0.00  0.00    -0.482 OA
ATOM     23  H   UNL     1      27.868 -21.694 -17.242  0.00  0.00    +0.295 HD
ENDBRANCH  21  22
ENDBRANCH  15  21
ENDBRANCH  14  15
ENDBRANCH   1  14
TORSDOF 8
ENDMDL
MODEL 4
REMARK VINA RESULT:      -6.9      6.950      8.744
REMARK  Name = 17754207
REMARK  8 active torsions:
REMARK  status: ('A' for Active; 'I' for Inactive)
REMARK    1  A    between atoms: C_1  and  C_14
REMARK    2  A    between atoms: C_2  and  O_10
REMARK    3  A    between atoms: C_4  and  N_7
REMARK    4  A    between atoms: C_6  and  O_12
REMARK    5  A    between atoms: C_14  and  CA_15
REMARK    6  A    between atoms: CA_15  and  N_16
REMARK    7  A    between atoms: CA_15  and  C_21
REMARK    8  A    between atoms: C_21  and  O_22
REMARK                            x       y       z     vdW  Elec       q    Type
REMARK                         _______ _______ _______ _____ _____    ______ ____
ROOT
ATOM      1  C   UNL     1      31.299 -22.973 -15.380  0.00  0.00    +0.011 C 
ATOM      2  C   UNL     1      32.208 -23.326 -14.382  0.00  0.00    +0.133 C 
ATOM      3  C   UNL     1      31.713 -22.912 -16.710  0.00  0.00    +0.016 C 
ATOM      4  C   UNL     1      33.036 -23.204 -17.044  0.00  0.00    +0.076 C 
ATOM      5  C   UNL     1      33.531 -23.618 -14.716  0.00  0.00    +0.074 C 
ATOM      6  C   UNL     1      33.945 -23.556 -16.046  0.00  0.00    +0.149 C 
ENDROOT
BRANCH   4   7
ATOM      7  N   UNL     1      33.443 -23.137 -18.394  0.00  0.00    -0.355 N 
ATOM      8  H   UNL     1      33.316 -23.914 -18.985  0.00  0.00    +0.142 HD
ATOM      9  H   UNL     1      33.854 -22.314 -18.745  0.00  0.00    +0.142 HD
ENDBRANCH   4   7
BRANCH   2  10
ATOM     10  O   UNL     1      31.820 -23.391 -13.078  0.00  0.00    -0.506 OA
ATOM     11  H   UNL     1      31.674 -22.603 -12.593  0.00  0.00    +0.292 HD
ENDBRANCH   2  10
BRANCH   6  12
ATOM     12  O   UNL     1      35.242 -23.845 -16.351  0.00  0.00    -0.504 OA
ATOM     13  H   UNL     1      35.790 -23.189 -16.734  0.00  0.00    +0.292 HD
ENDBRANCH   6  12
BRANCH   1  14
ATOM     14  C   UNL     1      29.862 -22.654 -15.038  0.00  0.00    +0.018 C 
BRANCH  14  15
ATOM     15  CA  UNL     1      28.878 -23.722 -15.539  0.00  0.00    +0.040 C 
BRANCH  15  16
ATOM     16  N   UNL     1      29.590 -24.974 -15.785  0.00  0.00    +0.389 N 
ATOM     17  H1  UNL     1      28.990 -25.760 -15.533  0.00  0.00    -0.088 HD
ATOM     18  H2  UNL     1      30.438 -25.001 -15.219  0.00  0.00    -0.088 HD
ATOM     19  H3  UNL     1      29.838 -25.037 -16.772  0.00  0.00    -0.088 HD
ENDBRANCH  15  16
BRANCH  15  21
ATOM     20  OXT UNL     1      27.666 -24.102 -17.618  0.00  0.00    -0.253 OA
ATOM     21  C   UNL     1      28.228 -23.328 -16.855  0.00  0.00    +0.293 C 
BRANCH  21  22
ATOM     22  O   UNL     1      28.307 -21.992 -17.090  0.00  0.00    -0.482 OA
ATOM     23  H   UNL     1      28.812 -21.445 -16.521  0.00  0.00    +0.295 HD
ENDBRANCH  21  22
ENDBRANCH  15  21
ENDBRANCH  14  15
ENDBRANCH   1  14
TORSDOF 8
ENDMDL
MODEL 5
REMARK VINA RESULT:      -6.8      7.063      9.179
REMARK  Name = 17754207
REMARK  8 active torsions:
REMARK  status: ('A' for Active; 'I' for Inactive)
REMARK    1  A    between atoms: C_1  and  C_14
REMARK    2  A    between atoms: C_2  and  O_10
REMARK    3  A    between atoms: C_4  and  N_7
REMARK    4  A    between atoms: C_6  and  O_12
REMARK    5  A    between atoms: C_14  and  CA_15
REMARK    6  A    between atoms: CA_15  and  N_16
REMARK    7  A    between atoms: CA_15  and  C_21
REMARK    8  A    between atoms: C_21  and  O_22
REMARK                            x       y       z     vdW  Elec       q    Type
REMARK                         _______ _______ _______ _____ _____    ______ ____
ROOT
ATOM      1  C   UNL     1      33.946 -23.887 -15.043  0.00  0.00    +0.011 C 
ATOM      2  C   UNL     1      32.720 -23.902 -14.377  0.00  0.00    +0.133 C 
ATOM      3  C   UNL     1      34.012 -23.470 -16.372  0.00  0.00    +0.016 C 
ATOM      4  C   UNL     1      32.853 -23.066 -17.036  0.00  0.00    +0.076 C 
ATOM      5  C   UNL     1      31.561 -23.498 -15.041  0.00  0.00    +0.074 C 
ATOM      6  C   UNL     1      31.627 -23.081 -16.370  0.00  0.00    +0.149 C 
ENDROOT
BRANCH   4   7
ATOM      7  N   UNL     1      32.934 -22.647 -18.381  0.00  0.00    -0.355 N 
ATOM      8  H   UNL     1      33.492 -21.873 -18.623  0.00  0.00    +0.142 HD
ATOM      9  H   UNL     1      32.432 -23.128 -19.078  0.00  0.00    +0.142 HD
ENDBRANCH   4   7
BRANCH   2  10
ATOM     10  O   UNL     1      32.638 -24.306 -13.079  0.00  0.00    -0.506 OA
ATOM     11  H   UNL     1      31.887 -24.083 -12.565  0.00  0.00    +0.292 HD
ENDBRANCH   2  10
BRANCH   6  12
ATOM     12  O   UNL     1      30.483 -22.691 -17.000  0.00  0.00    -0.504 OA
ATOM     13  H   UNL     1      30.279 -21.781 -17.079  0.00  0.00    +0.292 HD
ENDBRANCH   6  12
BRANCH   1  14
ATOM     14  C   UNL     1      35.211 -24.320 -14.341  0.00  0.00    +0.018 C 
BRANCH  14  15
ATOM     15  CA  UNL     1      36.141 -25.149 -15.240  0.00  0.00    +0.040 C 
BRANCH  15  16
ATOM     16  N   UNL     1      35.881 -26.573 -15.041  0.00  0.00    +0.389 N 
ATOM     17  H1  UNL     1      35.833 -26.773 -14.042  0.00  0.00    -0.088 HD
ATOM     18  H2  UNL     1      36.635 -27.118 -15.460  0.00  0.00    -0.088 HD
ATOM     19  H3  UNL     1      34.996 -26.823 -15.482  0.00  0.00    -0.088 HD
ENDBRANCH  15  16
BRANCH  15  21
ATOM     20  OXT UNL     1      38.046 -23.959 -14.297  0.00  0.00    -0.253 OA
ATOM     21  C   UNL     1      37.606 -24.925 -14.908  0.00  0.00    +0.293 C 
BRANCH  21  22
ATOM     22  O   UNL     1      38.395 -25.943 -15.338  0.00  0.00    -0.482 OA
ATOM     23  H   UNL     1      39.273 -25.770 -15.620  0.00  0.00    +0.295 HD
ENDBRANCH  21  22
ENDBRANCH  15  21
ENDBRANCH  14  15
ENDBRANCH   1  14
TORSDOF 8
ENDMDL
MODEL 6
REMARK VINA RESULT:      -6.8      2.434      5.520
REMARK  Name = 17754207
REMARK  8 active torsions:
REMARK  status: ('A' for Active; 'I' for Inactive)
REMARK    1  A    between atoms: C_1  and  C_14
REMARK    2  A    between atoms: C_2  and  O_10
REMARK    3  A    between atoms: C_4  and  N_7
REMARK    4  A    between atoms: C_6  and  O_12
REMARK    5  A    between atoms: C_14  and  CA_15
REMARK    6  A    between atoms: CA_15  and  N_16
REMARK    7  A    between atoms: CA_15  and  C_21
REMARK    8  A    between atoms: C_21  and  O_22
REMARK                            x       y       z     vdW  Elec       q    Type
REMARK                         _______ _______ _______ _____ _____    ______ ____
ROOT
ATOM      1  C   UNL     1      34.735 -18.263 -22.324  0.00  0.00    +0.011 C 
ATOM      2  C   UNL     1      34.807 -17.815 -23.644  0.00  0.00    +0.133 C 
ATOM      3  C   UNL     1      34.666 -17.344 -21.279  0.00  0.00    +0.016 C 
ATOM      4  C   UNL     1      34.669 -15.975 -21.551  0.00  0.00    +0.076 C 
ATOM      5  C   UNL     1      34.810 -16.447 -23.916  0.00  0.00    +0.074 C 
ATOM      6  C   UNL     1      34.742 -15.526 -22.870  0.00  0.00    +0.149 C 
ENDROOT
BRANCH   4   7
ATOM      7  N   UNL     1      34.600 -15.054 -20.483  0.00  0.00    -0.355 N 
ATOM      8  H   UNL     1      34.354 -15.365 -19.581  0.00  0.00    +0.142 HD
ATOM      9  H   UNL     1      34.797 -14.103 -20.639  0.00  0.00    +0.142 HD
ENDBRANCH   4   7
BRANCH   2  10
ATOM     10  O   UNL     1      34.874 -18.700 -24.677  0.00  0.00    -0.506 OA
ATOM     11  H   UNL     1      34.623 -18.433 -25.539  0.00  0.00    +0.292 HD
ENDBRANCH   2  10
BRANCH   6  12
ATOM     12  O   UNL     1      34.747 -14.194 -23.157  0.00  0.00    -0.504 OA
ATOM     13  H   UNL     1      35.157 -13.590 -22.571  0.00  0.00    +0.292 HD
ENDBRANCH   6  12
BRANCH   1  14
ATOM     14  C   UNL     1      34.729 -19.741 -22.011  0.00  0.00    +0.018 C 
BRANCH  14  15
ATOM     15  CA  UNL     1      34.617 -20.032 -20.506  0.00  0.00    +0.040 C 
BRANCH  15  16
ATOM     16  N   UNL     1      35.660 -20.972 -20.105  0.00  0.00    +0.389 N 
ATOM     17  H1  UNL     1      36.573 -20.524 -20.191  0.00  0.00    -0.088 HD
ATOM     18  H2  UNL     1      35.628 -21.794 -20.708  0.00  0.00    -0.088 HD
ATOM     19  H3  UNL     1      35.510 -21.256 -19.137  0.00  0.00    -0.088 HD
ENDBRANCH  15  16
BRANCH  15  21
ATOM     20  OXT UNL     1      33.117 -21.449 -19.212  0.00  0.00    -0.253 OA
ATOM     21  C   UNL     1      33.290 -20.678 -20.147  0.00  0.00    +0.293 C 
BRANCH  21  22
ATOM     22  O   UNL     1      32.282 -20.279 -20.966  0.00  0.00    -0.482 OA
ATOM     23  H   UNL     1      31.771 -19.524 -20.748  0.00  0.00    +0.295 HD
ENDBRANCH  21  22
ENDBRANCH  15  21
ENDBRANCH  14  15
ENDBRANCH   1  14
TORSDOF 8
ENDMDL
MODEL 7
REMARK VINA RESULT:      -6.7      7.266      9.937
REMARK  Name = 17754207
REMARK  8 active torsions:
REMARK  status: ('A' for Active; 'I' for Inactive)
REMARK    1  A    between atoms: C_1  and  C_14
REMARK    2  A    between atoms: C_2  and  O_10
REMARK    3  A    between atoms: C_4  and  N_7
REMARK    4  A    between atoms: C_6  and  O_12
REMARK    5  A    between atoms: C_14  and  CA_15
REMARK    6  A    between atoms: CA_15  and  N_16
REMARK    7  A    between atoms: CA_15  and  C_21
REMARK    8  A    between atoms: C_21  and  O_22
REMARK                            x       y       z     vdW  Elec       q    Type
REMARK                         _______ _______ _______ _____ _____    ______ ____
ROOT
ATOM      1  C   UNL     1      33.934 -24.178 -14.975  0.00  0.00    +0.011 C 
ATOM      2  C   UNL     1      32.703 -24.274 -14.324  0.00  0.00    +0.133 C 
ATOM      3  C   UNL     1      34.007 -23.618 -16.249  0.00  0.00    +0.016 C 
ATOM      4  C   UNL     1      32.850 -23.154 -16.875  0.00  0.00    +0.076 C 
ATOM      5  C   UNL     1      31.546 -23.810 -14.950  0.00  0.00    +0.074 C 
ATOM      6  C   UNL     1      31.619 -23.251 -16.226  0.00  0.00    +0.149 C 
ENDROOT
BRANCH   4   7
ATOM      7  N   UNL     1      32.938 -22.590 -18.167  0.00  0.00    -0.355 N 
ATOM      8  H   UNL     1      33.811 -22.307 -18.522  0.00  0.00    +0.142 HD
ATOM      9  H   UNL     1      32.126 -22.480 -18.713  0.00  0.00    +0.142 HD
ENDBRANCH   4   7
BRANCH   2  10
ATOM     10  O   UNL     1      32.614 -24.818 -13.079  0.00  0.00    -0.506 OA
ATOM     11  H   UNL     1      32.808 -25.725 -12.948  0.00  0.00    +0.292 HD
ENDBRANCH   2  10
BRANCH   6  12
ATOM     12  O   UNL     1      30.476 -22.803 -16.821  0.00  0.00    -0.504 OA
ATOM     13  H   UNL     1      30.090 -21.996 -16.544  0.00  0.00    +0.292 HD
ENDBRANCH   6  12
BRANCH   1  14
ATOM     14  C   UNL     1      35.197 -24.675 -14.312  0.00  0.00    +0.018 C 
BRANCH  14  15
ATOM     15  CA  UNL     1      35.764 -23.681 -13.287  0.00  0.00    +0.040 C 
BRANCH  15  16
ATOM     16  N   UNL     1      37.071 -23.204 -13.730  0.00  0.00    +0.389 N 
ATOM     17  H1  UNL     1      37.707 -23.996 -13.828  0.00  0.00    -0.088 HD
ATOM     18  H2  UNL     1      37.447 -22.551 -13.043  0.00  0.00    -0.088 HD
ATOM     19  H3  UNL     1      36.975 -22.732 -14.629  0.00  0.00    -0.088 HD
ENDBRANCH  15  16
BRANCH  15  21
ATOM     20  OXT UNL     1      36.967 -24.169 -11.226  0.00  0.00    -0.253 OA
ATOM     21  C   UNL     1      35.975 -24.323 -11.926  0.00  0.00    +0.293 C 
BRANCH  21  22
ATOM     22  O   UNL     1      34.913 -25.077 -11.539  0.00  0.00    -0.482 OA
ATOM     23  H   UNL     1      34.230 -25.274 -12.151  0.00  0.00    +0.295 HD
ENDBRANCH  21  22
ENDBRANCH  15  21
ENDBRANCH  14  15
ENDBRANCH   1  14
TORSDOF 8
ENDMDL
MODEL 8
REMARK VINA RESULT:      -6.7      3.978      6.090
REMARK  Name = 17754207
REMARK  8 active torsions:
REMARK  status: ('A' for Active; 'I' for Inactive)
REMARK    1  A    between atoms: C_1  and  C_14
REMARK    2  A    between atoms: C_2  and  O_10
REMARK    3  A    between atoms: C_4  and  N_7
REMARK    4  A    between atoms: C_6  and  O_12
REMARK    5  A    between atoms: C_14  and  CA_15
REMARK    6  A    between atoms: CA_15  and  N_16
REMARK    7  A    between atoms: CA_15  and  C_21
REMARK    8  A    between atoms: C_21  and  O_22
REMARK                            x       y       z     vdW  Elec       q    Type
REMARK                         _______ _______ _______ _____ _____    ______ ____
ROOT
ATOM      1  C   UNL     1      33.681 -15.130 -24.243  0.00  0.00    +0.011 C 
ATOM      2  C   UNL     1      33.900 -16.011 -25.302  0.00  0.00    +0.133 C 
ATOM      3  C   UNL     1      34.117 -15.460 -22.960  0.00  0.00    +0.016 C 
ATOM      4  C   UNL     1      34.772 -16.671 -22.736  0.00  0.00    +0.076 C 
ATOM      5  C   UNL     1      34.555 -17.222 -25.078  0.00  0.00    +0.074 C 
ATOM      6  C   UNL     1      34.991 -17.553 -23.795  0.00  0.00    +0.149 C 
ENDROOT
BRANCH   4   7
ATOM      7  N   UNL     1      35.208 -16.994 -21.432  0.00  0.00    -0.355 N 
ATOM      8  H   UNL     1      35.868 -17.712 -21.298  0.00  0.00    +0.142 HD
ATOM      9  H   UNL     1      34.852 -16.502 -20.658  0.00  0.00    +0.142 HD
ENDBRANCH   4   7
BRANCH   2  10
ATOM     10  O   UNL     1      33.481 -15.704 -26.561  0.00  0.00    -0.506 OA
ATOM     11  H   UNL     1      32.812 -15.060 -26.689  0.00  0.00    +0.292 HD
ENDBRANCH   2  10
BRANCH   6  12
ATOM     12  O   UNL     1      35.629 -18.741 -23.597  0.00  0.00    -0.504 OA
ATOM     13  H   UNL     1      35.334 -19.325 -22.926  0.00  0.00    +0.292 HD
ENDBRANCH   6  12
BRANCH   1  14
ATOM     14  C   UNL     1      32.974 -13.814 -24.467  0.00  0.00    +0.018 C 
BRANCH  14  15
ATOM     15  CA  UNL     1      33.118 -12.848 -23.281  0.00  0.00    +0.040 C 
BRANCH  15  16
ATOM     16  N   UNL     1      31.846 -12.744 -22.570  0.00  0.00    +0.389 N 
ATOM     17  H1  UNL     1      31.080 -12.752 -23.242  0.00  0.00    -0.088 HD
ATOM     18  H2  UNL     1      31.823 -11.874 -22.039  0.00  0.00    -0.088 HD
ATOM     19  H3  UNL     1      31.747 -13.534 -21.931  0.00  0.00    -0.088 HD
ENDBRANCH  15  16
BRANCH  15  21
ATOM     20  OXT UNL     1      32.870 -10.429 -23.416  0.00  0.00    -0.253 OA
ATOM     21  C   UNL     1      33.481 -11.443 -23.729  0.00  0.00    +0.293 C 
BRANCH  21  22
ATOM     22  O   UNL     1      34.597 -11.419 -24.504  0.00  0.00    -0.482 OA
ATOM     23  H   UNL     1      35.128 -10.647 -24.536  0.00  0.00    +0.295 HD
ENDBRANCH  21  22
ENDBRANCH  15  21
ENDBRANCH  14  15
ENDBRANCH   1  14
TORSDOF 8
ENDMDL
MODEL 9
REMARK VINA RESULT:      -6.7      1.863      5.624
REMARK  Name = 17754207
REMARK  8 active torsions:
REMARK  status: ('A' for Active; 'I' for Inactive)
REMARK    1  A    between atoms: C_1  and  C_14
REMARK    2  A    between atoms: C_2  and  O_10
REMARK    3  A    between atoms: C_4  and  N_7
REMARK    4  A    between atoms: C_6  and  O_12
REMARK    5  A    between atoms: C_14  and  CA_15
REMARK    6  A    between atoms: CA_15  and  N_16
REMARK    7  A    between atoms: CA_15  and  C_21
REMARK    8  A    between atoms: C_21  and  O_22
REMARK                            x       y       z     vdW  Elec       q    Type
REMARK                         _______ _______ _______ _____ _____    ______ ____
ROOT
ATOM      1  C   UNL     1      35.383 -17.803 -21.893  0.00  0.00    +0.011 C 
ATOM      2  C   UNL     1      34.962 -16.556 -21.428  0.00  0.00    +0.133 C 
ATOM      3  C   UNL     1      35.265 -18.118 -23.246  0.00  0.00    +0.016 C 
ATOM      4  C   UNL     1      34.725 -17.189 -24.135  0.00  0.00    +0.076 C 
ATOM      5  C   UNL     1      34.421 -15.627 -22.317  0.00  0.00    +0.074 C 
ATOM      6  C   UNL     1      34.302 -15.943 -23.671  0.00  0.00    +0.149 C 
ENDROOT
BRANCH   4   7
ATOM      7  N   UNL     1      34.609 -17.522 -25.502  0.00  0.00    -0.355 N 
ATOM      8  H   UNL     1      34.660 -18.463 -25.785  0.00  0.00    +0.142 HD
ATOM      9  H   UNL     1      34.478 -16.813 -26.173  0.00  0.00    +0.142 HD
ENDBRANCH   4   7
BRANCH   2  10
ATOM     10  O   UNL     1      35.071 -16.232 -20.110  0.00  0.00    -0.506 OA
ATOM     11  H   UNL     1      35.081 -16.906 -19.460  0.00  0.00    +0.292 HD
ENDBRANCH   2  10
BRANCH   6  12
ATOM     12  O   UNL     1      33.771 -15.021 -24.523  0.00  0.00    -0.504 OA
ATOM     13  H   UNL     1      33.398 -15.296 -25.337  0.00  0.00    +0.292 HD
ENDBRANCH   6  12
BRANCH   1  14
ATOM     14  C   UNL     1      35.971 -18.821 -20.945  0.00  0.00    +0.018 C 
BRANCH  14  15
ATOM     15  CA  UNL     1      35.168 -20.130 -20.901  0.00  0.00    +0.040 C 
BRANCH  15  16
ATOM     16  N   UNL     1      33.770 -19.843 -20.590  0.00  0.00    +0.389 N 
ATOM     17  H1  UNL     1      33.238 -19.768 -21.456  0.00  0.00    -0.088 HD
ATOM     18  H2  UNL     1      33.709 -18.963 -20.077  0.00  0.00    -0.088 HD
ATOM     19  H3  UNL     1      33.387 -20.595 -20.019  0.00  0.00    -0.088 HD
ENDBRANCH  15  16
BRANCH  15  21
ATOM     20  OXT UNL     1      35.264 -22.213 -19.641  0.00  0.00    -0.253 OA
ATOM     21  C   UNL     1      35.669 -21.071 -19.819  0.00  0.00    +0.293 C 
BRANCH  21  22
ATOM     22  O   UNL     1      36.659 -20.518 -19.070  0.00  0.00    -0.482 OA
ATOM     23  H   UNL     1      36.622 -19.609 -18.843  0.00  0.00    +0.295 HD
ENDBRANCH  21  22
ENDBRANCH  15  21
ENDBRANCH  14  15
ENDBRANCH   1  14
TORSDOF 8
ENDMDL
