MODEL 1
REMARK VINA RESULT:     -10.4      0.000      0.000
REMARK  Name = 11840913
REMARK  8 active torsions:
REMARK  status: ('A' for Active; 'I' for Inactive)
REMARK    1  A    between atoms: C_2  and  C_13
REMARK    2  A    between atoms: C_3  and  C_20
REMARK    3  A    between atoms: C_10  and  C_15
REMARK    4  A    between atoms: C_15  and  N_16
REMARK    5  A    between atoms: C_20  and  N_22
REMARK    6  A    between atoms: N_23  and  C_27
REMARK    7  A    between atoms: C_32  and  C_34
REMARK    8  A    between atoms: C_34  and  O_35
REMARK                            x       y       z     vdW  Elec       q    Type
REMARK                         _______ _______ _______ _____ _____    ______ ____
ROOT
ATOM      1  N   UNL     1      35.064 -22.875 -16.579  0.00  0.00    +0.393 N 
ATOM      2  C   UNL     1      34.996 -23.139 -15.141  0.00  0.00    +0.017 C 
ATOM      3  C   UNL     1      33.695 -22.596 -17.013  0.00  0.00    -0.041 C 
ATOM      4  C   UNL     1      33.569 -23.592 -14.855  0.00  0.00    -0.015 C 
ATOM      5  C   UNL     1      32.892 -23.612 -16.218  0.00  0.00    -0.021 C 
ATOM      6  H   UNL     1      35.431 -23.690 -17.070  0.00  0.00    -0.084 HD
ATOM      7  H   UNL     1      35.684 -22.091 -16.782  0.00  0.00    -0.084 HD
ENDROOT
BRANCH   2  13
ATOM      8  O   UNL     1      36.186 -25.116 -15.669  0.00  0.00    -0.277 OA
ATOM      9  N   UNL     1      36.664 -24.096 -13.648  0.00  0.00    -0.285 N 
ATOM     10  C   UNL     1      37.745 -25.003 -13.255  0.00  0.00    +0.054 C 
ATOM     11  C   UNL     1      38.449 -24.259 -12.116  0.00  0.00    +0.019 C 
ATOM     12  C   UNL     1      36.473 -23.039 -12.657  0.00  0.00    +0.093 C 
ATOM     13  C   UNL     1      35.998 -24.209 -14.856  0.00  0.00    +0.205 C 
ATOM     14  C   UNL     1      37.323 -23.461 -11.468  0.00  0.00    +0.023 C 
BRANCH  10  15
ATOM     15  C   UNL     1      37.202 -26.358 -12.808  0.00  0.00    -0.066 C 
BRANCH  15  16
ATOM     16  N   UNL     1      37.123 -27.268 -13.911  0.00  0.00    +0.382 N 
ATOM     17  H   UNL     1      36.190 -27.221 -14.324  0.00  0.00    -0.089 HD
ATOM     18  H   UNL     1      37.302 -28.217 -13.584  0.00  0.00    -0.089 HD
ATOM     19  H   UNL     1      37.818 -27.013 -14.613  0.00  0.00    -0.089 HD
ENDBRANCH  15  16
ENDBRANCH  10  15
ENDBRANCH   2  13
BRANCH   3  20
ATOM     20  C   UNL     1      33.542 -22.757 -18.516  0.00  0.00    +0.070 C 
BRANCH  20  22
ATOM     21  O   UNL     1      32.656 -20.878 -20.489  0.00  0.00    -0.252 OA
ATOM     22  N   UNL     1      34.355 -21.812 -19.227  0.00  0.00    -0.291 N 
ATOM     23  N   UNL     1      34.868 -20.123 -20.707  0.00  0.00    -0.268 N 
ATOM     24  C   UNL     1      33.846 -20.920 -20.184  0.00  0.00    +0.304 C 
ATOM     25  H   UNL     1      35.321 -21.788 -19.034  0.00  0.00    +0.151 HD
ATOM     26  H   UNL     1      35.771 -20.287 -20.351  0.00  0.00    +0.156 HD
BRANCH  23  27
ATOM     27  C   UNL     1      34.763 -19.110 -21.689  0.00  0.00    +0.052 C 
ATOM     28  C   UNL     1      34.580 -17.796 -21.290  0.00  0.00    +0.015 C 
ATOM     29  C   UNL     1      34.845 -19.452 -23.028  0.00  0.00    +0.015 C 
ATOM     30  C   UNL     1      34.477 -16.797 -22.258  0.00  0.00    +0.008 C 
ATOM     31  C   UNL     1      34.743 -18.454 -23.997  0.00  0.00    +0.008 C 
ATOM     32  C   UNL     1      34.558 -17.126 -23.611  0.00  0.00    +0.076 C 
BRANCH  32  34
ATOM     33  O   UNL     1      34.549 -16.299 -25.830  0.00  0.00    -0.245 OA
ATOM     34  C   UNL     1      34.452 -16.084 -24.620  0.00  0.00    +0.341 C 
BRANCH  34  35
ATOM     35  O   UNL     1      34.236 -14.834 -24.095  0.00  0.00    -0.441 OA
ATOM     36  C   UNL     1      33.154 -14.084 -24.661  0.00  0.00    +0.256 C 
ENDBRANCH  34  35
ENDBRANCH  32  34
ENDBRANCH  23  27
ENDBRANCH  20  22
ENDBRANCH   3  20
TORSDOF 8
ENDMDL
MODEL 2
REMARK VINA RESULT:     -10.3      5.868     13.374
REMARK  Name = 11840913
REMARK  8 active torsions:
REMARK  status: ('A' for Active; 'I' for Inactive)
REMARK    1  A    between atoms: C_2  and  C_13
REMARK    2  A    between atoms: C_3  and  C_20
REMARK    3  A    between atoms: C_10  and  C_15
REMARK    4  A    between atoms: C_15  and  N_16
REMARK    5  A    between atoms: C_20  and  N_22
REMARK    6  A    between atoms: N_23  and  C_27
REMARK    7  A    between atoms: C_32  and  C_34
REMARK    8  A    between atoms: C_34  and  O_35
REMARK                            x       y       z     vdW  Elec       q    Type
REMARK                         _______ _______ _______ _____ _____    ______ ____
ROOT
ATOM      1  N   UNL     1      32.630 -11.494 -22.718  0.00  0.00    +0.393 N 
ATOM      2  C   UNL     1      31.505 -10.909 -21.985  0.00  0.00    +0.017 C 
ATOM      3  C   UNL     1      32.588 -12.933 -22.458  0.00  0.00    -0.041 C 
ATOM      4  C   UNL     1      31.178 -11.880 -20.856  0.00  0.00    -0.015 C 
ATOM      5  C   UNL     1      32.216 -12.984 -20.985  0.00  0.00    -0.021 C 
ATOM      6  H   UNL     1      33.509 -11.100 -22.384  0.00  0.00    -0.084 HD
ATOM      7  H   UNL     1      32.563 -11.296 -23.716  0.00  0.00    -0.084 HD
ENDROOT
BRANCH   2  13
ATOM      8  O   UNL     1      32.396  -9.476 -20.326  0.00  0.00    -0.277 OA
ATOM      9  N   UNL     1      31.878  -8.535 -22.376  0.00  0.00    -0.285 N 
ATOM     10  C   UNL     1      32.379  -7.192 -22.074  0.00  0.00    +0.054 C 
ATOM     11  C   UNL     1      32.474  -6.522 -23.447  0.00  0.00    +0.019 C 
ATOM     12  C   UNL     1      31.380  -8.619 -23.747  0.00  0.00    +0.093 C 
ATOM     13  C   UNL     1      31.970  -9.585 -21.477  0.00  0.00    +0.205 C 
ATOM     14  C   UNL     1      31.350  -7.180 -24.239  0.00  0.00    +0.023 C 
BRANCH  10  15
ATOM     15  C   UNL     1      31.438  -6.444 -21.132  0.00  0.00    -0.066 C 
BRANCH  15  16
ATOM     16  N   UNL     1      31.310  -5.072 -21.518  0.00  0.00    +0.382 N 
ATOM     17  H   UNL     1      31.436  -4.990 -22.528  0.00  0.00    -0.089 HD
ATOM     18  H   UNL     1      32.019  -4.516 -21.042  0.00  0.00    -0.089 HD
ATOM     19  H   UNL     1      30.383  -4.732 -21.263  0.00  0.00    -0.089 HD
ENDBRANCH  15  16
ENDBRANCH  10  15
ENDBRANCH   2  13
BRANCH   3  20
ATOM     20  C   UNL     1      33.922 -13.593 -22.761  0.00  0.00    +0.070 C 
BRANCH  20  22
ATOM     21  O   UNL     1      34.960 -15.494 -20.885  0.00  0.00    -0.252 OA
ATOM     22  N   UNL     1      33.794 -15.021 -22.826  0.00  0.00    -0.291 N 
ATOM     23  N   UNL     1      34.051 -17.220 -22.190  0.00  0.00    -0.268 N 
ATOM     24  C   UNL     1      34.332 -15.891 -21.865  0.00  0.00    +0.304 C 
ATOM     25  H   UNL     1      33.304 -15.412 -23.586  0.00  0.00    +0.151 HD
ATOM     26  H   UNL     1      33.534 -17.364 -23.016  0.00  0.00    +0.156 HD
BRANCH  23  27
ATOM     27  C   UNL     1      34.419 -18.386 -21.477  0.00  0.00    +0.052 C 
ATOM     28  C   UNL     1      35.760 -18.654 -21.263  0.00  0.00    +0.015 C 
ATOM     29  C   UNL     1      33.429 -19.234 -21.008  0.00  0.00    +0.015 C 
ATOM     30  C   UNL     1      36.123 -19.803 -20.560  0.00  0.00    +0.008 C 
ATOM     31  C   UNL     1      33.791 -20.383 -20.305  0.00  0.00    +0.008 C 
ATOM     32  C   UNL     1      35.138 -20.667 -20.082  0.00  0.00    +0.076 C 
BRANCH  32  34
ATOM     33  O   UNL     1      34.827 -22.886 -19.314  0.00  0.00    -0.245 OA
ATOM     34  C   UNL     1      35.516 -21.865 -19.347  0.00  0.00    +0.341 C 
BRANCH  34  35
ATOM     35  O   UNL     1      36.716 -21.747 -18.691  0.00  0.00    -0.441 OA
ATOM     36  C   UNL     1      36.693 -21.975 -17.277  0.00  0.00    +0.256 C 
ENDBRANCH  34  35
ENDBRANCH  32  34
ENDBRANCH  23  27
ENDBRANCH  20  22
ENDBRANCH   3  20
TORSDOF 8
ENDMDL
MODEL 3
REMARK VINA RESULT:     -10.3      0.807      1.359
REMARK  Name = 11840913
REMARK  8 active torsions:
REMARK  status: ('A' for Active; 'I' for Inactive)
REMARK    1  A    between atoms: C_2  and  C_13
REMARK    2  A    between atoms: C_3  and  C_20
REMARK    3  A    between atoms: C_10  and  C_15
REMARK    4  A    between atoms: C_15  and  N_16
REMARK    5  A    between atoms: C_20  and  N_22
REMARK    6  A    between atoms: N_23  and  C_27
REMARK    7  A    between atoms: C_32  and  C_34
REMARK    8  A    between atoms: C_34  and  O_35
REMARK                            x       y       z     vdW  Elec       q    Type
REMARK                         _______ _______ _______ _____ _____    ______ ____
ROOT
ATOM      1  N   UNL     1      35.646 -22.775 -16.815  0.00  0.00    +0.393 N 
ATOM      2  C   UNL     1      35.305 -23.092 -15.427  0.00  0.00    +0.017 C 
ATOM      3  C   UNL     1      34.391 -22.417 -17.477  0.00  0.00    -0.041 C 
ATOM      4  C   UNL     1      33.833 -23.490 -15.427  0.00  0.00    -0.015 C 
ATOM      5  C   UNL     1      33.417 -23.425 -16.890  0.00  0.00    -0.021 C 
ATOM      6  H   UNL     1      36.065 -23.586 -17.268  0.00  0.00    -0.084 HD
ATOM      7  H   UNL     1      36.321 -22.012 -16.864  0.00  0.00    -0.084 HD
ENDROOT
BRANCH   2  13
ATOM      8  O   UNL     1      36.345 -25.193 -15.752  0.00  0.00    -0.277 OA
ATOM      9  N   UNL     1      36.809 -24.071 -13.783  0.00  0.00    -0.285 N 
ATOM     10  C   UNL     1      37.788 -25.032 -13.270  0.00  0.00    +0.054 C 
ATOM     11  C   UNL     1      38.496 -24.268 -12.147  0.00  0.00    +0.019 C 
ATOM     12  C   UNL     1      36.661 -22.933 -12.878  0.00  0.00    +0.093 C 
ATOM     13  C   UNL     1      36.196 -24.216 -15.015  0.00  0.00    +0.205 C 
ATOM     14  C   UNL     1      37.413 -23.336 -11.619  0.00  0.00    +0.023 C 
BRANCH  10  15
ATOM     15  C   UNL     1      37.109 -26.303 -12.762  0.00  0.00    -0.066 C 
BRANCH  15  16
ATOM     16  N   UNL     1      37.069 -27.306 -13.783  0.00  0.00    +0.382 N 
ATOM     17  H   UNL     1      37.779 -27.102 -14.488  0.00  0.00    -0.089 HD
ATOM     18  H   UNL     1      36.148 -27.310 -14.220  0.00  0.00    -0.089 HD
ATOM     19  H   UNL     1      37.253 -28.220 -13.369  0.00  0.00    -0.089 HD
ENDBRANCH  15  16
ENDBRANCH  10  15
ENDBRANCH   2  13
BRANCH   3  20
ATOM     20  C   UNL     1      34.511 -22.511 -18.988  0.00  0.00    +0.070 C 
BRANCH  20  22
ATOM     21  O   UNL     1      33.283 -20.524 -20.647  0.00  0.00    -0.252 OA
ATOM     22  N   UNL     1      35.139 -21.343 -19.536  0.00  0.00    -0.291 N 
ATOM     23  N   UNL     1      35.331 -19.381 -20.728  0.00  0.00    -0.268 N 
ATOM     24  C   UNL     1      34.469 -20.411 -20.344  0.00  0.00    +0.304 C 
ATOM     25  H   UNL     1      36.091 -21.187 -19.334  0.00  0.00    +0.151 HD
ATOM     26  H   UNL     1      36.256 -19.444 -20.395  0.00  0.00    +0.156 HD
BRANCH  23  27
ATOM     27  C   UNL     1      35.038 -18.259 -21.538  0.00  0.00    +0.052 C 
ATOM     28  C   UNL     1      35.081 -18.389 -22.916  0.00  0.00    +0.015 C 
ATOM     29  C   UNL     1      34.715 -17.054 -20.937  0.00  0.00    +0.015 C 
ATOM     30  C   UNL     1      34.793 -17.283 -23.715  0.00  0.00    +0.008 C 
ATOM     31  C   UNL     1      34.426 -15.948 -21.735  0.00  0.00    +0.008 C 
ATOM     32  C   UNL     1      34.465 -16.063 -23.125  0.00  0.00    +0.076 C 
BRANCH  32  34
ATOM     33  O   UNL     1      34.212 -13.747 -23.551  0.00  0.00    -0.245 OA
ATOM     34  C   UNL     1      34.162 -14.909 -23.958  0.00  0.00    +0.341 C 
BRANCH  34  35
ATOM     35  O   UNL     1      33.812 -15.241 -25.244  0.00  0.00    -0.441 OA
ATOM     36  C   UNL     1      32.805 -14.429 -25.858  0.00  0.00    +0.256 C 
ENDBRANCH  34  35
ENDBRANCH  32  34
ENDBRANCH  23  27
ENDBRANCH  20  22
ENDBRANCH   3  20
TORSDOF 8
ENDMDL
MODEL 4
REMARK VINA RESULT:     -10.0      5.230     13.042
REMARK  Name = 11840913
REMARK  8 active torsions:
REMARK  status: ('A' for Active; 'I' for Inactive)
REMARK    1  A    between atoms: C_2  and  C_13
REMARK    2  A    between atoms: C_3  and  C_20
REMARK    3  A    between atoms: C_10  and  C_15
REMARK    4  A    between atoms: C_15  and  N_16
REMARK    5  A    between atoms: C_20  and  N_22
REMARK    6  A    between atoms: N_23  and  C_27
REMARK    7  A    between atoms: C_32  and  C_34
REMARK    8  A    between atoms: C_34  and  O_35
REMARK                            x       y       z     vdW  Elec       q    Type
REMARK                         _______ _______ _______ _____ _____    ______ ____
ROOT
ATOM      1  N   UNL     1      33.458 -11.987 -23.028  0.00  0.00    +0.393 N 
ATOM      2  C   UNL     1      32.178 -11.298 -22.854  0.00  0.00    +0.017 C 
ATOM      3  C   UNL     1      33.193 -13.411 -22.819  0.00  0.00    -0.041 C 
ATOM      4  C   UNL     1      31.316 -12.207 -21.985  0.00  0.00    -0.015 C 
ATOM      5  C   UNL     1      32.216 -13.389 -21.655  0.00  0.00    -0.021 C 
ATOM      6  H   UNL     1      34.134 -11.650 -22.343  0.00  0.00    -0.084 HD
ATOM      7  H   UNL     1      33.847 -11.815 -23.954  0.00  0.00    -0.084 HD
ENDROOT
BRANCH   2  13
ATOM      8  O   UNL     1      32.021  -9.749 -21.072  0.00  0.00    -0.277 OA
ATOM      9  N   UNL     1      33.286  -9.131 -22.908  0.00  0.00    -0.285 N 
ATOM     10  C   UNL     1      33.758  -7.856 -22.363  0.00  0.00    +0.054 C 
ATOM     11  C   UNL     1      34.921  -7.476 -23.284  0.00  0.00    +0.019 C 
ATOM     12  C   UNL     1      33.852  -9.384 -24.232  0.00  0.00    +0.093 C 
ATOM     13  C   UNL     1      32.481  -9.997 -22.188  0.00  0.00    +0.205 C 
ATOM     14  C   UNL     1      34.519  -8.075 -24.626  0.00  0.00    +0.023 C 
BRANCH  10  15
ATOM     15  C   UNL     1      32.652  -6.803 -22.368  0.00  0.00    -0.066 C 
BRANCH  15  16
ATOM     16  N   UNL     1      31.939  -6.804 -21.127  0.00  0.00    +0.382 N 
ATOM     17  H   UNL     1      32.190  -7.635 -20.590  0.00  0.00    -0.089 HD
ATOM     18  H   UNL     1      30.936  -6.809 -21.310  0.00  0.00    -0.089 HD
ATOM     19  H   UNL     1      32.183  -5.969 -20.593  0.00  0.00    -0.089 HD
ENDBRANCH  15  16
ENDBRANCH  10  15
ENDBRANCH   2  13
BRANCH   3  20
ATOM     20  C   UNL     1      34.468 -14.177 -22.515  0.00  0.00    +0.070 C 
BRANCH  20  22
ATOM     21  O   UNL     1      34.856 -16.133 -20.458  0.00  0.00    -0.252 OA
ATOM     22  N   UNL     1      34.266 -15.593 -22.628  0.00  0.00    -0.291 N 
ATOM     23  N   UNL     1      34.200 -17.801 -21.973  0.00  0.00    -0.268 N 
ATOM     24  C   UNL     1      34.477 -16.492 -21.571  0.00  0.00    +0.304 C 
ATOM     25  H   UNL     1      33.962 -15.953 -23.493  0.00  0.00    +0.151 HD
ATOM     26  H   UNL     1      33.905 -17.914 -22.906  0.00  0.00    +0.156 HD
BRANCH  23  27
ATOM     27  C   UNL     1      34.291 -18.984 -21.204  0.00  0.00    +0.052 C 
ATOM     28  C   UNL     1      35.535 -19.546 -20.969  0.00  0.00    +0.015 C 
ATOM     29  C   UNL     1      33.135 -19.558 -20.701  0.00  0.00    +0.015 C 
ATOM     30  C   UNL     1      35.625 -20.712 -20.210  0.00  0.00    +0.008 C 
ATOM     31  C   UNL     1      33.224 -20.724 -19.942  0.00  0.00    +0.008 C 
ATOM     32  C   UNL     1      34.470 -21.301 -19.697  0.00  0.00    +0.076 C 
BRANCH  32  34
ATOM     33  O   UNL     1      33.848 -23.504 -19.087  0.00  0.00    -0.245 OA
ATOM     34  C   UNL     1      34.564 -22.517 -18.904  0.00  0.00    +0.341 C 
BRANCH  34  35
ATOM     35  O   UNL     1      35.529 -22.460 -17.928  0.00  0.00    -0.441 OA
ATOM     36  C   UNL     1      35.126 -22.857 -16.612  0.00  0.00    +0.256 C 
ENDBRANCH  34  35
ENDBRANCH  32  34
ENDBRANCH  23  27
ENDBRANCH  20  22
ENDBRANCH   3  20
TORSDOF 8
ENDMDL
MODEL 5
REMARK VINA RESULT:      -9.9      1.576      2.043
REMARK  Name = 11840913
REMARK  8 active torsions:
REMARK  status: ('A' for Active; 'I' for Inactive)
REMARK    1  A    between atoms: C_2  and  C_13
REMARK    2  A    between atoms: C_3  and  C_20
REMARK    3  A    between atoms: C_10  and  C_15
REMARK    4  A    between atoms: C_15  and  N_16
REMARK    5  A    between atoms: C_20  and  N_22
REMARK    6  A    between atoms: N_23  and  C_27
REMARK    7  A    between atoms: C_32  and  C_34
REMARK    8  A    between atoms: C_34  and  O_35
REMARK                            x       y       z     vdW  Elec       q    Type
REMARK                         _______ _______ _______ _____ _____    ______ ____
ROOT
ATOM      1  N   UNL     1      36.620 -21.913 -17.006  0.00  0.00    +0.393 N 
ATOM      2  C   UNL     1      36.204 -22.370 -15.679  0.00  0.00    +0.017 C 
ATOM      3  C   UNL     1      35.413 -21.889 -17.833  0.00  0.00    -0.041 C 
ATOM      4  C   UNL     1      34.916 -23.159 -15.882  0.00  0.00    -0.015 C 
ATOM      5  C   UNL     1      34.693 -23.151 -17.388  0.00  0.00    -0.021 C 
ATOM      6  H   UNL     1      37.305 -22.557 -17.401  0.00  0.00    -0.084 HD
ATOM      7  H   UNL     1      37.055 -20.992 -16.960  0.00  0.00    -0.084 HD
ENDROOT
BRANCH   2  13
ATOM      8  O   UNL     1      38.308 -23.439 -15.846  0.00  0.00    -0.277 OA
ATOM      9  N   UNL     1      37.127 -23.720 -13.876  0.00  0.00    -0.285 N 
ATOM     10  C   UNL     1      38.155 -24.490 -13.173  0.00  0.00    +0.054 C 
ATOM     11  C   UNL     1      37.710 -24.441 -11.709  0.00  0.00    +0.019 C 
ATOM     12  C   UNL     1      35.965 -23.485 -13.022  0.00  0.00    +0.093 C 
ATOM     13  C   UNL     1      37.313 -23.220 -15.154  0.00  0.00    +0.205 C 
ATOM     14  C   UNL     1      36.191 -24.369 -11.805  0.00  0.00    +0.023 C 
BRANCH  10  15
ATOM     15  C   UNL     1      38.241 -25.920 -13.701  0.00  0.00    -0.066 C 
BRANCH  15  16
ATOM     16  N   UNL     1      39.468 -26.135 -14.406  0.00  0.00    +0.382 N 
ATOM     17  H   UNL     1      39.397 -25.733 -15.342  0.00  0.00    -0.089 HD
ATOM     18  H   UNL     1      39.650 -27.135 -14.478  0.00  0.00    -0.089 HD
ATOM     19  H   UNL     1      40.233 -25.686 -13.902  0.00  0.00    -0.089 HD
ENDBRANCH  15  16
ENDBRANCH  10  15
ENDBRANCH   2  13
BRANCH   3  20
ATOM     20  C   UNL     1      35.750 -21.883 -19.313  0.00  0.00    +0.070 C 
BRANCH  20  22
ATOM     21  O   UNL     1      34.158 -20.174 -20.972  0.00  0.00    -0.252 OA
ATOM     22  N   UNL     1      36.093 -20.565 -19.765  0.00  0.00    -0.291 N 
ATOM     23  N   UNL     1      35.851 -18.551 -20.858  0.00  0.00    -0.268 N 
ATOM     24  C   UNL     1      35.257 -19.785 -20.580  0.00  0.00    +0.304 C 
ATOM     25  H   UNL     1      36.960 -20.188 -19.490  0.00  0.00    +0.151 HD
ATOM     26  H   UNL     1      36.740 -18.400 -20.463  0.00  0.00    +0.156 HD
BRANCH  23  27
ATOM     27  C   UNL     1      35.331 -17.493 -21.641  0.00  0.00    +0.052 C 
ATOM     28  C   UNL     1      35.377 -17.585 -23.022  0.00  0.00    +0.015 C 
ATOM     29  C   UNL     1      34.787 -16.387 -21.009  0.00  0.00    +0.015 C 
ATOM     30  C   UNL     1      34.865 -16.542 -23.793  0.00  0.00    +0.008 C 
ATOM     31  C   UNL     1      34.275 -15.344 -21.780  0.00  0.00    +0.008 C 
ATOM     32  C   UNL     1      34.314 -15.422 -23.172  0.00  0.00    +0.076 C 
BRANCH  32  34
ATOM     33  O   UNL     1      33.347 -14.486 -25.121  0.00  0.00    -0.245 OA
ATOM     34  C   UNL     1      33.778 -14.335 -23.976  0.00  0.00    +0.341 C 
BRANCH  34  35
ATOM     35  O   UNL     1      33.801 -13.119 -23.336  0.00  0.00    -0.441 OA
ATOM     36  C   UNL     1      33.667 -11.960 -24.168  0.00  0.00    +0.256 C 
ENDBRANCH  34  35
ENDBRANCH  32  34
ENDBRANCH  23  27
ENDBRANCH  20  22
ENDBRANCH   3  20
TORSDOF 8
ENDMDL
MODEL 6
REMARK VINA RESULT:      -9.8      2.813     11.634
REMARK  Name = 11840913
REMARK  8 active torsions:
REMARK  status: ('A' for Active; 'I' for Inactive)
REMARK    1  A    between atoms: C_2  and  C_13
REMARK    2  A    between atoms: C_3  and  C_20
REMARK    3  A    between atoms: C_10  and  C_15
REMARK    4  A    between atoms: C_15  and  N_16
REMARK    5  A    between atoms: C_20  and  N_22
REMARK    6  A    between atoms: N_23  and  C_27
REMARK    7  A    between atoms: C_32  and  C_34
REMARK    8  A    between atoms: C_34  and  O_35
REMARK                            x       y       z     vdW  Elec       q    Type
REMARK                         _______ _______ _______ _____ _____    ______ ____
ROOT
ATOM      1  N   UNL     1      36.222 -18.407 -21.042  0.00  0.00    +0.393 N 
ATOM      2  C   UNL     1      35.074 -18.012 -21.860  0.00  0.00    +0.017 C 
ATOM      3  C   UNL     1      36.047 -19.830 -20.746  0.00  0.00    -0.041 C 
ATOM      4  C   UNL     1      33.963 -19.009 -21.550  0.00  0.00    -0.015 C 
ATOM      5  C   UNL     1      34.553 -19.924 -20.486  0.00  0.00    -0.021 C 
ATOM      6  H   UNL     1      36.242 -17.867 -20.178  0.00  0.00    -0.084 HD
ATOM      7  H   UNL     1      37.100 -18.236 -21.532  0.00  0.00    -0.084 HD
ENDROOT
BRANCH   2  13
ATOM      8  O   UNL     1      34.818 -16.277 -20.271  0.00  0.00    -0.277 OA
ATOM      9  N   UNL     1      34.279 -15.793 -22.469  0.00  0.00    -0.285 N 
ATOM     10  C   UNL     1      33.981 -14.374 -22.259  0.00  0.00    +0.054 C 
ATOM     11  C   UNL     1      33.975 -13.790 -23.675  0.00  0.00    +0.019 C 
ATOM     12  C   UNL     1      34.145 -16.159 -23.877  0.00  0.00    +0.093 C 
ATOM     13  C   UNL     1      34.717 -16.621 -21.450  0.00  0.00    +0.205 C 
ATOM     14  C   UNL     1      33.491 -14.953 -24.533  0.00  0.00    +0.023 C 
BRANCH  10  15
ATOM     15  C   UNL     1      32.641 -14.184 -21.551  0.00  0.00    -0.066 C 
BRANCH  15  16
ATOM     16  N   UNL     1      31.951 -13.037 -22.060  0.00  0.00    +0.382 N 
ATOM     17  H   UNL     1      31.102 -12.882 -21.515  0.00  0.00    -0.089 HD
ATOM     18  H   UNL     1      31.704 -13.193 -23.037  0.00  0.00    -0.089 HD
ATOM     19  H   UNL     1      32.554 -12.217 -21.988  0.00  0.00    -0.089 HD
ENDBRANCH  15  16
ENDBRANCH  10  15
ENDBRANCH   2  13
BRANCH   3  20
ATOM     20  C   UNL     1      36.889 -20.259 -19.556  0.00  0.00    +0.070 C 
BRANCH  20  22
ATOM     21  O   UNL     1      37.627 -21.189 -16.949  0.00  0.00    -0.252 OA
ATOM     22  N   UNL     1      36.227 -21.274 -18.788  0.00  0.00    -0.291 N 
ATOM     23  N   UNL     1      35.815 -22.680 -17.010  0.00  0.00    -0.268 N 
ATOM     24  C   UNL     1      36.650 -21.678 -17.512  0.00  0.00    +0.304 C 
ATOM     25  H   UNL     1      35.434 -21.711 -19.177  0.00  0.00    +0.151 HD
ATOM     26  H   UNL     1      35.073 -22.958 -17.594  0.00  0.00    +0.156 HD
BRANCH  23  27
ATOM     27  C   UNL     1      35.907 -23.344 -15.765  0.00  0.00    +0.052 C 
ATOM     28  C   UNL     1      37.106 -23.932 -15.397  0.00  0.00    +0.015 C 
ATOM     29  C   UNL     1      34.797 -23.394 -14.939  0.00  0.00    +0.015 C 
ATOM     30  C   UNL     1      37.197 -24.587 -14.170  0.00  0.00    +0.008 C 
ATOM     31  C   UNL     1      34.887 -24.049 -13.710  0.00  0.00    +0.008 C 
ATOM     32  C   UNL     1      36.088 -24.646 -13.326  0.00  0.00    +0.076 C 
BRANCH  32  34
ATOM     33  O   UNL     1      37.010 -26.209 -11.805  0.00  0.00    -0.245 OA
ATOM     34  C   UNL     1      36.183 -25.327 -12.045  0.00  0.00    +0.341 C 
BRANCH  34  35
ATOM     35  O   UNL     1      35.259 -24.894 -11.126  0.00  0.00    -0.441 OA
ATOM     36  C   UNL     1      35.733 -23.982 -10.128  0.00  0.00    +0.256 C 
ENDBRANCH  34  35
ENDBRANCH  32  34
ENDBRANCH  23  27
ENDBRANCH  20  22
ENDBRANCH   3  20
TORSDOF 8
ENDMDL
MODEL 7
REMARK VINA RESULT:      -9.8      5.000     13.166
REMARK  Name = 11840913
REMARK  8 active torsions:
REMARK  status: ('A' for Active; 'I' for Inactive)
REMARK    1  A    between atoms: C_2  and  C_13
REMARK    2  A    between atoms: C_3  and  C_20
REMARK    3  A    between atoms: C_10  and  C_15
REMARK    4  A    between atoms: C_15  and  N_16
REMARK    5  A    between atoms: C_20  and  N_22
REMARK    6  A    between atoms: N_23  and  C_27
REMARK    7  A    between atoms: C_32  and  C_34
REMARK    8  A    between atoms: C_34  and  O_35
REMARK                            x       y       z     vdW  Elec       q    Type
REMARK                         _______ _______ _______ _____ _____    ______ ____
ROOT
ATOM      1  N   UNL     1      34.017 -13.061 -23.984  0.00  0.00    +0.393 N 
ATOM      2  C   UNL     1      34.160 -11.663 -24.393  0.00  0.00    +0.017 C 
ATOM      3  C   UNL     1      34.168 -13.864 -25.198  0.00  0.00    -0.041 C 
ATOM      4  C   UNL     1      33.807 -11.612 -25.875  0.00  0.00    -0.015 C 
ATOM      5  C   UNL     1      33.413 -13.039 -26.226  0.00  0.00    -0.021 C 
ATOM      6  H   UNL     1      33.098 -13.214 -23.571  0.00  0.00    -0.084 HD
ATOM      7  H   UNL     1      34.714 -13.314 -23.284  0.00  0.00    -0.084 HD
ENDROOT
BRANCH   2  13
ATOM      8  O   UNL     1      32.229 -11.421 -23.047  0.00  0.00    -0.277 OA
ATOM      9  N   UNL     1      33.512  -9.530 -23.414  0.00  0.00    -0.285 N 
ATOM     10  C   UNL     1      32.740  -8.635 -22.549  0.00  0.00    +0.054 C 
ATOM     11  C   UNL     1      33.663  -7.427 -22.360  0.00  0.00    +0.019 C 
ATOM     12  C   UNL     1      34.661  -8.842 -23.998  0.00  0.00    +0.093 C 
ATOM     13  C   UNL     1      33.209 -10.874 -23.556  0.00  0.00    +0.205 C 
ATOM     14  C   UNL     1      34.445  -7.373 -23.666  0.00  0.00    +0.023 C 
BRANCH  10  15
ATOM     15  C   UNL     1      31.410  -8.248 -23.192  0.00  0.00    -0.066 C 
BRANCH  15  16
ATOM     16  N   UNL     1      31.018  -6.927 -22.805  0.00  0.00    +0.382 N 
ATOM     17  H   UNL     1      30.757  -6.926 -21.817  0.00  0.00    -0.089 HD
ATOM     18  H   UNL     1      30.221  -6.629 -23.367  0.00  0.00    -0.089 HD
ATOM     19  H   UNL     1      31.796  -6.285 -22.950  0.00  0.00    -0.089 HD
ENDBRANCH  15  16
ENDBRANCH  10  15
ENDBRANCH   2  13
BRANCH   3  20
ATOM     20  C   UNL     1      33.599 -15.261 -25.017  0.00  0.00    +0.070 C 
BRANCH  20  22
ATOM     21  O   UNL     1      34.204 -17.956 -24.255  0.00  0.00    -0.252 OA
ATOM     22  N   UNL     1      33.823 -15.747 -23.685  0.00  0.00    -0.291 N 
ATOM     23  N   UNL     1      34.284 -17.264 -22.014  0.00  0.00    -0.268 N 
ATOM     24  C   UNL     1      34.116 -17.087 -23.390  0.00  0.00    +0.304 C 
ATOM     25  H   UNL     1      33.768 -15.106 -22.939  0.00  0.00    +0.151 HD
ATOM     26  H   UNL     1      34.178 -16.458 -21.458  0.00  0.00    +0.156 HD
BRANCH  23  27
ATOM     27  C   UNL     1      34.585 -18.460 -21.321  0.00  0.00    +0.052 C 
ATOM     28  C   UNL     1      35.909 -18.786 -21.076  0.00  0.00    +0.015 C 
ATOM     29  C   UNL     1      33.551 -19.281 -20.904  0.00  0.00    +0.015 C 
ATOM     30  C   UNL     1      36.206 -19.965 -20.394  0.00  0.00    +0.008 C 
ATOM     31  C   UNL     1      33.848 -20.460 -20.221  0.00  0.00    +0.008 C 
ATOM     32  C   UNL     1      35.176 -20.802 -19.966  0.00  0.00    +0.076 C 
BRANCH  32  34
ATOM     33  O   UNL     1      34.736 -23.009 -19.229  0.00  0.00    -0.245 OA
ATOM     34  C   UNL     1      35.486 -22.031 -19.253  0.00  0.00    +0.341 C 
BRANCH  34  35
ATOM     35  O   UNL     1      36.697 -21.997 -18.605  0.00  0.00    -0.441 OA
ATOM     36  C   UNL     1      36.652 -21.997 -17.173  0.00  0.00    +0.256 C 
ENDBRANCH  34  35
ENDBRANCH  32  34
ENDBRANCH  23  27
ENDBRANCH  20  22
ENDBRANCH   3  20
TORSDOF 8
ENDMDL
MODEL 8
REMARK VINA RESULT:      -9.8      4.019     12.415
REMARK  Name = 11840913
REMARK  8 active torsions:
REMARK  status: ('A' for Active; 'I' for Inactive)
REMARK    1  A    between atoms: C_2  and  C_13
REMARK    2  A    between atoms: C_3  and  C_20
REMARK    3  A    between atoms: C_10  and  C_15
REMARK    4  A    between atoms: C_15  and  N_16
REMARK    5  A    between atoms: C_20  and  N_22
REMARK    6  A    between atoms: N_23  and  C_27
REMARK    7  A    between atoms: C_32  and  C_34
REMARK    8  A    between atoms: C_34  and  O_35
REMARK                            x       y       z     vdW  Elec       q    Type
REMARK                         _______ _______ _______ _____ _____    ______ ____
ROOT
ATOM      1  N   UNL     1      33.525 -14.631 -23.878  0.00  0.00    +0.393 N 
ATOM      2  C   UNL     1      32.807 -13.535 -23.225  0.00  0.00    +0.017 C 
ATOM      3  C   UNL     1      33.831 -15.605 -22.831  0.00  0.00    -0.041 C 
ATOM      4  C   UNL     1      33.205 -13.577 -21.754  0.00  0.00    -0.015 C 
ATOM      5  C   UNL     1      34.214 -14.712 -21.662  0.00  0.00    -0.021 C 
ATOM      6  H   UNL     1      34.385 -14.285 -24.301  0.00  0.00    -0.084 HD
ATOM      7  H   UNL     1      32.964 -15.049 -24.620  0.00  0.00    -0.084 HD
ENDROOT
BRANCH   2  13
ATOM      8  O   UNL     1      34.032 -12.321 -24.846  0.00  0.00    -0.277 OA
ATOM      9  N   UNL     1      32.723 -11.106 -23.375  0.00  0.00    -0.285 N 
ATOM     10  C   UNL     1      32.975  -9.793 -23.973  0.00  0.00    +0.054 C 
ATOM     11  C   UNL     1      31.885  -8.903 -23.369  0.00  0.00    +0.019 C 
ATOM     12  C   UNL     1      31.793 -11.007 -22.253  0.00  0.00    +0.093 C 
ATOM     13  C   UNL     1      33.248 -12.276 -23.897  0.00  0.00    +0.205 C 
ATOM     14  C   UNL     1      31.653  -9.515 -21.993  0.00  0.00    +0.023 C 
BRANCH  10  15
ATOM     15  C   UNL     1      34.379  -9.289 -23.644  0.00  0.00    -0.066 C 
BRANCH  15  16
ATOM     16  N   UNL     1      35.320  -9.710 -24.636  0.00  0.00    +0.382 N 
ATOM     17  H   UNL     1      35.896 -10.464 -24.260  0.00  0.00    -0.089 HD
ATOM     18  H   UNL     1      35.917  -8.924 -24.895  0.00  0.00    -0.089 HD
ATOM     19  H   UNL     1      34.821 -10.043 -25.460  0.00  0.00    -0.089 HD
ENDBRANCH  15  16
ENDBRANCH  10  15
ENDBRANCH   2  13
BRANCH   3  20
ATOM     20  C   UNL     1      34.945 -16.547 -23.254  0.00  0.00    +0.070 C 
BRANCH  20  22
ATOM     21  O   UNL     1      35.422 -17.716 -20.682  0.00  0.00    -0.252 OA
ATOM     22  N   UNL     1      34.664 -17.898 -22.860  0.00  0.00    -0.291 N 
ATOM     23  N   UNL     1      34.550 -19.743 -21.485  0.00  0.00    -0.268 N 
ATOM     24  C   UNL     1      34.927 -18.400 -21.576  0.00  0.00    +0.304 C 
ATOM     25  H   UNL     1      34.266 -18.505 -23.526  0.00  0.00    +0.151 HD
ATOM     26  H   UNL     1      34.167 -20.141 -22.300  0.00  0.00    +0.156 HD
BRANCH  23  27
ATOM     27  C   UNL     1      34.654 -20.600 -20.364  0.00  0.00    +0.052 C 
ATOM     28  C   UNL     1      33.502 -21.129 -19.807  0.00  0.00    +0.015 C 
ATOM     29  C   UNL     1      35.905 -20.893 -19.848  0.00  0.00    +0.015 C 
ATOM     30  C   UNL     1      33.603 -21.974 -18.703  0.00  0.00    +0.008 C 
ATOM     31  C   UNL     1      36.007 -21.739 -18.743  0.00  0.00    +0.008 C 
ATOM     32  C   UNL     1      34.856 -22.279 -18.171  0.00  0.00    +0.076 C 
BRANCH  32  34
ATOM     33  O   UNL     1      34.025 -23.842 -16.598  0.00  0.00    -0.245 OA
ATOM     34  C   UNL     1      34.963 -23.162 -17.020  0.00  0.00    +0.341 C 
BRANCH  34  35
ATOM     35  O   UNL     1      36.210 -23.164 -16.446  0.00  0.00    -0.441 OA
ATOM     36  C   UNL     1      36.342 -23.878 -15.211  0.00  0.00    +0.256 C 
ENDBRANCH  34  35
ENDBRANCH  32  34
ENDBRANCH  23  27
ENDBRANCH  20  22
ENDBRANCH   3  20
TORSDOF 8
ENDMDL
MODEL 9
REMARK VINA RESULT:      -9.6      2.789     11.554
REMARK  Name = 11840913
REMARK  8 active torsions:
REMARK  status: ('A' for Active; 'I' for Inactive)
REMARK    1  A    between atoms: C_2  and  C_13
REMARK    2  A    between atoms: C_3  and  C_20
REMARK    3  A    between atoms: C_10  and  C_15
REMARK    4  A    between atoms: C_15  and  N_16
REMARK    5  A    between atoms: C_20  and  N_22
REMARK    6  A    between atoms: N_23  and  C_27
REMARK    7  A    between atoms: C_32  and  C_34
REMARK    8  A    between atoms: C_34  and  O_35
REMARK                            x       y       z     vdW  Elec       q    Type
REMARK                         _______ _______ _______ _____ _____    ______ ____
ROOT
ATOM      1  N   UNL     1      36.141 -18.556 -21.240  0.00  0.00    +0.393 N 
ATOM      2  C   UNL     1      34.966 -18.102 -21.985  0.00  0.00    +0.017 C 
ATOM      3  C   UNL     1      35.932 -19.978 -20.964  0.00  0.00    -0.041 C 
ATOM      4  C   UNL     1      33.838 -19.067 -21.636  0.00  0.00    -0.015 C 
ATOM      5  C   UNL     1      34.451 -20.026 -20.626  0.00  0.00    -0.021 C 
ATOM      6  H   UNL     1      36.227 -18.037 -20.367  0.00  0.00    -0.084 HD
ATOM      7  H   UNL     1      36.997 -18.405 -21.773  0.00  0.00    -0.084 HD
ENDROOT
BRANCH   2  13
ATOM      8  O   UNL     1      34.840 -16.401 -20.344  0.00  0.00    -0.277 OA
ATOM      9  N   UNL     1      34.242 -15.837 -22.507  0.00  0.00    -0.285 N 
ATOM     10  C   UNL     1      34.012 -14.414 -22.251  0.00  0.00    +0.054 C 
ATOM     11  C   UNL     1      33.978 -13.792 -23.650  0.00  0.00    +0.019 C 
ATOM     12  C   UNL     1      34.043 -16.160 -23.918  0.00  0.00    +0.093 C 
ATOM     13  C   UNL     1      34.683 -16.710 -21.527  0.00  0.00    +0.205 C 
ATOM     14  C   UNL     1      33.417 -14.911 -24.519  0.00  0.00    +0.023 C 
BRANCH  10  15
ATOM     15  C   UNL     1      32.707 -14.189 -21.489  0.00  0.00    -0.066 C 
BRANCH  15  16
ATOM     16  N   UNL     1      32.016 -13.037 -21.985  0.00  0.00    +0.382 N 
ATOM     17  H   UNL     1      32.693 -12.311 -22.225  0.00  0.00    -0.089 HD
ATOM     18  H   UNL     1      31.381 -12.686 -21.269  0.00  0.00    -0.089 HD
ATOM     19  H   UNL     1      31.484 -13.291 -22.817  0.00  0.00    -0.089 HD
ENDBRANCH  15  16
ENDBRANCH  10  15
ENDBRANCH   2  13
BRANCH   3  20
ATOM     20  C   UNL     1      36.820 -20.464 -19.832  0.00  0.00    +0.070 C 
BRANCH  20  22
ATOM     21  O   UNL     1      37.485 -21.135 -17.127  0.00  0.00    -0.252 OA
ATOM     22  N   UNL     1      36.122 -21.384 -18.979  0.00  0.00    -0.291 N 
ATOM     23  N   UNL     1      35.646 -22.593 -17.077  0.00  0.00    -0.268 N 
ATOM     24  C   UNL     1      36.510 -21.662 -17.659  0.00  0.00    +0.304 C 
ATOM     25  H   UNL     1      35.330 -21.844 -19.340  0.00  0.00    +0.151 HD
ATOM     26  H   UNL     1      34.911 -22.916 -17.647  0.00  0.00    +0.156 HD
BRANCH  23  27
ATOM     27  C   UNL     1      35.699 -23.128 -15.769  0.00  0.00    +0.052 C 
ATOM     28  C   UNL     1      36.811 -22.883 -14.980  0.00  0.00    +0.015 C 
ATOM     29  C   UNL     1      34.638 -23.887 -15.303  0.00  0.00    +0.015 C 
ATOM     30  C   UNL     1      36.863 -23.410 -13.691  0.00  0.00    +0.008 C 
ATOM     31  C   UNL     1      34.690 -24.415 -14.013  0.00  0.00    +0.008 C 
ATOM     32  C   UNL     1      35.803 -24.176 -13.207  0.00  0.00    +0.076 C 
BRANCH  32  34
ATOM     33  O   UNL     1      34.910 -24.681 -11.072  0.00  0.00    -0.245 OA
ATOM     34  C   UNL     1      35.856 -24.725 -11.861  0.00  0.00    +0.341 C 
BRANCH  34  35
ATOM     35  O   UNL     1      37.066 -25.298 -11.552  0.00  0.00    -0.441 OA
ATOM     36  C   UNL     1      37.555 -26.284 -12.469  0.00  0.00    +0.256 C 
ENDBRANCH  34  35
ENDBRANCH  32  34
ENDBRANCH  23  27
ENDBRANCH  20  22
ENDBRANCH   3  20
TORSDOF 8
ENDMDL
