MODEL 1
REMARK VINA RESULT:      -8.8      0.000      0.000
REMARK  Name = 188350
REMARK  5 active torsions:
REMARK  status: ('A' for Active; 'I' for Inactive)
REMARK    1  A    between atoms: N_1  and  C_11
REMARK    2  A    between atoms: C_12  and  O_15
REMARK    3  A    between atoms: C_13  and  O_17
REMARK    4  A    between atoms: C_14  and  C_19
REMARK    5  A    between atoms: C_19  and  S_20
REMARK                            x       y       z     vdW  Elec       q    Type
REMARK                         _______ _______ _______ _____ _____    ______ ____
ROOT
ATOM      1  N   UNL     1      34.290 -19.429 -20.895  0.00  0.00    -0.250 N 
ATOM      2  N   UNL     1      36.227 -20.366 -19.804  0.00  0.00    -0.233 NA
ATOM      3  N   UNL     1      35.715 -22.343 -18.481  0.00  0.00    -0.234 NA
ATOM      4  C   UNL     1      34.914 -20.353 -20.093  0.00  0.00    +0.122 C 
ATOM      5  C   UNL     1      32.949 -19.727 -20.966  0.00  0.00    +0.064 C 
ATOM      6  C   UNL     1      33.957 -21.255 -19.645  0.00  0.00    +0.131 C 
ATOM      7  C   UNL     1      32.716 -20.851 -20.202  0.00  0.00    +0.004 C 
ATOM      8  C   UNL     1      34.404 -22.277 -18.810  0.00  0.00    +0.110 C 
ATOM      9  C   UNL     1      36.534 -21.397 -18.992  0.00  0.00    +0.252 C 
ATOM     10  N   UNL     1      33.508 -23.237 -18.307  0.00  0.00    -0.346 N 
ATOM     11  H   UNL     1      33.835 -23.955 -17.718  0.00  0.00    +0.143 HD
ATOM     12  H   UNL     1      32.554 -23.191 -18.545  0.00  0.00    +0.143 HD
ENDROOT
BRANCH   1  14
ATOM     13  O   UNL     1      35.033 -17.188 -20.668  0.00  0.00    -0.334 OA
ATOM     14  C   UNL     1      34.934 -18.305 -21.571  0.00  0.00    +0.227 C 
ATOM     15  C   UNL     1      34.178 -17.800 -22.790  0.00  0.00    +0.187 C 
ATOM     16  C   UNL     1      34.662 -16.366 -22.871  0.00  0.00    +0.169 C 
ATOM     17  C   UNL     1      34.758 -15.971 -21.401  0.00  0.00    +0.157 C 
BRANCH  15  18
ATOM     18  O   UNL     1      34.480 -18.552 -23.948  0.00  0.00    -0.378 OA
ATOM     19  H   UNL     1      33.874 -19.307 -24.010  0.00  0.00    +0.211 HD
ENDBRANCH  15  18
BRANCH  16  20
ATOM     20  O   UNL     1      35.970 -16.336 -23.442  0.00  0.00    -0.379 OA
ATOM     21  H   UNL     1      36.417 -17.180 -23.267  0.00  0.00    +0.211 HD
ENDBRANCH  16  20
BRANCH  17  22
ATOM     22  C   UNL     1      33.469 -15.368 -20.863  0.00  0.00    +0.090 C 
BRANCH  22  23
ATOM     23  S   UNL     1      32.676 -14.341 -22.127  0.00  0.00    -0.137 S 
ATOM     24  C   UNL     1      32.140 -12.979 -21.067  0.00  0.00    +0.069 C 
ENDBRANCH  22  23
ENDBRANCH  17  22
ENDBRANCH   1  14
TORSDOF 5
ENDMDL
MODEL 2
REMARK VINA RESULT:      -8.2      1.108      2.048
REMARK  Name = 188350
REMARK  5 active torsions:
REMARK  status: ('A' for Active; 'I' for Inactive)
REMARK    1  A    between atoms: N_1  and  C_11
REMARK    2  A    between atoms: C_12  and  O_15
REMARK    3  A    between atoms: C_13  and  O_17
REMARK    4  A    between atoms: C_14  and  C_19
REMARK    5  A    between atoms: C_19  and  S_20
REMARK                            x       y       z     vdW  Elec       q    Type
REMARK                         _______ _______ _______ _____ _____    ______ ____
ROOT
ATOM      1  N   UNL     1      35.789 -19.183 -21.006  0.00  0.00    -0.250 N 
ATOM      2  N   UNL     1      33.407 -19.555 -20.933  0.00  0.00    -0.233 NA
ATOM      3  N   UNL     1      32.786 -21.518 -19.635  0.00  0.00    -0.234 NA
ATOM      4  C   UNL     1      34.673 -19.879 -20.615  0.00  0.00    +0.122 C 
ATOM      5  C   UNL     1      36.907 -19.800 -20.496  0.00  0.00    +0.064 C 
ATOM      6  C   UNL     1      35.083 -20.958 -19.842  0.00  0.00    +0.131 C 
ATOM      7  C   UNL     1      36.499 -20.901 -19.772  0.00  0.00    +0.004 C 
ATOM      8  C   UNL     1      34.080 -21.791 -19.347  0.00  0.00    +0.110 C 
ATOM      9  C   UNL     1      32.534 -20.432 -20.399  0.00  0.00    +0.252 C 
ATOM     10  N   UNL     1      34.400 -22.908 -18.556  0.00  0.00    -0.346 N 
ATOM     11  H   UNL     1      33.684 -23.488 -18.212  0.00  0.00    +0.143 HD
ATOM     12  H   UNL     1      35.340 -23.108 -18.344  0.00  0.00    +0.143 HD
ENDROOT
BRANCH   1  14
ATOM     13  O   UNL     1      35.429 -16.838 -21.036  0.00  0.00    -0.334 OA
ATOM     14  C   UNL     1      35.804 -17.978 -21.832  0.00  0.00    +0.227 C 
ATOM     15  C   UNL     1      34.831 -18.016 -23.001  0.00  0.00    +0.187 C 
ATOM     16  C   UNL     1      34.595 -16.539 -23.245  0.00  0.00    +0.169 C 
ATOM     17  C   UNL     1      34.584 -15.973 -21.829  0.00  0.00    +0.157 C 
BRANCH  15  18
ATOM     18  O   UNL     1      35.378 -18.682 -24.121  0.00  0.00    -0.378 OA
ATOM     19  H   UNL     1      35.066 -19.600 -24.136  0.00  0.00    +0.211 HD
ENDBRANCH  15  18
BRANCH  16  20
ATOM     20  O   UNL     1      35.708 -15.990 -23.951  0.00  0.00    -0.379 OA
ATOM     21  H   UNL     1      36.532 -16.337 -23.575  0.00  0.00    +0.211 HD
ENDBRANCH  16  20
BRANCH  17  22
ATOM     22  C   UNL     1      33.194 -15.958 -21.207  0.00  0.00    +0.090 C 
BRANCH  22  23
ATOM     23  S   UNL     1      32.724 -14.269 -20.752  0.00  0.00    -0.137 S 
ATOM     24  C   UNL     1      32.388 -13.630 -22.409  0.00  0.00    +0.069 C 
ENDBRANCH  22  23
ENDBRANCH  17  22
ENDBRANCH   1  14
TORSDOF 5
ENDMDL
MODEL 3
REMARK VINA RESULT:      -8.0      7.160      9.780
REMARK  Name = 188350
REMARK  5 active torsions:
REMARK  status: ('A' for Active; 'I' for Inactive)
REMARK    1  A    between atoms: N_1  and  C_11
REMARK    2  A    between atoms: C_12  and  O_15
REMARK    3  A    between atoms: C_13  and  O_17
REMARK    4  A    between atoms: C_14  and  C_19
REMARK    5  A    between atoms: C_19  and  S_20
REMARK                            x       y       z     vdW  Elec       q    Type
REMARK                         _______ _______ _______ _____ _____    ______ ____
ROOT
ATOM      1  N   UNL     1      35.356 -23.245 -14.679  0.00  0.00    -0.250 N 
ATOM      2  N   UNL     1      36.807 -22.089 -16.221  0.00  0.00    -0.233 NA
ATOM      3  N   UNL     1      35.895 -21.954 -18.473  0.00  0.00    -0.234 NA
ATOM      4  C   UNL     1      35.676 -22.750 -15.919  0.00  0.00    +0.122 C 
ATOM      5  C   UNL     1      34.127 -23.858 -14.742  0.00  0.00    +0.064 C 
ATOM      6  C   UNL     1      34.634 -23.050 -16.787  0.00  0.00    +0.131 C 
ATOM      7  C   UNL     1      33.658 -23.752 -16.035  0.00  0.00    +0.004 C 
ATOM      8  C   UNL     1      34.777 -22.624 -18.107  0.00  0.00    +0.110 C 
ATOM      9  C   UNL     1      36.827 -21.731 -17.520  0.00  0.00    +0.252 C 
ATOM     10  N   UNL     1      33.774 -22.882 -19.058  0.00  0.00    -0.346 N 
ATOM     11  H   UNL     1      33.886 -22.576 -19.987  0.00  0.00    +0.143 HD
ATOM     12  H   UNL     1      32.960 -23.369 -18.794  0.00  0.00    +0.143 HD
ENDROOT
BRANCH   1  14
ATOM     13  O   UNL     1      37.529 -23.552 -13.777  0.00  0.00    -0.334 OA
ATOM     14  C   UNL     1      36.180 -23.145 -13.477  0.00  0.00    +0.227 C 
ATOM     15  C   UNL     1      35.715 -24.031 -12.331  0.00  0.00    +0.187 C 
ATOM     16  C   UNL     1      37.002 -24.217 -11.552  0.00  0.00    +0.169 C 
ATOM     17  C   UNL     1      38.043 -24.319 -12.663  0.00  0.00    +0.157 C 
BRANCH  15  18
ATOM     18  O   UNL     1      34.692 -23.418 -11.572  0.00  0.00    -0.378 OA
ATOM     19  H   UNL     1      35.003 -23.281 -10.663  0.00  0.00    +0.211 HD
ENDBRANCH  15  18
BRANCH  16  20
ATOM     20  O   UNL     1      37.265 -23.044 -10.782  0.00  0.00    -0.379 OA
ATOM     21  H   UNL     1      37.058 -22.258 -11.310  0.00  0.00    +0.211 HD
ENDBRANCH  16  20
BRANCH  17  22
ATOM     22  C   UNL     1      38.272 -25.749 -13.131  0.00  0.00    +0.090 C 
BRANCH  22  23
ATOM     23  S   UNL     1      38.293 -25.826 -14.941  0.00  0.00    -0.137 S 
ATOM     24  C   UNL     1      36.698 -26.638 -15.192  0.00  0.00    +0.069 C 
ENDBRANCH  22  23
ENDBRANCH  17  22
ENDBRANCH   1  14
TORSDOF 5
ENDMDL
MODEL 4
REMARK VINA RESULT:      -8.0      6.731      9.313
REMARK  Name = 188350
REMARK  5 active torsions:
REMARK  status: ('A' for Active; 'I' for Inactive)
REMARK    1  A    between atoms: N_1  and  C_11
REMARK    2  A    between atoms: C_12  and  O_15
REMARK    3  A    between atoms: C_13  and  O_17
REMARK    4  A    between atoms: C_14  and  C_19
REMARK    5  A    between atoms: C_19  and  S_20
REMARK                            x       y       z     vdW  Elec       q    Type
REMARK                         _______ _______ _______ _____ _____    ______ ____
ROOT
ATOM      1  N   UNL     1      34.849 -24.064 -15.520  0.00  0.00    -0.250 N 
ATOM      2  N   UNL     1      34.666 -23.092 -17.719  0.00  0.00    -0.233 NA
ATOM      3  N   UNL     1      32.404 -22.376 -18.263  0.00  0.00    -0.234 NA
ATOM      4  C   UNL     1      34.144 -23.479 -16.542  0.00  0.00    +0.122 C 
ATOM      5  C   UNL     1      33.993 -24.324 -14.474  0.00  0.00    +0.064 C 
ATOM      6  C   UNL     1      32.818 -23.363 -16.144  0.00  0.00    +0.131 C 
ATOM      7  C   UNL     1      32.731 -23.900 -14.834  0.00  0.00    +0.004 C 
ATOM      8  C   UNL     1      31.938 -22.786 -17.059  0.00  0.00    +0.110 C 
ATOM      9  C   UNL     1      33.720 -22.552 -18.514  0.00  0.00    +0.252 C 
ATOM     10  N   UNL     1      30.577 -22.627 -16.745  0.00  0.00    -0.346 N 
ATOM     11  H   UNL     1      29.966 -22.218 -17.399  0.00  0.00    +0.143 HD
ATOM     12  H   UNL     1      30.236 -22.924 -15.870  0.00  0.00    +0.143 HD
ENDROOT
BRANCH   1  14
ATOM     13  O   UNL     1      36.497 -25.680 -14.974  0.00  0.00    -0.334 OA
ATOM     14  C   UNL     1      36.277 -24.368 -15.526  0.00  0.00    +0.227 C 
ATOM     15  C   UNL     1      37.118 -23.412 -14.694  0.00  0.00    +0.187 C 
ATOM     16  C   UNL     1      38.321 -24.275 -14.367  0.00  0.00    +0.169 C 
ATOM     17  C   UNL     1      37.688 -25.647 -14.153  0.00  0.00    +0.157 C 
BRANCH  15  18
ATOM     18  O   UNL     1      37.456 -22.243 -15.415  0.00  0.00    -0.378 OA
ATOM     19  H   UNL     1      37.570 -22.464 -16.352  0.00  0.00    +0.211 HD
ENDBRANCH  15  18
BRANCH  16  20
ATOM     20  O   UNL     1      39.184 -24.339 -15.502  0.00  0.00    -0.379 OA
ATOM     21  H   UNL     1      38.673 -24.160 -16.307  0.00  0.00    +0.211 HD
ENDBRANCH  16  20
BRANCH  17  22
ATOM     22  C   UNL     1      37.281 -25.894 -12.708  0.00  0.00    +0.090 C 
BRANCH  22  23
ATOM     23  S   UNL     1      37.438 -24.371 -11.738  0.00  0.00    -0.137 S 
ATOM     24  C   UNL     1      35.738 -24.264 -11.133  0.00  0.00    +0.069 C 
ENDBRANCH  22  23
ENDBRANCH  17  22
ENDBRANCH   1  14
TORSDOF 5
ENDMDL
MODEL 5
REMARK VINA RESULT:      -7.9      7.305      8.895
REMARK  Name = 188350
REMARK  5 active torsions:
REMARK  status: ('A' for Active; 'I' for Inactive)
REMARK    1  A    between atoms: N_1  and  C_11
REMARK    2  A    between atoms: C_12  and  O_15
REMARK    3  A    between atoms: C_13  and  O_17
REMARK    4  A    between atoms: C_14  and  C_19
REMARK    5  A    between atoms: C_19  and  S_20
REMARK                            x       y       z     vdW  Elec       q    Type
REMARK                         _______ _______ _______ _____ _____    ______ ____
ROOT
ATOM      1  N   UNL     1      33.614 -23.593 -15.479  0.00  0.00    -0.250 N 
ATOM      2  N   UNL     1      35.280 -23.732 -13.740  0.00  0.00    -0.233 NA
ATOM      3  N   UNL     1      37.498 -23.061 -14.485  0.00  0.00    -0.234 NA
ATOM      4  C   UNL     1      34.894 -23.460 -14.999  0.00  0.00    +0.122 C 
ATOM      5  C   UNL     1      33.591 -23.226 -16.805  0.00  0.00    +0.064 C 
ATOM      6  C   UNL     1      35.700 -23.002 -16.033  0.00  0.00    +0.131 C 
ATOM      7  C   UNL     1      34.867 -22.857 -17.173  0.00  0.00    +0.004 C 
ATOM      8  C   UNL     1      37.047 -22.804 -15.736  0.00  0.00    +0.110 C 
ATOM      9  C   UNL     1      36.599 -23.502 -13.578  0.00  0.00    +0.252 C 
ATOM     10  N   UNL     1      37.939 -22.341 -16.719  0.00  0.00    -0.346 N 
ATOM     11  H   UNL     1      38.889 -22.205 -16.497  0.00  0.00    +0.143 HD
ATOM     12  H   UNL     1      37.615 -22.153 -17.629  0.00  0.00    +0.143 HD
ENDROOT
BRANCH   1  14
ATOM     13  O   UNL     1      31.398 -24.427 -15.620  0.00  0.00    -0.334 OA
ATOM     14  C   UNL     1      32.455 -24.049 -14.717  0.00  0.00    +0.227 C 
ATOM     15  C   UNL     1      31.866 -22.993 -13.794  0.00  0.00    +0.187 C 
ATOM     16  C   UNL     1      30.433 -23.471 -13.664  0.00  0.00    +0.169 C 
ATOM     17  C   UNL     1      30.135 -23.989 -15.068  0.00  0.00    +0.157 C 
BRANCH  15  18
ATOM     18  O   UNL     1      32.545 -22.937 -12.555  0.00  0.00    -0.378 OA
ATOM     19  H   UNL     1      33.485 -22.754 -12.710  0.00  0.00    +0.211 HD
ENDBRANCH  15  18
BRANCH  16  20
ATOM     20  O   UNL     1      30.378 -24.566 -12.750  0.00  0.00    -0.379 OA
ATOM     21  H   UNL     1      31.274 -24.779 -12.446  0.00  0.00    +0.211 HD
ENDBRANCH  16  20
BRANCH  17  22
ATOM     22  C   UNL     1      29.557 -22.919 -15.984  0.00  0.00    +0.090 C 
BRANCH  22  23
ATOM     23  S   UNL     1      28.180 -23.591 -16.950  0.00  0.00    -0.137 S 
ATOM     24  C   UNL     1      27.103 -22.139 -16.925  0.00  0.00    +0.069 C 
ENDBRANCH  22  23
ENDBRANCH  17  22
ENDBRANCH   1  14
TORSDOF 5
ENDMDL
MODEL 6
REMARK VINA RESULT:      -7.8      8.010     10.373
REMARK  Name = 188350
REMARK  5 active torsions:
REMARK  status: ('A' for Active; 'I' for Inactive)
REMARK    1  A    between atoms: N_1  and  C_11
REMARK    2  A    between atoms: C_12  and  O_15
REMARK    3  A    between atoms: C_13  and  O_17
REMARK    4  A    between atoms: C_14  and  C_19
REMARK    5  A    between atoms: C_19  and  S_20
REMARK                            x       y       z     vdW  Elec       q    Type
REMARK                         _______ _______ _______ _____ _____    ______ ____
ROOT
ATOM      1  N   UNL     1      34.634 -23.488 -14.600  0.00  0.00    -0.250 N 
ATOM      2  N   UNL     1      32.655 -23.511 -13.221  0.00  0.00    -0.233 NA
ATOM      3  N   UNL     1      30.597 -23.277 -14.498  0.00  0.00    -0.234 NA
ATOM      4  C   UNL     1      33.275 -23.431 -14.411  0.00  0.00    +0.122 C 
ATOM      5  C   UNL     1      34.906 -23.375 -15.943  0.00  0.00    +0.064 C 
ATOM      6  C   UNL     1      32.671 -23.281 -15.652  0.00  0.00    +0.131 C 
ATOM      7  C   UNL     1      33.710 -23.245 -16.617  0.00  0.00    +0.004 C 
ATOM      8  C   UNL     1      31.279 -23.203 -15.665  0.00  0.00    +0.110 C 
ATOM      9  C   UNL     1      31.317 -23.424 -13.365  0.00  0.00    +0.252 C 
ATOM     10  N   UNL     1      30.579 -23.050 -16.875  0.00  0.00    -0.346 N 
ATOM     11  H   UNL     1      29.596 -22.997 -16.872  0.00  0.00    +0.143 HD
ATOM     12  H   UNL     1      31.072 -22.997 -17.726  0.00  0.00    +0.143 HD
ENDROOT
BRANCH   1  14
ATOM     13  O   UNL     1      36.957 -23.509 -14.120  0.00  0.00    -0.334 OA
ATOM     14  C   UNL     1      35.640 -23.642 -13.552  0.00  0.00    +0.227 C 
ATOM     15  C   UNL     1      35.612 -24.997 -12.861  0.00  0.00    +0.187 C 
ATOM     16  C   UNL     1      37.038 -25.108 -12.359  0.00  0.00    +0.169 C 
ATOM     17  C   UNL     1      37.834 -24.476 -13.496  0.00  0.00    +0.157 C 
BRANCH  15  18
ATOM     18  O   UNL     1      34.654 -25.038 -11.822  0.00  0.00    -0.378 OA
ATOM     19  H   UNL     1      34.557 -25.951 -11.508  0.00  0.00    +0.211 HD
ENDBRANCH  15  18
BRANCH  16  20
ATOM     20  O   UNL     1      37.194 -24.307 -11.187  0.00  0.00    -0.379 OA
ATOM     21  H   UNL     1      37.476 -23.414 -11.442  0.00  0.00    +0.211 HD
ENDBRANCH  16  20
BRANCH  17  22
ATOM     22  C   UNL     1      38.264 -25.484 -14.551  0.00  0.00    +0.090 C 
BRANCH  22  23
ATOM     23  S   UNL     1      39.973 -25.171 -15.065  0.00  0.00    -0.137 S 
ATOM     24  C   UNL     1      40.772 -26.526 -14.175  0.00  0.00    +0.069 C 
ENDBRANCH  22  23
ENDBRANCH  17  22
ENDBRANCH   1  14
TORSDOF 5
ENDMDL
MODEL 7
REMARK VINA RESULT:      -7.8      4.458      6.928
REMARK  Name = 188350
REMARK  5 active torsions:
REMARK  status: ('A' for Active; 'I' for Inactive)
REMARK    1  A    between atoms: N_1  and  C_11
REMARK    2  A    between atoms: C_12  and  O_15
REMARK    3  A    between atoms: C_13  and  O_17
REMARK    4  A    between atoms: C_14  and  C_19
REMARK    5  A    between atoms: C_19  and  S_20
REMARK                            x       y       z     vdW  Elec       q    Type
REMARK                         _______ _______ _______ _____ _____    ______ ____
ROOT
ATOM      1  N   UNL     1      34.652 -21.775 -18.892  0.00  0.00    -0.250 N 
ATOM      2  N   UNL     1      36.667 -20.666 -19.617  0.00  0.00    -0.233 NA
ATOM      3  N   UNL     1      36.266 -18.970 -21.317  0.00  0.00    -0.234 NA
ATOM      4  C   UNL     1      35.338 -20.862 -19.654  0.00  0.00    +0.122 C 
ATOM      5  C   UNL     1      33.312 -21.698 -19.193  0.00  0.00    +0.064 C 
ATOM      6  C   UNL     1      34.422 -20.191 -20.454  0.00  0.00    +0.131 C 
ATOM      7  C   UNL     1      33.142 -20.726 -20.157  0.00  0.00    +0.004 C 
ATOM      8  C   UNL     1      34.934 -19.214 -21.307  0.00  0.00    +0.110 C 
ATOM      9  C   UNL     1      37.038 -19.701 -20.483  0.00  0.00    +0.252 C 
ATOM     10  N   UNL     1      34.084 -18.482 -22.154  0.00  0.00    -0.346 N 
ATOM     11  H   UNL     1      34.457 -17.795 -22.752  0.00  0.00    +0.143 HD
ATOM     12  H   UNL     1      33.115 -18.657 -22.149  0.00  0.00    +0.143 HD
ENDROOT
BRANCH   1  14
ATOM     13  O   UNL     1      34.221 -23.572 -17.405  0.00  0.00    -0.334 OA
ATOM     14  C   UNL     1      35.238 -22.689 -17.914  0.00  0.00    +0.227 C 
ATOM     15  C   UNL     1      35.842 -21.996 -16.703  0.00  0.00    +0.187 C 
ATOM     16  C   UNL     1      35.766 -23.093 -15.659  0.00  0.00    +0.169 C 
ATOM     17  C   UNL     1      34.435 -23.763 -15.987  0.00  0.00    +0.157 C 
BRANCH  15  18
ATOM     18  O   UNL     1      37.163 -21.558 -16.950  0.00  0.00    -0.378 OA
ATOM     19  H   UNL     1      37.702 -22.309 -17.246  0.00  0.00    +0.211 HD
ENDBRANCH  15  18
BRANCH  16  20
ATOM     20  O   UNL     1      36.819 -24.032 -15.878  0.00  0.00    -0.379 OA
ATOM     21  H   UNL     1      37.453 -23.983 -15.145  0.00  0.00    +0.211 HD
ENDBRANCH  16  20
BRANCH  17  22
ATOM     22  C   UNL     1      33.261 -23.148 -15.238  0.00  0.00    +0.090 C 
BRANCH  22  23
ATOM     23  S   UNL     1      31.726 -23.377 -16.172  0.00  0.00    -0.137 S 
ATOM     24  C   UNL     1      30.558 -22.844 -14.900  0.00  0.00    +0.069 C 
ENDBRANCH  22  23
ENDBRANCH  17  22
ENDBRANCH   1  14
TORSDOF 5
ENDMDL
MODEL 8
REMARK VINA RESULT:      -7.7      6.646      8.675
REMARK  Name = 188350
REMARK  5 active torsions:
REMARK  status: ('A' for Active; 'I' for Inactive)
REMARK    1  A    between atoms: N_1  and  C_11
REMARK    2  A    between atoms: C_12  and  O_15
REMARK    3  A    between atoms: C_13  and  O_17
REMARK    4  A    between atoms: C_14  and  C_19
REMARK    5  A    between atoms: C_19  and  S_20
REMARK                            x       y       z     vdW  Elec       q    Type
REMARK                         _______ _______ _______ _____ _____    ______ ____
ROOT
ATOM      1  N   UNL     1      33.938 -23.670 -15.571  0.00  0.00    -0.250 N 
ATOM      2  N   UNL     1      32.303 -23.768 -13.801  0.00  0.00    -0.233 NA
ATOM      3  N   UNL     1      30.047 -23.251 -14.554  0.00  0.00    -0.234 NA
ATOM      4  C   UNL     1      32.661 -23.564 -15.081  0.00  0.00    +0.122 C 
ATOM      5  C   UNL     1      33.928 -23.394 -16.918  0.00  0.00    +0.064 C 
ATOM      6  C   UNL     1      31.821 -23.216 -16.131  0.00  0.00    +0.131 C 
ATOM      7  C   UNL     1      32.631 -23.109 -17.290  0.00  0.00    +0.004 C 
ATOM      8  C   UNL     1      30.469 -23.060 -15.826  0.00  0.00    +0.110 C 
ATOM      9  C   UNL     1      30.977 -23.588 -13.634  0.00  0.00    +0.252 C 
ATOM     10  N   UNL     1      29.544 -22.709 -16.825  0.00  0.00    -0.346 N 
ATOM     11  H   UNL     1      28.592 -22.602 -16.598  0.00  0.00    +0.143 HD
ATOM     12  H   UNL     1      29.848 -22.570 -17.751  0.00  0.00    +0.143 HD
ENDROOT
BRANCH   1  14
ATOM     13  O   UNL     1      36.020 -22.889 -14.744  0.00  0.00    -0.334 OA
ATOM     14  C   UNL     1      35.128 -24.018 -14.798  0.00  0.00    +0.227 C 
ATOM     15  C   UNL     1      35.934 -25.167 -15.384  0.00  0.00    +0.187 C 
ATOM     16  C   UNL     1      37.313 -24.887 -14.821  0.00  0.00    +0.169 C 
ATOM     17  C   UNL     1      37.381 -23.363 -14.871  0.00  0.00    +0.157 C 
BRANCH  15  18
ATOM     18  O   UNL     1      35.421 -26.425 -14.992  0.00  0.00    -0.378 OA
ATOM     19  H   UNL     1      34.598 -26.297 -14.495  0.00  0.00    +0.211 HD
ENDBRANCH  15  18
BRANCH  16  20
ATOM     20  O   UNL     1      37.363 -25.305 -13.456  0.00  0.00    -0.379 OA
ATOM     21  H   UNL     1      38.258 -25.615 -13.247  0.00  0.00    +0.211 HD
ENDBRANCH  16  20
BRANCH  17  22
ATOM     22  C   UNL     1      37.952 -22.838 -16.180  0.00  0.00    +0.090 C 
BRANCH  22  23
ATOM     23  S   UNL     1      37.123 -21.299 -16.658  0.00  0.00    -0.137 S 
ATOM     24  C   UNL     1      36.700 -21.741 -18.358  0.00  0.00    +0.069 C 
ENDBRANCH  22  23
ENDBRANCH  17  22
ENDBRANCH   1  14
TORSDOF 5
ENDMDL
MODEL 9
REMARK VINA RESULT:      -7.6      7.625     10.172
REMARK  Name = 188350
REMARK  5 active torsions:
REMARK  status: ('A' for Active; 'I' for Inactive)
REMARK    1  A    between atoms: N_1  and  C_11
REMARK    2  A    between atoms: C_12  and  O_15
REMARK    3  A    between atoms: C_13  and  O_17
REMARK    4  A    between atoms: C_14  and  C_19
REMARK    5  A    between atoms: C_19  and  S_20
REMARK                            x       y       z     vdW  Elec       q    Type
REMARK                         _______ _______ _______ _____ _____    ______ ____
ROOT
ATOM      1  N   UNL     1      35.617 -23.180 -14.713  0.00  0.00    -0.250 N 
ATOM      2  N   UNL     1      33.244 -23.518 -14.443  0.00  0.00    -0.233 NA
ATOM      3  N   UNL     1      32.001 -23.271 -16.521  0.00  0.00    -0.234 NA
ATOM      4  C   UNL     1      34.330 -23.245 -15.187  0.00  0.00    +0.122 C 
ATOM      5  C   UNL     1      36.465 -22.879 -15.753  0.00  0.00    +0.064 C 
ATOM      6  C   UNL     1      34.357 -22.982 -16.551  0.00  0.00    +0.131 C 
ATOM      7  C   UNL     1      35.712 -22.751 -16.901  0.00  0.00    +0.004 C 
ATOM      8  C   UNL     1      33.132 -23.002 -17.216  0.00  0.00    +0.110 C 
ATOM      9  C   UNL     1      32.126 -23.509 -15.197  0.00  0.00    +0.252 C 
ATOM     10  N   UNL     1      33.060 -22.748 -18.597  0.00  0.00    -0.346 N 
ATOM     11  H   UNL     1      32.190 -22.766 -19.056  0.00  0.00    +0.143 HD
ATOM     12  H   UNL     1      33.881 -22.553 -19.105  0.00  0.00    +0.143 HD
ENDROOT
BRANCH   1  14
ATOM     13  O   UNL     1      37.471 -23.379 -13.246  0.00  0.00    -0.334 OA
ATOM     14  C   UNL     1      36.033 -23.394 -13.329  0.00  0.00    +0.227 C 
ATOM     15  C   UNL     1      35.589 -24.727 -12.747  0.00  0.00    +0.187 C 
ATOM     16  C   UNL     1      36.626 -24.943 -11.663  0.00  0.00    +0.169 C 
ATOM     17  C   UNL     1      37.895 -24.400 -12.313  0.00  0.00    +0.157 C 
BRANCH  15  18
ATOM     18  O   UNL     1      34.268 -24.670 -12.246  0.00  0.00    -0.378 OA
ATOM     19  H   UNL     1      34.099 -25.448 -11.692  0.00  0.00    +0.211 HD
ENDBRANCH  15  18
BRANCH  16  20
ATOM     20  O   UNL     1      36.307 -24.133 -10.531  0.00  0.00    -0.379 OA
ATOM     21  H   UNL     1      37.074 -23.585 -10.300  0.00  0.00    +0.211 HD
ENDBRANCH  16  20
BRANCH  17  22
ATOM     22  C   UNL     1      38.668 -25.462 -13.083  0.00  0.00    +0.090 C 
BRANCH  22  23
ATOM     23  S   UNL     1      39.208 -24.812 -14.685  0.00  0.00    -0.137 S 
ATOM     24  C   UNL     1      40.561 -25.969 -15.000  0.00  0.00    +0.069 C 
ENDBRANCH  22  23
ENDBRANCH  17  22
ENDBRANCH   1  14
TORSDOF 5
ENDMDL
