MODEL 1
REMARK VINA RESULT:      -7.3      0.000      0.000
REMARK  Name = 33791
REMARK  0 active torsions:
REMARK  status: ('A' for Active; 'I' for Inactive)
REMARK                            x       y       z     vdW  Elec       q    Type
REMARK                         _______ _______ _______ _____ _____    ______ ____
ROOT
ATOM      1 CL   UNL     1      32.135 -12.737 -23.092  0.00  0.00    -0.082 Cl
ATOM      2 CL   UNL     1      35.538 -18.019 -23.103  0.00  0.00    -0.081 Cl
ATOM      3 CL   UNL     1      33.122 -13.982 -20.332  0.00  0.00    -0.080 Cl
ATOM      4 CL   UNL     1      34.829 -16.628 -20.347  0.00  0.00    -0.080 Cl
ATOM      5  O   UNL     1      33.688 -15.507 -26.380  0.00  0.00    -0.440 OA
ATOM      6  O   UNL     1      34.936 -17.398 -25.987  0.00  0.00    -0.245 OA
ATOM      7  C   UNL     1      33.396 -14.819 -24.225  0.00  0.00    +0.040 A 
ATOM      8  C   UNL     1      34.143 -15.978 -24.219  0.00  0.00    +0.087 A 
ATOM      9  C   UNL     1      33.062 -14.449 -25.611  0.00  0.00    +0.236 C 
ATOM     10  C   UNL     1      33.072 -14.188 -23.038  0.00  0.00    +0.069 A 
ATOM     11  C   UNL     1      34.602 -16.565 -23.054  0.00  0.00    +0.075 A 
ATOM     12  C   UNL     1      34.333 -16.422 -25.590  0.00  0.00    +0.342 C 
ATOM     13  C   UNL     1      33.519 -14.756 -21.842  0.00  0.00    +0.079 A 
ATOM     14  C   UNL     1      34.281 -15.938 -21.850  0.00  0.00    +0.080 A 
ENDROOT
TORSDOF 0
ENDMDL
MODEL 2
REMARK VINA RESULT:      -7.3      2.723      3.897
REMARK  Name = 33791
REMARK  0 active torsions:
REMARK  status: ('A' for Active; 'I' for Inactive)
REMARK                            x       y       z     vdW  Elec       q    Type
REMARK                         _______ _______ _______ _____ _____    ______ ____
ROOT
ATOM      1 CL   UNL     1      33.043 -12.951 -22.838  0.00  0.00    -0.082 Cl
ATOM      2 CL   UNL     1      35.327 -18.773 -23.448  0.00  0.00    -0.081 Cl
ATOM      3 CL   UNL     1      32.985 -14.377 -25.684  0.00  0.00    -0.080 Cl
ATOM      4 CL   UNL     1      34.129 -17.296 -25.981  0.00  0.00    -0.080 Cl
ATOM      5  O   UNL     1      34.957 -15.931 -19.947  0.00  0.00    -0.440 OA
ATOM      6  O   UNL     1      35.687 -18.026 -20.554  0.00  0.00    -0.245 OA
ATOM      7  C   UNL     1      34.190 -15.220 -21.974  0.00  0.00    +0.040 A 
ATOM      8  C   UNL     1      34.690 -16.498 -22.117  0.00  0.00    +0.087 A 
ATOM      9  C   UNL     1      34.332 -14.783 -20.574  0.00  0.00    +0.236 C 
ATOM     10  C   UNL     1      33.659 -14.550 -23.061  0.00  0.00    +0.069 A 
ATOM     11  C   UNL     1      34.690 -17.170 -23.325  0.00  0.00    +0.075 A 
ATOM     12  C   UNL     1      35.180 -16.957 -20.827  0.00  0.00    +0.342 C 
ATOM     13  C   UNL     1      33.645 -15.201 -24.298  0.00  0.00    +0.079 A 
ATOM     14  C   UNL     1      34.157 -16.503 -24.429  0.00  0.00    +0.080 A 
ENDROOT
TORSDOF 0
ENDMDL
MODEL 3
REMARK VINA RESULT:      -7.3      1.189      3.391
REMARK  Name = 33791
REMARK  0 active torsions:
REMARK  status: ('A' for Active; 'I' for Inactive)
REMARK                            x       y       z     vdW  Elec       q    Type
REMARK                         _______ _______ _______ _____ _____    ______ ____
ROOT
ATOM      1 CL   UNL     1      35.229 -19.189 -23.657  0.00  0.00    -0.082 Cl
ATOM      2 CL   UNL     1      33.461 -13.215 -22.840  0.00  0.00    -0.081 Cl
ATOM      3 CL   UNL     1      35.524 -17.835 -20.790  0.00  0.00    -0.080 Cl
ATOM      4 CL   UNL     1      34.633 -14.842 -20.388  0.00  0.00    -0.080 Cl
ATOM      5  O   UNL     1      33.467 -15.994 -26.411  0.00  0.00    -0.440 OA
ATOM      6  O   UNL     1      32.933 -13.861 -25.733  0.00  0.00    -0.245 OA
ATOM      7  C   UNL     1      34.245 -16.813 -24.430  0.00  0.00    +0.040 A 
ATOM      8  C   UNL     1      33.860 -15.501 -24.242  0.00  0.00    +0.087 A 
ATOM      9  C   UNL     1      34.014 -17.204 -25.831  0.00  0.00    +0.236 C 
ATOM     10  C   UNL     1      34.759 -17.549 -23.378  0.00  0.00    +0.069 A 
ATOM     11  C   UNL     1      33.961 -14.860 -23.021  0.00  0.00    +0.075 A 
ATOM     12  C   UNL     1      33.362 -14.974 -25.502  0.00  0.00    +0.342 C 
ATOM     13  C   UNL     1      34.876 -16.930 -22.131  0.00  0.00    +0.079 A 
ATOM     14  C   UNL     1      34.479 -15.593 -21.953  0.00  0.00    +0.080 A 
ENDROOT
TORSDOF 0
ENDMDL
MODEL 4
REMARK VINA RESULT:      -7.2      0.989      3.248
REMARK  Name = 33791
REMARK  0 active torsions:
REMARK  status: ('A' for Active; 'I' for Inactive)
REMARK                            x       y       z     vdW  Elec       q    Type
REMARK                         _______ _______ _______ _____ _____    ______ ____
ROOT
ATOM      1 CL   UNL     1      35.626 -18.127 -21.542  0.00  0.00    -0.082 Cl
ATOM      2 CL   UNL     1      32.579 -13.475 -24.467  0.00  0.00    -0.081 Cl
ATOM      3 CL   UNL     1      34.460 -15.695 -19.848  0.00  0.00    -0.080 Cl
ATOM      4 CL   UNL     1      32.932 -13.370 -21.322  0.00  0.00    -0.080 Cl
ATOM      5  O   UNL     1      34.572 -17.274 -25.908  0.00  0.00    -0.440 OA
ATOM      6  O   UNL     1      33.413 -15.416 -26.613  0.00  0.00    -0.245 OA
ATOM      7  C   UNL     1      34.613 -16.839 -23.669  0.00  0.00    +0.040 A 
ATOM      8  C   UNL     1      33.942 -15.813 -24.303  0.00  0.00    +0.087 A 
ATOM      9  C   UNL     1      35.054 -17.835 -24.661  0.00  0.00    +0.236 C 
ATOM     10  C   UNL     1      34.781 -16.822 -22.296  0.00  0.00    +0.069 A 
ATOM     11  C   UNL     1      33.412 -14.733 -23.622  0.00  0.00    +0.075 A 
ATOM     12  C   UNL     1      33.913 -16.085 -25.731  0.00  0.00    +0.342 C 
ATOM     13  C   UNL     1      34.258 -15.743 -21.578  0.00  0.00    +0.079 A 
ATOM     14  C   UNL     1      33.577 -14.705 -22.237  0.00  0.00    +0.080 A 
ENDROOT
TORSDOF 0
ENDMDL
MODEL 5
REMARK VINA RESULT:      -7.1      2.092      3.618
REMARK  Name = 33791
REMARK  0 active torsions:
REMARK  status: ('A' for Active; 'I' for Inactive)
REMARK                            x       y       z     vdW  Elec       q    Type
REMARK                         _______ _______ _______ _____ _____    ______ ____
ROOT
ATOM      1 CL   UNL     1      32.810 -13.808 -20.397  0.00  0.00    -0.082 Cl
ATOM      2 CL   UNL     1      34.911 -17.018 -25.373  0.00  0.00    -0.081 Cl
ATOM      3 CL   UNL     1      32.001 -12.874 -23.332  0.00  0.00    -0.080 Cl
ATOM      4 CL   UNL     1      33.056 -14.490 -25.820  0.00  0.00    -0.080 Cl
ATOM      5  O   UNL     1      35.468 -17.492 -20.908  0.00  0.00    -0.440 OA
ATOM      6  O   UNL     1      36.031 -18.401 -22.945  0.00  0.00    -0.245 OA
ATOM      7  C   UNL     1      34.174 -15.761 -21.636  0.00  0.00    +0.040 A 
ATOM      8  C   UNL     1      34.631 -16.460 -22.734  0.00  0.00    +0.087 A 
ATOM      9  C   UNL     1      34.683 -16.383 -20.402  0.00  0.00    +0.236 C 
ATOM     10  C   UNL     1      33.361 -14.654 -21.799  0.00  0.00    +0.069 A 
ATOM     11  C   UNL     1      34.312 -16.105 -24.032  0.00  0.00    +0.075 A 
ATOM     12  C   UNL     1      35.456 -17.566 -22.276  0.00  0.00    +0.342 C 
ATOM     13  C   UNL     1      33.021 -14.267 -23.099  0.00  0.00    +0.079 A 
ATOM     14  C   UNL     1      33.493 -14.989 -24.209  0.00  0.00    +0.080 A 
ENDROOT
TORSDOF 0
ENDMDL
MODEL 6
REMARK VINA RESULT:      -7.1      1.183      2.084
REMARK  Name = 33791
REMARK  0 active torsions:
REMARK  status: ('A' for Active; 'I' for Inactive)
REMARK                            x       y       z     vdW  Elec       q    Type
REMARK                         _______ _______ _______ _____ _____    ______ ____
ROOT
ATOM      1 CL   UNL     1      33.285 -13.805 -20.930  0.00  0.00    -0.082 Cl
ATOM      2 CL   UNL     1      34.847 -17.725 -25.586  0.00  0.00    -0.081 Cl
ATOM      3 CL   UNL     1      34.901 -16.469 -20.273  0.00  0.00    -0.080 Cl
ATOM      4 CL   UNL     1      35.683 -18.427 -22.613  0.00  0.00    -0.080 Cl
ATOM      5  O   UNL     1      32.611 -13.794 -25.451  0.00  0.00    -0.440 OA
ATOM      6  O   UNL     1      33.352 -15.448 -26.868  0.00  0.00    -0.245 OA
ATOM      7  C   UNL     1      33.387 -14.639 -23.480  0.00  0.00    +0.040 A 
ATOM      8  C   UNL     1      33.734 -15.506 -24.497  0.00  0.00    +0.087 A 
ATOM      9  C   UNL     1      32.648 -13.492 -24.034  0.00  0.00    +0.236 C 
ATOM     10  C   UNL     1      33.739 -14.918 -22.172  0.00  0.00    +0.069 A 
ATOM     11  C   UNL     1      34.436 -16.675 -24.275  0.00  0.00    +0.075 A 
ATOM     12  C   UNL     1      33.242 -14.971 -25.756  0.00  0.00    +0.342 C 
ATOM     13  C   UNL     1      34.449 -16.093 -21.913  0.00  0.00    +0.079 A 
ATOM     14  C   UNL     1      34.796 -16.967 -22.958  0.00  0.00    +0.080 A 
ENDROOT
TORSDOF 0
ENDMDL
MODEL 7
REMARK VINA RESULT:      -7.0      2.632      4.635
REMARK  Name = 33791
REMARK  0 active torsions:
REMARK  status: ('A' for Active; 'I' for Inactive)
REMARK                            x       y       z     vdW  Elec       q    Type
REMARK                         _______ _______ _______ _____ _____    ______ ____
ROOT
ATOM      1 CL   UNL     1      34.726 -17.741 -25.636  0.00  0.00    -0.082 Cl
ATOM      2 CL   UNL     1      33.360 -13.768 -20.964  0.00  0.00    -0.081 Cl
ATOM      3 CL   UNL     1      33.070 -15.092 -26.253  0.00  0.00    -0.080 Cl
ATOM      4 CL   UNL     1      32.393 -13.104 -23.906  0.00  0.00    -0.080 Cl
ATOM      5  O   UNL     1      35.587 -17.703 -21.146  0.00  0.00    -0.440 OA
ATOM      6  O   UNL     1      34.908 -16.031 -19.719  0.00  0.00    -0.245 OA
ATOM      7  C   UNL     1      34.729 -16.879 -23.093  0.00  0.00    +0.040 A 
ATOM      8  C   UNL     1      34.425 -16.001 -22.073  0.00  0.00    +0.087 A 
ATOM      9  C   UNL     1      35.493 -18.020 -22.558  0.00  0.00    +0.236 C 
ATOM     10  C   UNL     1      34.323 -16.616 -24.388  0.00  0.00    +0.069 A 
ATOM     11  C   UNL     1      33.712 -14.835 -22.278  0.00  0.00    +0.075 A 
ATOM     12  C   UNL     1      34.970 -16.521 -20.829  0.00  0.00    +0.342 C 
ATOM     13  C   UNL     1      33.599 -15.445 -24.630  0.00  0.00    +0.079 A 
ATOM     14  C   UNL     1      33.296 -14.559 -23.581  0.00  0.00    +0.080 A 
ENDROOT
TORSDOF 0
ENDMDL
MODEL 8
REMARK VINA RESULT:      -6.9     11.077     12.783
REMARK  Name = 33791
REMARK  0 active torsions:
REMARK  status: ('A' for Active; 'I' for Inactive)
REMARK                            x       y       z     vdW  Elec       q    Type
REMARK                         _______ _______ _______ _____ _____    ______ ____
ROOT
ATOM      1 CL   UNL     1      37.550 -22.398 -16.503  0.00  0.00    -0.082 Cl
ATOM      2 CL   UNL     1      32.387 -24.526 -13.623  0.00  0.00    -0.081 Cl
ATOM      3 CL   UNL     1      34.762 -22.371 -18.041  0.00  0.00    -0.080 Cl
ATOM      4 CL   UNL     1      32.179 -23.437 -16.589  0.00  0.00    -0.080 Cl
ATOM      5  O   UNL     1      36.717 -24.150 -12.363  0.00  0.00    -0.440 OA
ATOM      6  O   UNL     1      34.639 -24.834 -11.649  0.00  0.00    -0.245 OA
ATOM      7  C   UNL     1      36.160 -23.456 -14.463  0.00  0.00    +0.040 A 
ATOM      8  C   UNL     1      35.021 -23.922 -13.838  0.00  0.00    +0.087 A 
ATOM      9  C   UNL     1      37.312 -23.575 -13.553  0.00  0.00    +0.236 C 
ATOM     10  C   UNL     1      36.101 -22.973 -15.758  0.00  0.00    +0.069 A 
ATOM     11  C   UNL     1      33.783 -23.933 -14.453  0.00  0.00    +0.075 A 
ATOM     12  C   UNL     1      35.370 -24.365 -12.498  0.00  0.00    +0.342 C 
ATOM     13  C   UNL     1      34.864 -22.971 -16.408  0.00  0.00    +0.079 A 
ATOM     14  C   UNL     1      33.711 -23.449 -15.760  0.00  0.00    +0.080 A 
ENDROOT
TORSDOF 0
ENDMDL
MODEL 9
REMARK VINA RESULT:      -6.9     10.436     12.047
REMARK  Name = 33791
REMARK  0 active torsions:
REMARK  status: ('A' for Active; 'I' for Inactive)
REMARK                            x       y       z     vdW  Elec       q    Type
REMARK                         _______ _______ _______ _____ _____    ______ ____
ROOT
ATOM      1 CL   UNL     1      34.285 -22.425 -18.177  0.00  0.00    -0.082 Cl
ATOM      2 CL   UNL     1      35.074 -24.471 -12.288  0.00  0.00    -0.081 Cl
ATOM      3 CL   UNL     1      31.787 -23.542 -16.548  0.00  0.00    -0.080 Cl
ATOM      4 CL   UNL     1      32.191 -24.563 -13.596  0.00  0.00    -0.080 Cl
ATOM      5  O   UNL     1      37.890 -22.750 -15.384  0.00  0.00    -0.440 OA
ATOM      6  O   UNL     1      37.786 -23.572 -13.237  0.00  0.00    -0.245 OA
ATOM      7  C   UNL     1      35.694 -22.975 -15.957  0.00  0.00    +0.040 A 
ATOM      8  C   UNL     1      35.858 -23.426 -14.664  0.00  0.00    +0.087 A 
ATOM      9  C   UNL     1      36.987 -22.515 -16.493  0.00  0.00    +0.236 C 
ATOM     10  C   UNL     1      34.447 -23.001 -16.555  0.00  0.00    +0.069 A 
ATOM     11  C   UNL     1      34.812 -23.920 -13.906  0.00  0.00    +0.075 A 
ATOM     12  C   UNL     1      37.257 -23.285 -14.292  0.00  0.00    +0.342 C 
ATOM     13  C   UNL     1      33.368 -23.495 -15.817  0.00  0.00    +0.079 A 
ATOM     14  C   UNL     1      33.550 -23.952 -14.499  0.00  0.00    +0.080 A 
ENDROOT
TORSDOF 0
ENDMDL
