MODEL 1
REMARK VINA RESULT:     -11.1      0.000      0.000
REMARK  Name = 25138203
REMARK  4 active torsions:
REMARK  status: ('A' for Active; 'I' for Inactive)
REMARK    1  A    between atoms: N_1  and  C_11
REMARK    2  A    between atoms: C_5  and  C_22
REMARK    3  A    between atoms: C_9  and  N_16
REMARK    4  A    between atoms: N_16  and  S_18
REMARK                            x       y       z     vdW  Elec       q    Type
REMARK                         _______ _______ _______ _____ _____    ______ ____
ROOT
ATOM      1  N   UNL     1      34.133 -14.709 -23.724  0.00  0.00    -0.301 N 
ATOM      2  N   UNL     1      34.474 -16.600 -25.130  0.00  0.00    -0.234 NA
ATOM      3  N   UNL     1      34.683 -18.796 -24.159  0.00  0.00    -0.248 NA
ATOM      4  C   UNL     1      34.322 -16.104 -23.885  0.00  0.00    +0.112 C 
ATOM      5  C   UNL     1      34.524 -18.231 -22.943  0.00  0.00    +0.063 C 
ATOM      6  C   UNL     1      34.337 -16.879 -22.743  0.00  0.00    +0.106 C 
ATOM      7  C   UNL     1      34.648 -17.934 -25.193  0.00  0.00    +0.251 C 
ATOM      8  H   UNL     1      34.569 -14.166 -24.421  0.00  0.00    +0.153 HD
ENDROOT
BRANCH   1  11
ATOM      9  C   UNL     1      32.148 -11.999 -22.174  0.00  0.00    +0.062 C 
ATOM     10  C   UNL     1      32.079 -12.444 -20.854  0.00  0.00    -0.007 C 
ATOM     11  C   UNL     1      33.445 -13.951 -22.763  0.00  0.00    +0.050 C 
ATOM     12  C   UNL     1      32.831 -12.753 -23.129  0.00  0.00    +0.030 C 
ATOM     13  C   UNL     1      32.691 -13.644 -20.489  0.00  0.00    -0.002 C 
ATOM     14  C   UNL     1      33.375 -14.396 -21.443  0.00  0.00    +0.014 C 
ATOM     15  C   UNL     1      31.352 -11.658 -19.812  0.00  0.00    +0.032 C 
BRANCH   9  16
ATOM     16  N   UNL     1      31.527 -10.773 -22.567  0.00  0.00    -0.219 N 
ATOM     17  H   UNL     1      30.571 -10.742 -22.801  0.00  0.00    +0.173 HD
BRANCH  16  18
ATOM     18  S   UNL     1      32.497  -9.352 -22.621  0.00  0.00    +0.056 S 
ATOM     19  O   UNL     1      32.609  -8.824 -21.275  0.00  0.00    -0.154 OA
ATOM     20  O   UNL     1      33.680  -9.561 -23.432  0.00  0.00    -0.154 OA
ATOM     21  C   UNL     1      31.409  -8.262 -23.513  0.00  0.00    +0.200 C 
ENDBRANCH  16  18
ENDBRANCH   9  16
ENDBRANCH   1  11
BRANCH   5  22
ATOM     22  C   UNL     1      34.561 -19.154 -21.829  0.00  0.00    +0.014 C 
ATOM     23  C   UNL     1      33.371 -19.612 -21.264  0.00  0.00    +0.001 C 
ATOM     24  C   UNL     1      35.787 -19.587 -21.321  0.00  0.00    +0.001 C 
ATOM     25  C   UNL     1      33.406 -20.502 -20.189  0.00  0.00    +0.000 C 
ATOM     26  C   UNL     1      35.821 -20.476 -20.247  0.00  0.00    +0.000 C 
ATOM     27  C   UNL     1      34.632 -20.935 -19.682  0.00  0.00    +0.000 C 
ENDBRANCH   5  22
TORSDOF 4
ENDMDL
MODEL 2
REMARK VINA RESULT:     -11.0      5.691      8.813
REMARK  Name = 25138203
REMARK  4 active torsions:
REMARK  status: ('A' for Active; 'I' for Inactive)
REMARK    1  A    between atoms: N_1  and  C_11
REMARK    2  A    between atoms: C_5  and  C_22
REMARK    3  A    between atoms: C_9  and  N_16
REMARK    4  A    between atoms: N_16  and  S_18
REMARK                            x       y       z     vdW  Elec       q    Type
REMARK                         _______ _______ _______ _____ _____    ______ ____
ROOT
ATOM      1  N   UNL     1      32.831 -22.153 -18.896  0.00  0.00    -0.301 N 
ATOM      2  N   UNL     1      31.305 -22.739 -17.165  0.00  0.00    -0.234 NA
ATOM      3  N   UNL     1      32.130 -23.688 -15.109  0.00  0.00    -0.248 NA
ATOM      4  C   UNL     1      32.579 -22.675 -17.603  0.00  0.00    +0.112 C 
ATOM      5  C   UNL     1      33.379 -23.594 -15.611  0.00  0.00    +0.063 C 
ATOM      6  C   UNL     1      33.667 -23.092 -16.864  0.00  0.00    +0.106 C 
ATOM      7  C   UNL     1      31.155 -23.248 -15.926  0.00  0.00    +0.251 C 
ATOM      8  H   UNL     1      32.096 -22.303 -19.535  0.00  0.00    +0.153 HD
ENDROOT
BRANCH   1  11
ATOM      9  C   UNL     1      34.800 -19.758 -20.913  0.00  0.00    +0.062 C 
ATOM     10  C   UNL     1      36.099 -20.093 -20.528  0.00  0.00    -0.007 C 
ATOM     11  C   UNL     1      33.925 -21.463 -19.442  0.00  0.00    +0.050 C 
ATOM     12  C   UNL     1      33.713 -20.443 -20.370  0.00  0.00    +0.030 C 
ATOM     13  C   UNL     1      36.310 -21.112 -19.599  0.00  0.00    -0.002 C 
ATOM     14  C   UNL     1      35.223 -21.798 -19.058  0.00  0.00    +0.014 C 
ATOM     15  C   UNL     1      37.280 -19.373 -21.093  0.00  0.00    +0.032 C 
BRANCH   9  16
ATOM     16  N   UNL     1      34.564 -18.715 -21.863  0.00  0.00    -0.219 N 
ATOM     17  H   UNL     1      34.512 -18.911 -22.827  0.00  0.00    +0.173 HD
BRANCH  16  18
ATOM     18  S   UNL     1      34.373 -17.109 -21.275  0.00  0.00    +0.056 S 
ATOM     19  O   UNL     1      32.963 -16.876 -21.031  0.00  0.00    -0.154 OA
ATOM     20  O   UNL     1      35.358 -16.809 -20.255  0.00  0.00    -0.154 OA
ATOM     21  C   UNL     1      34.803 -16.187 -22.735  0.00  0.00    +0.200 C 
ENDBRANCH  16  18
ENDBRANCH   9  16
ENDBRANCH   1  11
BRANCH   5  22
ATOM     22  C   UNL     1      34.430 -24.066 -14.735  0.00  0.00    +0.014 C 
ATOM     23  C   UNL     1      34.260 -24.013 -13.352  0.00  0.00    +0.001 C 
ATOM     24  C   UNL     1      35.613 -24.575 -15.273  0.00  0.00    +0.001 C 
ATOM     25  C   UNL     1      35.272 -24.467 -12.505  0.00  0.00    +0.000 C 
ATOM     26  C   UNL     1      36.624 -25.030 -14.427  0.00  0.00    +0.000 C 
ATOM     27  C   UNL     1      36.454 -24.977 -13.044  0.00  0.00    +0.000 C 
ENDBRANCH   5  22
TORSDOF 4
ENDMDL
MODEL 3
REMARK VINA RESULT:     -10.7      1.804      2.566
REMARK  Name = 25138203
REMARK  4 active torsions:
REMARK  status: ('A' for Active; 'I' for Inactive)
REMARK    1  A    between atoms: N_1  and  C_11
REMARK    2  A    between atoms: C_5  and  C_22
REMARK    3  A    between atoms: C_9  and  N_16
REMARK    4  A    between atoms: N_16  and  S_18
REMARK                            x       y       z     vdW  Elec       q    Type
REMARK                         _______ _______ _______ _____ _____    ______ ____
ROOT
ATOM      1  N   UNL     1      32.965 -12.437 -24.176  0.00  0.00    -0.301 N 
ATOM      2  N   UNL     1      33.116 -14.027 -25.942  0.00  0.00    -0.234 NA
ATOM      3  N   UNL     1      33.894 -16.261 -25.482  0.00  0.00    -0.248 NA
ATOM      4  C   UNL     1      33.279 -13.741 -24.635  0.00  0.00    +0.112 C 
ATOM      5  C   UNL     1      34.033 -15.905 -24.188  0.00  0.00    +0.063 C 
ATOM      6  C   UNL     1      33.738 -14.648 -23.702  0.00  0.00    +0.106 C 
ATOM      7  C   UNL     1      33.438 -15.288 -26.292  0.00  0.00    +0.251 C 
ATOM      8  H   UNL     1      33.097 -11.736 -24.855  0.00  0.00    +0.153 HD
ENDROOT
BRANCH   1  11
ATOM      9  C   UNL     1      31.749 -10.116 -21.565  0.00  0.00    +0.062 C 
ATOM     10  C   UNL     1      31.583 -10.990 -20.491  0.00  0.00    -0.007 C 
ATOM     11  C   UNL     1      32.502 -11.953 -22.943  0.00  0.00    +0.050 C 
ATOM     12  C   UNL     1      32.208 -10.598 -22.791  0.00  0.00    +0.030 C 
ATOM     13  C   UNL     1      31.876 -12.346 -20.643  0.00  0.00    -0.002 C 
ATOM     14  C   UNL     1      32.336 -12.827 -21.868  0.00  0.00    +0.014 C 
ATOM     15  C   UNL     1      31.091 -10.501 -19.168  0.00  0.00    +0.032 C 
BRANCH   9  16
ATOM     16  N   UNL     1      31.453  -8.723 -21.429  0.00  0.00    -0.219 N 
ATOM     17  H   UNL     1      30.528  -8.394 -21.490  0.00  0.00    +0.173 HD
BRANCH  16  18
ATOM     18  S   UNL     1      32.762  -7.639 -21.156  0.00  0.00    +0.056 S 
ATOM     19  O   UNL     1      33.056  -7.627 -19.736  0.00  0.00    -0.154 OA
ATOM     20  O   UNL     1      33.819  -7.847 -22.126  0.00  0.00    -0.154 OA
ATOM     21  C   UNL     1      31.972  -6.091 -21.534  0.00  0.00    +0.200 C 
ENDBRANCH  16  18
ENDBRANCH   9  16
ENDBRANCH   1  11
BRANCH   5  22
ATOM     22  C   UNL     1      34.523 -16.949 -23.314  0.00  0.00    +0.014 C 
ATOM     23  C   UNL     1      34.703 -18.242 -23.806  0.00  0.00    +0.001 C 
ATOM     24  C   UNL     1      34.818 -16.664 -21.980  0.00  0.00    +0.001 C 
ATOM     25  C   UNL     1      35.177 -19.250 -22.965  0.00  0.00    +0.000 C 
ATOM     26  C   UNL     1      35.291 -17.671 -21.139  0.00  0.00    +0.000 C 
ATOM     27  C   UNL     1      35.471 -18.963 -21.631  0.00  0.00    +0.000 C 
ENDBRANCH   5  22
TORSDOF 4
ENDMDL
MODEL 4
REMARK VINA RESULT:     -10.1      2.461      4.225
REMARK  Name = 25138203
REMARK  4 active torsions:
REMARK  status: ('A' for Active; 'I' for Inactive)
REMARK    1  A    between atoms: N_1  and  C_11
REMARK    2  A    between atoms: C_5  and  C_22
REMARK    3  A    between atoms: C_9  and  N_16
REMARK    4  A    between atoms: N_16  and  S_18
REMARK                            x       y       z     vdW  Elec       q    Type
REMARK                         _______ _______ _______ _____ _____    ______ ____
ROOT
ATOM      1  N   UNL     1      33.682 -10.992 -25.110  0.00  0.00    -0.301 N 
ATOM      2  N   UNL     1      33.222 -13.019 -26.271  0.00  0.00    -0.234 NA
ATOM      3  N   UNL     1      33.535 -15.136 -25.162  0.00  0.00    -0.248 NA
ATOM      4  C   UNL     1      33.627 -12.408 -25.140  0.00  0.00    +0.112 C 
ATOM      5  C   UNL     1      33.931 -14.458 -24.063  0.00  0.00    +0.063 C 
ATOM      6  C   UNL     1      33.997 -13.082 -23.994  0.00  0.00    +0.106 C 
ATOM      7  C   UNL     1      33.200 -14.365 -26.213  0.00  0.00    +0.251 C 
ATOM      8  H   UNL     1      33.872 -10.584 -25.986  0.00  0.00    +0.153 HD
ENDROOT
BRANCH   1  11
ATOM      9  C   UNL     1      32.306  -9.274 -22.137  0.00  0.00    +0.062 C 
ATOM     10  C   UNL     1      33.193  -8.204 -22.016  0.00  0.00    -0.007 C 
ATOM     11  C   UNL     1      33.518 -10.059 -24.074  0.00  0.00    +0.050 C 
ATOM     12  C   UNL     1      32.469 -10.201 -23.166  0.00  0.00    +0.030 C 
ATOM     13  C   UNL     1      34.244  -8.063 -22.924  0.00  0.00    -0.002 C 
ATOM     14  C   UNL     1      34.406  -8.990 -23.952  0.00  0.00    +0.014 C 
ATOM     15  C   UNL     1      33.043  -7.198 -20.922  0.00  0.00    +0.032 C 
BRANCH   9  16
ATOM     16  N   UNL     1      31.223  -9.435 -21.217  0.00  0.00    -0.219 N 
ATOM     17  H   UNL     1      30.355  -9.001 -21.376  0.00  0.00    +0.173 HD
BRANCH  16  18
ATOM     18  S   UNL     1      31.482 -10.411 -19.823  0.00  0.00    +0.056 S 
ATOM     19  O   UNL     1      32.702  -9.967 -19.175  0.00  0.00    -0.154 OA
ATOM     20  O   UNL     1      30.257 -10.567 -19.063  0.00  0.00    -0.154 OA
ATOM     21  C   UNL     1      31.847 -11.972 -20.595  0.00  0.00    +0.200 C 
ENDBRANCH  16  18
ENDBRANCH   9  16
ENDBRANCH   1  11
BRANCH   5  22
ATOM     22  C   UNL     1      34.292 -15.283 -22.931  0.00  0.00    +0.014 C 
ATOM     23  C   UNL     1      34.121 -14.800 -21.634  0.00  0.00    +0.001 C 
ATOM     24  C   UNL     1      34.811 -16.562 -23.135  0.00  0.00    +0.001 C 
ATOM     25  C   UNL     1      34.469 -15.594 -20.541  0.00  0.00    +0.000 C 
ATOM     26  C   UNL     1      35.158 -17.357 -22.043  0.00  0.00    +0.000 C 
ATOM     27  C   UNL     1      34.987 -16.874 -20.746  0.00  0.00    +0.000 C 
ENDBRANCH   5  22
TORSDOF 4
ENDMDL
MODEL 5
REMARK VINA RESULT:      -9.9      2.333      3.465
REMARK  Name = 25138203
REMARK  4 active torsions:
REMARK  status: ('A' for Active; 'I' for Inactive)
REMARK    1  A    between atoms: N_1  and  C_11
REMARK    2  A    between atoms: C_5  and  C_22
REMARK    3  A    between atoms: C_9  and  N_16
REMARK    4  A    between atoms: N_16  and  S_18
REMARK                            x       y       z     vdW  Elec       q    Type
REMARK                         _______ _______ _______ _____ _____    ______ ____
ROOT
ATOM      1  N   UNL     1      33.303 -11.716 -24.851  0.00  0.00    -0.301 N 
ATOM      2  N   UNL     1      33.186 -13.632 -26.259  0.00  0.00    -0.234 NA
ATOM      3  N   UNL     1      33.755 -15.803 -25.381  0.00  0.00    -0.248 NA
ATOM      4  C   UNL     1      33.453 -13.111 -25.044  0.00  0.00    +0.112 C 
ATOM      5  C   UNL     1      34.005 -15.214 -24.192  0.00  0.00    +0.063 C 
ATOM      6  C   UNL     1      33.870 -13.861 -23.963  0.00  0.00    +0.106 C 
ATOM      7  C   UNL     1      33.355 -14.965 -26.355  0.00  0.00    +0.251 C 
ATOM      8  H   UNL     1      33.466 -11.183 -25.662  0.00  0.00    +0.153 HD
ENDROOT
BRANCH   1  11
ATOM      9  C   UNL     1      32.928  -8.820 -22.579  0.00  0.00    +0.062 C 
ATOM     10  C   UNL     1      32.294  -9.418 -21.490  0.00  0.00    -0.007 C 
ATOM     11  C   UNL     1      32.965 -10.946 -23.726  0.00  0.00    +0.050 C 
ATOM     12  C   UNL     1      33.263  -9.584 -23.697  0.00  0.00    +0.030 C 
ATOM     13  C   UNL     1      31.994 -10.781 -21.520  0.00  0.00    -0.002 C 
ATOM     14  C   UNL     1      32.330 -11.544 -22.637  0.00  0.00    +0.014 C 
ATOM     15  C   UNL     1      31.922  -8.622 -20.282  0.00  0.00    +0.032 C 
BRANCH   9  16
ATOM     16  N   UNL     1      33.243  -7.425 -22.568  0.00  0.00    -0.219 N 
ATOM     17  H   UNL     1      34.102  -7.103 -22.210  0.00  0.00    +0.173 HD
BRANCH  16  18
ATOM     18  S   UNL     1      32.078  -6.325 -23.197  0.00  0.00    +0.056 S 
ATOM     19  O   UNL     1      30.871  -7.066 -23.508  0.00  0.00    -0.154 OA
ATOM     20  O   UNL     1      32.017  -5.119 -22.394  0.00  0.00    -0.154 OA
ATOM     21  C   UNL     1      32.844  -5.909 -24.748  0.00  0.00    +0.200 C 
ENDBRANCH  16  18
ENDBRANCH   9  16
ENDBRANCH   1  11
BRANCH   5  22
ATOM     22  C   UNL     1      34.436 -16.112 -23.142  0.00  0.00    +0.014 C 
ATOM     23  C   UNL     1      34.872 -17.398 -23.460  0.00  0.00    +0.001 C 
ATOM     24  C   UNL     1      34.416 -15.692 -21.812  0.00  0.00    +0.001 C 
ATOM     25  C   UNL     1      35.287 -18.265 -22.449  0.00  0.00    +0.000 C 
ATOM     26  C   UNL     1      34.832 -16.558 -20.800  0.00  0.00    +0.000 C 
ATOM     27  C   UNL     1      35.268 -17.844 -21.118  0.00  0.00    +0.000 C 
ENDBRANCH   5  22
TORSDOF 4
ENDMDL
MODEL 6
REMARK VINA RESULT:      -9.8      3.871      8.810
REMARK  Name = 25138203
REMARK  4 active torsions:
REMARK  status: ('A' for Active; 'I' for Inactive)
REMARK    1  A    between atoms: N_1  and  C_11
REMARK    2  A    between atoms: C_5  and  C_22
REMARK    3  A    between atoms: C_9  and  N_16
REMARK    4  A    between atoms: N_16  and  S_18
REMARK                            x       y       z     vdW  Elec       q    Type
REMARK                         _______ _______ _______ _____ _____    ______ ____
ROOT
ATOM      1  N   UNL     1      33.988 -12.347 -24.332  0.00  0.00    -0.301 N 
ATOM      2  N   UNL     1      35.110 -10.461 -25.255  0.00  0.00    -0.234 NA
ATOM      3  N   UNL     1      34.615  -8.250 -24.434  0.00  0.00    -0.248 NA
ATOM      4  C   UNL     1      34.211 -10.949 -24.376  0.00  0.00    +0.112 C 
ATOM      5  C   UNL     1      33.731  -8.807 -23.579  0.00  0.00    +0.063 C 
ATOM      6  C   UNL     1      33.486 -10.162 -23.505  0.00  0.00    +0.106 C 
ATOM      7  C   UNL     1      35.260  -9.123 -25.231  0.00  0.00    +0.251 C 
ATOM      8  H   UNL     1      34.127 -12.799 -25.196  0.00  0.00    +0.153 HD
ENDROOT
BRANCH   1  11
ATOM      9  C   UNL     1      34.065 -15.126 -21.892  0.00  0.00    +0.062 C 
ATOM     10  C   UNL     1      32.849 -14.936 -21.235  0.00  0.00    -0.007 C 
ATOM     11  C   UNL     1      33.607 -13.214 -23.295  0.00  0.00    +0.050 C 
ATOM     12  C   UNL     1      34.444 -14.265 -22.922  0.00  0.00    +0.030 C 
ATOM     13  C   UNL     1      32.013 -13.883 -21.608  0.00  0.00    -0.002 C 
ATOM     14  C   UNL     1      32.391 -13.023 -22.638  0.00  0.00    +0.014 C 
ATOM     15  C   UNL     1      32.420 -15.842 -20.127  0.00  0.00    +0.032 C 
BRANCH   9  16
ATOM     16  N   UNL     1      34.936 -16.200 -21.524  0.00  0.00    -0.219 N 
ATOM     17  H   UNL     1      35.610 -16.084 -20.815  0.00  0.00    +0.173 HD
BRANCH  16  18
ATOM     18  S   UNL     1      34.773 -17.698 -22.354  0.00  0.00    +0.056 S 
ATOM     19  O   UNL     1      33.919 -18.567 -21.566  0.00  0.00    -0.154 OA
ATOM     20  O   UNL     1      34.508 -17.485 -23.764  0.00  0.00    -0.154 OA
ATOM     21  C   UNL     1      36.431 -18.326 -22.200  0.00  0.00    +0.200 C 
ENDBRANCH  16  18
ENDBRANCH   9  16
ENDBRANCH   1  11
BRANCH   5  22
ATOM     22  C   UNL     1      33.037  -7.872 -22.721  0.00  0.00    +0.014 C 
ATOM     23  C   UNL     1      32.863  -8.164 -21.369  0.00  0.00    +0.001 C 
ATOM     24  C   UNL     1      32.541  -6.677 -23.245  0.00  0.00    +0.001 C 
ATOM     25  C   UNL     1      32.193  -7.264 -20.539  0.00  0.00    +0.000 C 
ATOM     26  C   UNL     1      31.872  -5.777 -22.417  0.00  0.00    +0.000 C 
ATOM     27  C   UNL     1      31.698  -6.069 -21.064  0.00  0.00    +0.000 C 
ENDBRANCH   5  22
TORSDOF 4
ENDMDL
MODEL 7
REMARK VINA RESULT:      -9.5      3.355      5.711
REMARK  Name = 25138203
REMARK  4 active torsions:
REMARK  status: ('A' for Active; 'I' for Inactive)
REMARK    1  A    between atoms: N_1  and  C_11
REMARK    2  A    between atoms: C_5  and  C_22
REMARK    3  A    between atoms: C_9  and  N_16
REMARK    4  A    between atoms: N_16  and  S_18
REMARK                            x       y       z     vdW  Elec       q    Type
REMARK                         _______ _______ _______ _____ _____    ______ ____
ROOT
ATOM      1  N   UNL     1      31.684 -11.884 -20.413  0.00  0.00    -0.301 N 
ATOM      2  N   UNL     1      32.459 -14.128 -20.582  0.00  0.00    -0.234 NA
ATOM      3  N   UNL     1      33.162 -14.998 -22.717  0.00  0.00    -0.248 NA
ATOM      4  C   UNL     1      32.189 -12.955 -21.190  0.00  0.00    +0.112 C 
ATOM      5  C   UNL     1      32.871 -13.797 -23.259  0.00  0.00    +0.063 C 
ATOM      6  C   UNL     1      32.378 -12.729 -22.538  0.00  0.00    +0.106 C 
ATOM      7  C   UNL     1      32.936 -15.092 -21.393  0.00  0.00    +0.251 C 
ATOM      8  H   UNL     1      31.147 -12.173 -19.640  0.00  0.00    +0.153 HD
ENDROOT
BRANCH   1  11
ATOM      9  C   UNL     1      32.185  -8.530 -21.893  0.00  0.00    +0.062 C 
ATOM     10  C   UNL     1      32.033  -7.719 -20.768  0.00  0.00    -0.007 C 
ATOM     11  C   UNL     1      31.800 -10.489 -20.532  0.00  0.00    +0.050 C 
ATOM     12  C   UNL     1      32.069  -9.915 -21.775  0.00  0.00    +0.030 C 
ATOM     13  C   UNL     1      31.763  -8.294 -19.525  0.00  0.00    -0.002 C 
ATOM     14  C   UNL     1      31.648  -9.679 -19.408  0.00  0.00    +0.014 C 
ATOM     15  C   UNL     1      32.150  -6.233 -20.866  0.00  0.00    +0.032 C 
BRANCH   9  16
ATOM     16  N   UNL     1      32.462  -7.960 -23.175  0.00  0.00    -0.219 N 
ATOM     17  H   UNL     1      31.741  -7.571 -23.721  0.00  0.00    +0.173 HD
BRANCH  16  18
ATOM     18  S   UNL     1      34.089  -7.973 -23.735  0.00  0.00    +0.056 S 
ATOM     19  O   UNL     1      34.953  -7.579 -22.638  0.00  0.00    -0.154 OA
ATOM     20  O   UNL     1      34.366  -9.175 -24.497  0.00  0.00    -0.154 OA
ATOM     21  C   UNL     1      34.041  -6.605 -24.872  0.00  0.00    +0.200 C 
ENDBRANCH  16  18
ENDBRANCH   9  16
ENDBRANCH   1  11
BRANCH   5  22
ATOM     22  C   UNL     1      33.113 -13.691 -24.682  0.00  0.00    +0.014 C 
ATOM     23  C   UNL     1      32.936 -14.805 -25.503  0.00  0.00    +0.001 C 
ATOM     24  C   UNL     1      33.522 -12.476 -25.233  0.00  0.00    +0.001 C 
ATOM     25  C   UNL     1      33.168 -14.705 -26.875  0.00  0.00    +0.000 C 
ATOM     26  C   UNL     1      33.754 -12.376 -26.605  0.00  0.00    +0.000 C 
ATOM     27  C   UNL     1      33.577 -13.489 -27.426  0.00  0.00    +0.000 C 
ENDBRANCH   5  22
TORSDOF 4
ENDMDL
MODEL 8
REMARK VINA RESULT:      -9.5      3.799      8.925
REMARK  Name = 25138203
REMARK  4 active torsions:
REMARK  status: ('A' for Active; 'I' for Inactive)
REMARK    1  A    between atoms: N_1  and  C_11
REMARK    2  A    between atoms: C_5  and  C_22
REMARK    3  A    between atoms: C_9  and  N_16
REMARK    4  A    between atoms: N_16  and  S_18
REMARK                            x       y       z     vdW  Elec       q    Type
REMARK                         _______ _______ _______ _____ _____    ______ ____
ROOT
ATOM      1  N   UNL     1      32.395 -13.576 -21.575  0.00  0.00    -0.301 N 
ATOM      2  N   UNL     1      30.932 -11.843 -20.849  0.00  0.00    -0.234 NA
ATOM      3  N   UNL     1      31.278  -9.583 -21.612  0.00  0.00    -0.248 NA
ATOM      4  C   UNL     1      32.004 -12.215 -21.580  0.00  0.00    +0.112 C 
ATOM      5  C   UNL     1      32.339 -10.025 -22.319  0.00  0.00    +0.063 C 
ATOM      6  C   UNL     1      32.753 -11.341 -22.342  0.00  0.00    +0.106 C 
ATOM      7  C   UNL     1      30.630 -10.532 -20.910  0.00  0.00    +0.251 C 
ATOM      8  H   UNL     1      32.183 -14.047 -20.736  0.00  0.00    +0.153 HD
ENDROOT
BRANCH   1  11
ATOM      9  C   UNL     1      34.610 -16.120 -23.093  0.00  0.00    +0.062 C 
ATOM     10  C   UNL     1      34.280 -15.988 -24.442  0.00  0.00    -0.007 C 
ATOM     11  C   UNL     1      33.026 -14.384 -22.534  0.00  0.00    +0.050 C 
ATOM     12  C   UNL     1      33.983 -15.318 -22.139  0.00  0.00    +0.030 C 
ATOM     13  C   UNL     1      33.322 -15.053 -24.837  0.00  0.00    -0.002 C 
ATOM     14  C   UNL     1      32.696 -14.251 -23.883  0.00  0.00    +0.014 C 
ATOM     15  C   UNL     1      34.935 -16.835 -25.483  0.00  0.00    +0.032 C 
BRANCH   9  16
ATOM     16  N   UNL     1      35.590 -17.072 -22.669  0.00  0.00    -0.219 N 
ATOM     17  H   UNL     1      36.551 -16.864 -22.714  0.00  0.00    +0.173 HD
BRANCH  16  18
ATOM     18  S   UNL     1      35.040 -18.592 -22.076  0.00  0.00    +0.056 S 
ATOM     19  O   UNL     1      33.923 -18.358 -21.182  0.00  0.00    -0.154 OA
ATOM     20  O   UNL     1      34.936 -19.561 -23.150  0.00  0.00    -0.154 OA
ATOM     21  C   UNL     1      36.427 -19.053 -21.060  0.00  0.00    +0.200 C 
ENDBRANCH  16  18
ENDBRANCH   9  16
ENDBRANCH   1  11
BRANCH   5  22
ATOM     22  C   UNL     1      33.039  -9.008 -23.074  0.00  0.00    +0.014 C 
ATOM     23  C   UNL     1      32.512  -7.720 -23.163  0.00  0.00    +0.001 C 
ATOM     24  C   UNL     1      34.241  -9.315 -23.714  0.00  0.00    +0.001 C 
ATOM     25  C   UNL     1      33.186  -6.738 -23.890  0.00  0.00    +0.000 C 
ATOM     26  C   UNL     1      34.914  -8.334 -24.441  0.00  0.00    +0.000 C 
ATOM     27  C   UNL     1      34.388  -7.045 -24.530  0.00  0.00    +0.000 C 
ENDBRANCH   5  22
TORSDOF 4
ENDMDL
MODEL 9
REMARK VINA RESULT:      -9.3      4.300      7.142
REMARK  Name = 25138203
REMARK  4 active torsions:
REMARK  status: ('A' for Active; 'I' for Inactive)
REMARK    1  A    between atoms: N_1  and  C_11
REMARK    2  A    between atoms: C_5  and  C_22
REMARK    3  A    between atoms: C_9  and  N_16
REMARK    4  A    between atoms: N_16  and  S_18
REMARK                            x       y       z     vdW  Elec       q    Type
REMARK                         _______ _______ _______ _____ _____    ______ ____
ROOT
ATOM      1  N   UNL     1      31.606  -8.343 -21.744  0.00  0.00    -0.301 N 
ATOM      2  N   UNL     1      31.369  -9.831 -19.901  0.00  0.00    -0.234 NA
ATOM      3  N   UNL     1      31.892 -12.168 -20.171  0.00  0.00    -0.248 NA
ATOM      4  C   UNL     1      31.700  -9.645 -21.195  0.00  0.00    +0.112 C 
ATOM      5  C   UNL     1      32.207 -11.909 -21.458  0.00  0.00    +0.063 C 
ATOM      6  C   UNL     1      32.130 -10.656 -22.030  0.00  0.00    +0.106 C 
ATOM      7  C   UNL     1      31.486 -11.099 -19.461  0.00  0.00    +0.251 C 
ATOM      8  H   UNL     1      30.906  -7.787 -21.330  0.00  0.00    +0.153 HD
ENDROOT
BRANCH   1  11
ATOM      9  C   UNL     1      32.383  -6.104 -24.585  0.00  0.00    +0.062 C 
ATOM     10  C   UNL     1      33.731  -6.397 -24.792  0.00  0.00    -0.007 C 
ATOM     11  C   UNL     1      32.317  -7.691 -22.765  0.00  0.00    +0.050 C 
ATOM     12  C   UNL     1      31.676  -6.751 -23.571  0.00  0.00    +0.030 C 
ATOM     13  C   UNL     1      34.372  -7.337 -23.984  0.00  0.00    -0.002 C 
ATOM     14  C   UNL     1      33.665  -7.984 -22.972  0.00  0.00    +0.014 C 
ATOM     15  C   UNL     1      34.512  -5.718 -25.869  0.00  0.00    +0.032 C 
BRANCH   9  16
ATOM     16  N   UNL     1      31.708  -5.144 -25.403  0.00  0.00    -0.219 N 
ATOM     17  H   UNL     1      31.443  -5.362 -26.325  0.00  0.00    +0.173 HD
BRANCH  16  18
ATOM     18  S   UNL     1      31.375  -3.595 -24.729  0.00  0.00    +0.056 S 
ATOM     19  O   UNL     1      30.005  -3.242 -25.051  0.00  0.00    -0.154 OA
ATOM     20  O   UNL     1      31.858  -3.508 -23.365  0.00  0.00    -0.154 OA
ATOM     21  C   UNL     1      32.423  -2.578 -25.745  0.00  0.00    +0.200 C 
ENDBRANCH  16  18
ENDBRANCH   9  16
ENDBRANCH   1  11
BRANCH   5  22
ATOM     22  C   UNL     1      32.643 -13.056 -22.224  0.00  0.00    +0.014 C 
ATOM     23  C   UNL     1      32.937 -12.918 -23.581  0.00  0.00    +0.001 C 
ATOM     24  C   UNL     1      32.772 -14.302 -21.607  0.00  0.00    +0.001 C 
ATOM     25  C   UNL     1      33.358 -14.023 -24.321  0.00  0.00    +0.000 C 
ATOM     26  C   UNL     1      33.193 -15.407 -22.347  0.00  0.00    +0.000 C 
ATOM     27  C   UNL     1      33.486 -15.268 -23.703  0.00  0.00    +0.000 C 
ENDBRANCH   5  22
TORSDOF 4
ENDMDL
