MODEL 1
REMARK VINA RESULT:     -11.4      0.000      0.000
REMARK  Name = 24764443
REMARK  5 active torsions:
REMARK  status: ('A' for Active; 'I' for Inactive)
REMARK    1  A    between atoms: C_2  and  C_17
REMARK    2  A    between atoms: C_3  and  N_19
REMARK    3  A    between atoms: C_20  and  C_22
REMARK    4  A    between atoms: C_22  and  C_23
REMARK    5  A    between atoms: C_23  and  C_31
REMARK                            x       y       z     vdW  Elec       q    Type
REMARK                         _______ _______ _______ _____ _____    ______ ____
ROOT
ATOM      1 BR   UNL     1      37.080 -23.811 -14.097  0.00  0.00    -0.049 Br
ATOM      2  C   UNL     1      34.638 -22.739 -17.291  0.00  0.00    +0.068 C 
ATOM      3  C   UNL     1      35.487 -21.981 -18.097  0.00  0.00    +0.055 C 
ATOM      4  C   UNL     1      35.113 -23.285 -16.099  0.00  0.00    +0.012 C 
ATOM      5  C   UNL     1      36.810 -21.768 -17.711  0.00  0.00    +0.015 C 
ATOM      6  C   UNL     1      36.435 -23.072 -15.712  0.00  0.00    +0.035 C 
ATOM      7  C   UNL     1      37.285 -22.313 -16.518  0.00  0.00    +0.008 C 
ENDROOT
BRANCH   2  17
ATOM      8  O   UNL     1      32.957 -22.793 -18.851  0.00  0.00    -0.270 OA
ATOM      9  N   UNL     1      32.349 -23.392 -16.675  0.00  0.00    -0.276 N 
ATOM     10  C   UNL     1      30.028 -22.772 -16.131  0.00  0.00    +0.020 C 
ATOM     11  C   UNL     1      31.833 -22.778 -14.344  0.00  0.00    +0.020 C 
ATOM     12  C   UNL     1      30.340 -22.999 -14.641  0.00  0.00    +0.003 C 
ATOM     13  C   UNL     1      30.946 -23.631 -17.011  0.00  0.00    +0.094 C 
ATOM     14  C   UNL     1      32.693 -23.646 -15.269  0.00  0.00    +0.094 C 
ATOM     15  C   UNL     1      28.561 -23.067 -16.429  0.00  0.00    +0.002 C 
ATOM     16  C   UNL     1      32.143 -23.074 -12.879  0.00  0.00    +0.002 C 
ATOM     17  C   UNL     1      33.240 -22.982 -17.670  0.00  0.00    +0.250 C 
ENDBRANCH   2  17
BRANCH   3  19
ATOM     18  O   UNL     1      36.718 -19.878 -19.855  0.00  0.00    -0.275 OA
ATOM     19  N   UNL     1      35.033 -21.424 -19.298  0.00  0.00    -0.284 N 
ATOM     20  C   UNL     1      35.650 -20.439 -20.082  0.00  0.00    +0.227 C 
ATOM     21  H   UNL     1      34.173 -21.766 -19.633  0.00  0.00    +0.155 HD
BRANCH  20  22
ATOM     22  C   UNL     1      34.816 -20.117 -21.314  0.00  0.00    +0.095 C 
BRANCH  22  23
ATOM     23  C   UNL     1      34.728 -18.623 -21.586  0.00  0.00    +0.095 C 
BRANCH  23  31
ATOM     24  O   UNL     1      33.733 -14.586 -24.452  0.00  0.00    -0.350 OA
ATOM     25  O   UNL     1      35.042 -19.315 -23.832  0.00  0.00    -0.275 OA
ATOM     26  N   UNL     1      34.714 -17.044 -23.482  0.00  0.00    -0.274 N 
ATOM     27  C   UNL     1      34.606 -15.881 -22.595  0.00  0.00    +0.125 C 
ATOM     28  C   UNL     1      34.810 -16.708 -24.903  0.00  0.00    +0.125 C 
ATOM     29  C   UNL     1      33.511 -14.943 -23.085  0.00  0.00    +0.164 C 
ATOM     30  C   UNL     1      33.702 -15.741 -25.295  0.00  0.00    +0.164 C 
ATOM     31  C   UNL     1      34.844 -18.367 -23.067  0.00  0.00    +0.226 C 
ENDBRANCH  23  31
ENDBRANCH  22  23
ENDBRANCH  20  22
ENDBRANCH   3  19
TORSDOF 5
ENDMDL
MODEL 2
REMARK VINA RESULT:     -11.4      4.182     10.563
REMARK  Name = 24764443
REMARK  5 active torsions:
REMARK  status: ('A' for Active; 'I' for Inactive)
REMARK    1  A    between atoms: C_2  and  C_17
REMARK    2  A    between atoms: C_3  and  N_19
REMARK    3  A    between atoms: C_20  and  C_22
REMARK    4  A    between atoms: C_22  and  C_23
REMARK    5  A    between atoms: C_23  and  C_31
REMARK                            x       y       z     vdW  Elec       q    Type
REMARK                         _______ _______ _______ _____ _____    ______ ____
ROOT
ATOM      1 BR   UNL     1      32.667 -13.408 -27.377  0.00  0.00    -0.049 Br
ATOM      2  C   UNL     1      33.069 -14.783 -23.470  0.00  0.00    +0.068 C 
ATOM      3  C   UNL     1      33.852 -15.928 -23.617  0.00  0.00    +0.055 C 
ATOM      4  C   UNL     1      32.717 -14.032 -24.590  0.00  0.00    +0.012 C 
ATOM      5  C   UNL     1      34.281 -16.323 -24.885  0.00  0.00    +0.015 C 
ATOM      6  C   UNL     1      33.144 -14.426 -25.858  0.00  0.00    +0.035 C 
ATOM      7  C   UNL     1      33.927 -15.571 -26.005  0.00  0.00    +0.008 C 
ENDROOT
BRANCH   2  17
ATOM      8  O   UNL     1      32.134 -15.213 -21.419  0.00  0.00    -0.270 OA
ATOM      9  N   UNL     1      32.714 -12.986 -21.831  0.00  0.00    -0.276 N 
ATOM     10  C   UNL     1      31.212 -11.389 -20.709  0.00  0.00    +0.020 C 
ATOM     11  C   UNL     1      32.289 -10.826 -22.939  0.00  0.00    +0.020 C 
ATOM     12  C   UNL     1      31.772 -10.268 -21.602  0.00  0.00    +0.003 C 
ATOM     13  C   UNL     1      32.248 -12.505 -20.530  0.00  0.00    +0.094 C 
ATOM     14  C   UNL     1      33.301 -11.949 -22.691  0.00  0.00    +0.094 C 
ATOM     15  C   UNL     1      30.771 -10.836 -19.357  0.00  0.00    +0.002 C 
ATOM     16  C   UNL     1      32.907  -9.717 -23.787  0.00  0.00    +0.002 C 
ATOM     17  C   UNL     1      32.603 -14.342 -22.149  0.00  0.00    +0.250 C 
ENDBRANCH   2  17
BRANCH   3  19
ATOM     18  O   UNL     1      34.615 -18.828 -23.426  0.00  0.00    -0.275 OA
ATOM     19  N   UNL     1      34.219 -16.698 -22.508  0.00  0.00    -0.284 N 
ATOM     20  C   UNL     1      34.567 -18.055 -22.474  0.00  0.00    +0.227 C 
ATOM     21  H   UNL     1      34.235 -16.227 -21.643  0.00  0.00    +0.155 HD
BRANCH  20  22
ATOM     22  C   UNL     1      34.900 -18.501 -21.057  0.00  0.00    +0.095 C 
BRANCH  22  23
ATOM     23  C   UNL     1      34.923 -20.015 -20.910  0.00  0.00    +0.095 C 
BRANCH  23  31
ATOM     24  O   UNL     1      34.794 -23.284 -17.064  0.00  0.00    -0.350 OA
ATOM     25  O   UNL     1      36.967 -19.740 -19.742  0.00  0.00    -0.275 OA
ATOM     26  N   UNL     1      35.642 -21.536 -19.105  0.00  0.00    -0.274 N 
ATOM     27  C   UNL     1      34.498 -22.429 -19.315  0.00  0.00    +0.125 C 
ATOM     28  C   UNL     1      36.574 -21.987 -18.071  0.00  0.00    +0.125 C 
ATOM     29  C   UNL     1      33.834 -22.758 -17.984  0.00  0.00    +0.164 C 
ATOM     30  C   UNL     1      35.822 -22.328 -16.793  0.00  0.00    +0.164 C 
ATOM     31  C   UNL     1      35.941 -20.411 -19.871  0.00  0.00    +0.226 C 
ENDBRANCH  23  31
ENDBRANCH  22  23
ENDBRANCH  20  22
ENDBRANCH   3  19
TORSDOF 5
ENDMDL
MODEL 3
REMARK VINA RESULT:     -10.9      4.469     11.405
REMARK  Name = 24764443
REMARK  5 active torsions:
REMARK  status: ('A' for Active; 'I' for Inactive)
REMARK    1  A    between atoms: C_2  and  C_17
REMARK    2  A    between atoms: C_3  and  N_19
REMARK    3  A    between atoms: C_20  and  C_22
REMARK    4  A    between atoms: C_22  and  C_23
REMARK    5  A    between atoms: C_23  and  C_31
REMARK                            x       y       z     vdW  Elec       q    Type
REMARK                         _______ _______ _______ _____ _____    ______ ____
ROOT
ATOM      1 BR   UNL     1      30.870 -10.383 -20.093  0.00  0.00    -0.049 Br
ATOM      2  C   UNL     1      32.847 -13.085 -22.564  0.00  0.00    +0.068 C 
ATOM      3  C   UNL     1      33.069 -14.177 -21.725  0.00  0.00    +0.055 C 
ATOM      4  C   UNL     1      32.191 -11.955 -22.078  0.00  0.00    +0.012 C 
ATOM      5  C   UNL     1      32.636 -14.138 -20.399  0.00  0.00    +0.015 C 
ATOM      6  C   UNL     1      31.759 -11.915 -20.753  0.00  0.00    +0.035 C 
ATOM      7  C   UNL     1      31.981 -13.007 -19.913  0.00  0.00    +0.008 C 
ENDROOT
BRANCH   2  17
ATOM      8  O   UNL     1      33.426 -14.202 -24.483  0.00  0.00    -0.270 OA
ATOM      9  N   UNL     1      33.530 -11.869 -24.588  0.00  0.00    -0.276 N 
ATOM     10  C   UNL     1      35.304 -11.064 -26.096  0.00  0.00    +0.020 C 
ATOM     11  C   UNL     1      34.644  -9.742 -24.030  0.00  0.00    +0.020 C 
ATOM     12  C   UNL     1      35.166  -9.663 -25.475  0.00  0.00    +0.003 C 
ATOM     13  C   UNL     1      33.985 -11.839 -25.978  0.00  0.00    +0.094 C 
ATOM     14  C   UNL     1      33.340 -10.546 -23.979  0.00  0.00    +0.094 C 
ATOM     15  C   UNL     1      35.750 -10.970 -27.553  0.00  0.00    +0.002 C 
ATOM     16  C   UNL     1      34.443  -8.345 -23.449  0.00  0.00    +0.002 C 
ATOM     17  C   UNL     1      33.290 -13.096 -23.964  0.00  0.00    +0.250 C 
ENDBRANCH   2  17
BRANCH   3  19
ATOM     18  O   UNL     1      35.041 -15.983 -20.356  0.00  0.00    -0.275 OA
ATOM     19  N   UNL     1      33.724 -15.322 -22.190  0.00  0.00    -0.284 N 
ATOM     20  C   UNL     1      34.642 -16.132 -21.506  0.00  0.00    +0.227 C 
ATOM     21  H   UNL     1      33.516 -15.592 -23.114  0.00  0.00    +0.155 HD
BRANCH  20  22
ATOM     22  C   UNL     1      35.117 -17.283 -22.382  0.00  0.00    +0.095 C 
BRANCH  22  23
ATOM     23  C   UNL     1      34.665 -18.639 -21.861  0.00  0.00    +0.095 C 
BRANCH  23  31
ATOM     24  O   UNL     1      34.921 -22.438 -18.545  0.00  0.00    -0.350 OA
ATOM     25  O   UNL     1      36.954 -18.855 -21.281  0.00  0.00    -0.275 OA
ATOM     26  N   UNL     1      35.529 -20.521 -20.520  0.00  0.00    -0.274 N 
ATOM     27  C   UNL     1      34.225 -21.194 -20.509  0.00  0.00    +0.125 C 
ATOM     28  C   UNL     1      36.594 -21.264 -19.845  0.00  0.00    +0.125 C 
ATOM     29  C   UNL     1      33.871 -21.637 -19.095  0.00  0.00    +0.164 C 
ATOM     30  C   UNL     1      36.140 -21.698 -18.458  0.00  0.00    +0.164 C 
ATOM     31  C   UNL     1      35.824 -19.341 -21.199  0.00  0.00    +0.226 C 
ENDBRANCH  23  31
ENDBRANCH  22  23
ENDBRANCH  20  22
ENDBRANCH   3  19
TORSDOF 5
ENDMDL
MODEL 4
REMARK VINA RESULT:      -9.3      5.493      8.259
REMARK  Name = 24764443
REMARK  5 active torsions:
REMARK  status: ('A' for Active; 'I' for Inactive)
REMARK    1  A    between atoms: C_2  and  C_17
REMARK    2  A    between atoms: C_3  and  N_19
REMARK    3  A    between atoms: C_20  and  C_22
REMARK    4  A    between atoms: C_22  and  C_23
REMARK    5  A    between atoms: C_23  and  C_31
REMARK                            x       y       z     vdW  Elec       q    Type
REMARK                         _______ _______ _______ _____ _____    ______ ____
ROOT
ATOM      1 BR   UNL     1      36.136 -21.283 -19.726  0.00  0.00    -0.049 Br
ATOM      2  C   UNL     1      34.888 -22.972 -16.133  0.00  0.00    +0.068 C 
ATOM      3  C   UNL     1      33.582 -23.375 -16.410  0.00  0.00    +0.055 C 
ATOM      4  C   UNL     1      35.650 -22.349 -17.122  0.00  0.00    +0.012 C 
ATOM      5  C   UNL     1      33.036 -23.153 -17.675  0.00  0.00    +0.015 C 
ATOM      6  C   UNL     1      35.105 -22.127 -18.386  0.00  0.00    +0.035 C 
ATOM      7  C   UNL     1      33.798 -22.529 -18.663  0.00  0.00    +0.008 C 
ENDROOT
BRANCH   2  17
ATOM      8  O   UNL     1      35.640 -22.194 -14.110  0.00  0.00    -0.270 OA
ATOM      9  N   UNL     1      35.856 -24.495 -14.463  0.00  0.00    -0.276 N 
ATOM     10  C   UNL     1      37.827 -25.449 -13.336  0.00  0.00    +0.020 C 
ATOM     11  C   UNL     1      36.985 -26.406 -15.533  0.00  0.00    +0.020 C 
ATOM     12  C   UNL     1      37.676 -26.717 -14.194  0.00  0.00    +0.003 C 
ATOM     13  C   UNL     1      36.471 -24.751 -13.161  0.00  0.00    +0.094 C 
ATOM     14  C   UNL     1      35.651 -25.692 -15.290  0.00  0.00    +0.094 C 
ATOM     15  C   UNL     1      38.444 -25.781 -11.980  0.00  0.00    +0.002 C 
ATOM     16  C   UNL     1      36.777 -27.682 -16.344  0.00  0.00    +0.002 C 
ATOM     17  C   UNL     1      35.491 -23.192 -14.813  0.00  0.00    +0.250 C 
ENDBRANCH   2  17
BRANCH   3  19
ATOM     18  O   UNL     1      31.828 -22.202 -14.271  0.00  0.00    -0.275 OA
ATOM     19  N   UNL     1      32.799 -24.002 -15.435  0.00  0.00    -0.284 N 
ATOM     20  C   UNL     1      31.996 -23.404 -14.454  0.00  0.00    +0.227 C 
ATOM     21  H   UNL     1      32.815 -24.986 -15.438  0.00  0.00    +0.155 HD
BRANCH  20  22
ATOM     22  C   UNL     1      31.310 -24.454 -13.592  0.00  0.00    +0.095 C 
BRANCH  22  23
ATOM     23  C   UNL     1      29.831 -24.603 -13.918  0.00  0.00    +0.095 C 
BRANCH  23  31
ATOM     24  O   UNL     1      26.829 -21.833 -16.887  0.00  0.00    -0.350 OA
ATOM     25  O   UNL     1      30.117 -25.446 -16.115  0.00  0.00    -0.275 OA
ATOM     26  N   UNL     1      28.891 -23.487 -15.907  0.00  0.00    -0.274 N 
ATOM     27  C   UNL     1      28.409 -22.348 -15.118  0.00  0.00    +0.125 C 
ATOM     28  C   UNL     1      28.646 -23.367 -17.345  0.00  0.00    +0.125 C 
ATOM     29  C   UNL     1      26.963 -22.031 -15.477  0.00  0.00    +0.164 C 
ATOM     30  C   UNL     1      27.189 -23.015 -17.607  0.00  0.00    +0.164 C 
ATOM     31  C   UNL     1      29.632 -24.557 -15.412  0.00  0.00    +0.226 C 
ENDBRANCH  23  31
ENDBRANCH  22  23
ENDBRANCH  20  22
ENDBRANCH   3  19
TORSDOF 5
ENDMDL
MODEL 5
REMARK VINA RESULT:      -9.1      9.366     16.570
REMARK  Name = 24764443
REMARK  5 active torsions:
REMARK  status: ('A' for Active; 'I' for Inactive)
REMARK    1  A    between atoms: C_2  and  C_17
REMARK    2  A    between atoms: C_3  and  N_19
REMARK    3  A    between atoms: C_20  and  C_22
REMARK    4  A    between atoms: C_22  and  C_23
REMARK    5  A    between atoms: C_23  and  C_31
REMARK                            x       y       z     vdW  Elec       q    Type
REMARK                         _______ _______ _______ _____ _____    ______ ____
ROOT
ATOM      1 BR   UNL     1      30.441  -2.693 -22.563  0.00  0.00    -0.049 Br
ATOM      2  C   UNL     1      32.593  -5.910 -24.092  0.00  0.00    +0.068 C 
ATOM      3  C   UNL     1      31.940  -7.015 -23.546  0.00  0.00    +0.055 C 
ATOM      4  C   UNL     1      32.146  -4.622 -23.799  0.00  0.00    +0.012 C 
ATOM      5  C   UNL     1      30.840  -6.833 -22.707  0.00  0.00    +0.015 C 
ATOM      6  C   UNL     1      31.047  -4.438 -22.960  0.00  0.00    +0.035 C 
ATOM      7  C   UNL     1      30.394  -5.544 -22.414  0.00  0.00    +0.008 C 
ENDROOT
BRANCH   2  17
ATOM      8  O   UNL     1      34.662  -6.784 -24.561  0.00  0.00    -0.270 OA
ATOM      9  N   UNL     1      33.741  -5.399 -26.205  0.00  0.00    -0.276 N 
ATOM     10  C   UNL     1      35.449  -4.138 -27.452  0.00  0.00    +0.020 C 
ATOM     11  C   UNL     1      33.144  -3.157 -27.035  0.00  0.00    +0.020 C 
ATOM     12  C   UNL     1      34.342  -3.221 -27.999  0.00  0.00    +0.003 C 
ATOM     13  C   UNL     1      34.883  -5.522 -27.109  0.00  0.00    +0.094 C 
ATOM     14  C   UNL     1      32.642  -4.569 -26.716  0.00  0.00    +0.094 C 
ATOM     15  C   UNL     1      36.599  -4.254 -28.450  0.00  0.00    +0.002 C 
ATOM     16  C   UNL     1      32.023  -2.301 -27.620  0.00  0.00    +0.002 C 
ATOM     17  C   UNL     1      33.752  -6.069 -24.978  0.00  0.00    +0.250 C 
ENDBRANCH   2  17
BRANCH   3  19
ATOM     18  O   UNL     1      32.588  -9.291 -21.695  0.00  0.00    -0.275 OA
ATOM     19  N   UNL     1      32.370  -8.317 -23.826  0.00  0.00    -0.284 N 
ATOM     20  C   UNL     1      32.661  -9.345 -22.919  0.00  0.00    +0.227 C 
ATOM     21  H   UNL     1      32.482  -8.538 -24.778  0.00  0.00    +0.155 HD
BRANCH  20  22
ATOM     22  C   UNL     1      33.098 -10.610 -23.645  0.00  0.00    +0.095 C 
BRANCH  22  23
ATOM     23  C   UNL     1      32.684 -11.877 -22.912  0.00  0.00    +0.095 C 
BRANCH  23  31
ATOM     24  O   UNL     1      34.462 -16.332 -21.337  0.00  0.00    -0.350 OA
ATOM     25  O   UNL     1      33.461 -13.000 -24.851  0.00  0.00    -0.275 OA
ATOM     26  N   UNL     1      33.387 -14.242 -22.891  0.00  0.00    -0.274 N 
ATOM     27  C   UNL     1      32.983 -14.416 -21.492  0.00  0.00    +0.125 C 
ATOM     28  C   UNL     1      33.899 -15.458 -23.524  0.00  0.00    +0.125 C 
ATOM     29  C   UNL     1      34.089 -15.105 -20.704  0.00  0.00    +0.164 C 
ATOM     30  C   UNL     1      34.970 -16.098 -22.652  0.00  0.00    +0.164 C 
ATOM     31  C   UNL     1      33.211 -13.084 -23.646  0.00  0.00    +0.226 C 
ENDBRANCH  23  31
ENDBRANCH  22  23
ENDBRANCH  20  22
ENDBRANCH   3  19
TORSDOF 5
ENDMDL
MODEL 6
REMARK VINA RESULT:      -9.0      6.938     12.610
REMARK  Name = 24764443
REMARK  5 active torsions:
REMARK  status: ('A' for Active; 'I' for Inactive)
REMARK    1  A    between atoms: C_2  and  C_17
REMARK    2  A    between atoms: C_3  and  N_19
REMARK    3  A    between atoms: C_20  and  C_22
REMARK    4  A    between atoms: C_22  and  C_23
REMARK    5  A    between atoms: C_23  and  C_31
REMARK                            x       y       z     vdW  Elec       q    Type
REMARK                         _______ _______ _______ _____ _____    ______ ____
ROOT
ATOM      1 BR   UNL     1      30.993  -9.441 -18.768  0.00  0.00    -0.049 Br
ATOM      2  C   UNL     1      32.669 -10.636 -22.385  0.00  0.00    +0.068 C 
ATOM      3  C   UNL     1      32.442 -12.013 -22.399  0.00  0.00    +0.055 C 
ATOM      4  C   UNL     1      32.237  -9.870 -21.303  0.00  0.00    +0.012 C 
ATOM      5  C   UNL     1      31.784 -12.622 -21.331  0.00  0.00    +0.015 C 
ATOM      6  C   UNL     1      31.580 -10.479 -20.235  0.00  0.00    +0.035 C 
ATOM      7  C   UNL     1      31.353 -11.855 -20.249  0.00  0.00    +0.008 C 
ENDROOT
BRANCH   2  17
ATOM      8  O   UNL     1      34.363 -10.524 -23.928  0.00  0.00    -0.270 OA
ATOM      9  N   UNL     1      32.836  -8.754 -23.958  0.00  0.00    -0.276 N 
ATOM     10  C   UNL     1      33.866  -6.620 -24.628  0.00  0.00    +0.020 C 
ATOM     11  C   UNL     1      31.934  -6.679 -22.980  0.00  0.00    +0.020 C 
ATOM     12  C   UNL     1      32.626  -5.880 -24.099  0.00  0.00    +0.003 C 
ATOM     13  C   UNL     1      33.502  -8.049 -25.053  0.00  0.00    +0.094 C 
ATOM     14  C   UNL     1      31.618  -8.100 -23.460  0.00  0.00    +0.094 C 
ATOM     15  C   UNL     1      34.500  -5.856 -25.788  0.00  0.00    +0.002 C 
ATOM     16  C   UNL     1      30.667  -5.970 -22.512  0.00  0.00    +0.002 C 
ATOM     17  C   UNL     1      33.358  -9.965 -23.494  0.00  0.00    +0.250 C 
ENDBRANCH   2  17
BRANCH   3  19
ATOM     18  O   UNL     1      34.730 -13.948 -22.609  0.00  0.00    -0.275 OA
ATOM     19  N   UNL     1      32.866 -12.802 -23.473  0.00  0.00    -0.284 N 
ATOM     20  C   UNL     1      33.948 -13.692 -23.518  0.00  0.00    +0.227 C 
ATOM     21  H   UNL     1      32.340 -12.721 -24.301  0.00  0.00    +0.155 HD
BRANCH  20  22
ATOM     22  C   UNL     1      34.059 -14.352 -24.886  0.00  0.00    +0.095 C 
BRANCH  22  23
ATOM     23  C   UNL     1      33.396 -15.721 -24.931  0.00  0.00    +0.095 C 
BRANCH  23  31
ATOM     24  O   UNL     1      35.554 -18.092 -21.031  0.00  0.00    -0.350 OA
ATOM     25  O   UNL     1      35.091 -17.099 -25.853  0.00  0.00    -0.275 OA
ATOM     26  N   UNL     1      34.626 -17.393 -23.598  0.00  0.00    -0.274 N 
ATOM     27  C   UNL     1      33.795 -17.153 -22.413  0.00  0.00    +0.125 C 
ATOM     28  C   UNL     1      35.628 -18.445 -23.425  0.00  0.00    +0.125 C 
ATOM     29  C   UNL     1      34.673 -16.976 -21.181  0.00  0.00    +0.164 C 
ATOM     30  C   UNL     1      36.431 -18.208 -22.154  0.00  0.00    +0.164 C 
ATOM     31  C   UNL     1      34.447 -16.798 -24.845  0.00  0.00    +0.226 C 
ENDBRANCH  23  31
ENDBRANCH  22  23
ENDBRANCH  20  22
ENDBRANCH   3  19
TORSDOF 5
ENDMDL
MODEL 7
REMARK VINA RESULT:      -8.7      4.007     10.098
REMARK  Name = 24764443
REMARK  5 active torsions:
REMARK  status: ('A' for Active; 'I' for Inactive)
REMARK    1  A    between atoms: C_2  and  C_17
REMARK    2  A    between atoms: C_3  and  N_19
REMARK    3  A    between atoms: C_20  and  C_22
REMARK    4  A    between atoms: C_22  and  C_23
REMARK    5  A    between atoms: C_23  and  C_31
REMARK                            x       y       z     vdW  Elec       q    Type
REMARK                         _______ _______ _______ _____ _____    ______ ____
ROOT
ATOM      1 BR   UNL     1      33.233 -14.796 -27.042  0.00  0.00    -0.049 Br
ATOM      2  C   UNL     1      33.754 -15.829 -23.044  0.00  0.00    +0.068 C 
ATOM      3  C   UNL     1      34.538 -16.980 -23.115  0.00  0.00    +0.055 C 
ATOM      4  C   UNL     1      33.365 -15.177 -24.214  0.00  0.00    +0.012 C 
ATOM      5  C   UNL     1      34.933 -17.481 -24.355  0.00  0.00    +0.015 C 
ATOM      6  C   UNL     1      33.759 -15.678 -25.455  0.00  0.00    +0.035 C 
ATOM      7  C   UNL     1      34.543 -16.830 -25.526  0.00  0.00    +0.008 C 
ENDROOT
BRANCH   2  17
ATOM      8  O   UNL     1      32.962 -16.091 -20.907  0.00  0.00    -0.270 OA
ATOM      9  N   UNL     1      33.344 -13.888 -21.591  0.00  0.00    -0.276 N 
ATOM     10  C   UNL     1      31.781 -12.288 -20.561  0.00  0.00    +0.020 C 
ATOM     11  C   UNL     1      32.695 -11.903 -22.900  0.00  0.00    +0.020 C 
ATOM     12  C   UNL     1      32.205 -11.237 -21.602  0.00  0.00    +0.003 C 
ATOM     13  C   UNL     1      32.910 -13.300 -20.324  0.00  0.00    +0.094 C 
ATOM     14  C   UNL     1      33.803 -12.916 -22.592  0.00  0.00    +0.094 C 
ATOM     15  C   UNL     1      31.369 -11.619 -19.252  0.00  0.00    +0.002 C 
ATOM     16  C   UNL     1      33.180 -10.855 -23.897  0.00  0.00    +0.002 C 
ATOM     17  C   UNL     1      33.323 -15.276 -21.754  0.00  0.00    +0.250 C 
ENDBRANCH   2  17
BRANCH   3  19
ATOM     18  O   UNL     1      34.827 -19.920 -22.565  0.00  0.00    -0.275 OA
ATOM     19  N   UNL     1      34.940 -17.650 -21.954  0.00  0.00    -0.284 N 
ATOM     20  C   UNL     1      35.057 -19.032 -21.750  0.00  0.00    +0.227 C 
ATOM     21  H   UNL     1      35.169 -17.080 -21.185  0.00  0.00    +0.155 HD
BRANCH  20  22
ATOM     22  C   UNL     1      35.529 -19.339 -20.336  0.00  0.00    +0.095 C 
BRANCH  22  23
ATOM     23  C   UNL     1      36.050 -20.762 -20.189  0.00  0.00    +0.095 C 
BRANCH  23  31
ATOM     24  O   UNL     1      36.766 -22.925 -15.684  0.00  0.00    -0.350 OA
ATOM     25  O   UNL     1      34.050 -21.936 -19.696  0.00  0.00    -0.275 OA
ATOM     26  N   UNL     1      35.611 -21.781 -17.986  0.00  0.00    -0.274 N 
ATOM     27  C   UNL     1      36.842 -21.225 -17.413  0.00  0.00    +0.125 C 
ATOM     28  C   UNL     1      34.794 -22.537 -17.035  0.00  0.00    +0.125 C 
ATOM     29  C   UNL     1      37.608 -22.304 -16.659  0.00  0.00    +0.164 C 
ATOM     30  C   UNL     1      35.647 -23.563 -16.303  0.00  0.00    +0.164 C 
ATOM     31  C   UNL     1      35.141 -21.545 -19.276  0.00  0.00    +0.226 C 
ENDBRANCH  23  31
ENDBRANCH  22  23
ENDBRANCH  20  22
ENDBRANCH   3  19
TORSDOF 5
ENDMDL
MODEL 8
REMARK VINA RESULT:      -8.7      9.230     13.740
REMARK  Name = 24764443
REMARK  5 active torsions:
REMARK  status: ('A' for Active; 'I' for Inactive)
REMARK    1  A    between atoms: C_2  and  C_17
REMARK    2  A    between atoms: C_3  and  N_19
REMARK    3  A    between atoms: C_20  and  C_22
REMARK    4  A    between atoms: C_22  and  C_23
REMARK    5  A    between atoms: C_23  and  C_31
REMARK                            x       y       z     vdW  Elec       q    Type
REMARK                         _______ _______ _______ _____ _____    ______ ____
ROOT
ATOM      1 BR   UNL     1      31.306 -10.996 -18.587  0.00  0.00    -0.049 Br
ATOM      2  C   UNL     1      32.483  -9.797 -22.394  0.00  0.00    +0.068 C 
ATOM      3  C   UNL     1      32.565  -8.409 -22.277  0.00  0.00    +0.055 C 
ATOM      4  C   UNL     1      32.108 -10.568 -21.294  0.00  0.00    +0.012 C 
ATOM      5  C   UNL     1      32.272  -7.793 -21.060  0.00  0.00    +0.015 C 
ATOM      6  C   UNL     1      31.814  -9.952 -20.078  0.00  0.00    +0.035 C 
ATOM      7  C   UNL     1      31.896  -8.565 -19.961  0.00  0.00    +0.008 C 
ENDROOT
BRANCH   2  17
ATOM      8  O   UNL     1      32.562  -9.837 -24.687  0.00  0.00    -0.270 OA
ATOM      9  N   UNL     1      33.287 -11.779 -23.606  0.00  0.00    -0.276 N 
ATOM     10  C   UNL     1      32.821 -13.820 -24.903  0.00  0.00    +0.020 C 
ATOM     11  C   UNL     1      32.805 -13.852 -22.364  0.00  0.00    +0.020 C 
ATOM     12  C   UNL     1      33.094 -14.658 -23.642  0.00  0.00    +0.003 C 
ATOM     13  C   UNL     1      33.589 -12.493 -24.847  0.00  0.00    +0.094 C 
ATOM     14  C   UNL     1      33.583 -12.532 -22.380  0.00  0.00    +0.094 C 
ATOM     15  C   UNL     1      33.183 -14.602 -26.163  0.00  0.00    +0.002 C 
ATOM     16  C   UNL     1      33.146 -14.668 -21.120  0.00  0.00    +0.002 C 
ATOM     17  C   UNL     1      32.786 -10.476 -23.660  0.00  0.00    +0.250 C 
ENDBRANCH   2  17
BRANCH   3  19
ATOM     18  O   UNL     1      35.288  -7.567 -23.226  0.00  0.00    -0.275 OA
ATOM     19  N   UNL     1      32.940  -7.615 -23.366  0.00  0.00    -0.284 N 
ATOM     20  C   UNL     1      34.233  -7.250 -23.766  0.00  0.00    +0.227 C 
ATOM     21  H   UNL     1      32.204  -7.269 -23.920  0.00  0.00    +0.155 HD
BRANCH  20  22
ATOM     22  C   UNL     1      34.195  -6.373 -25.010  0.00  0.00    +0.095 C 
BRANCH  22  23
ATOM     23  C   UNL     1      32.776  -6.049 -25.454  0.00  0.00    +0.095 C 
BRANCH  23  31
ATOM     24  O   UNL     1      30.385  -2.380 -22.942  0.00  0.00    -0.350 OA
ATOM     25  O   UNL     1      33.003  -4.092 -26.772  0.00  0.00    -0.275 OA
ATOM     26  N   UNL     1      32.108  -3.815 -24.649  0.00  0.00    -0.274 N 
ATOM     27  C   UNL     1      31.790  -4.323 -23.310  0.00  0.00    +0.125 C 
ATOM     28  C   UNL     1      31.941  -2.369 -24.798  0.00  0.00    +0.125 C 
ATOM     29  C   UNL     1      30.430  -3.807 -22.858  0.00  0.00    +0.164 C 
ATOM     30  C   UNL     1      30.572  -1.939 -24.289  0.00  0.00    +0.164 C 
ATOM     31  C   UNL     1      32.644  -4.566 -25.692  0.00  0.00    +0.226 C 
ENDBRANCH  23  31
ENDBRANCH  22  23
ENDBRANCH  20  22
ENDBRANCH   3  19
TORSDOF 5
ENDMDL
MODEL 9
REMARK VINA RESULT:      -8.7      7.957     14.048
REMARK  Name = 24764443
REMARK  5 active torsions:
REMARK  status: ('A' for Active; 'I' for Inactive)
REMARK    1  A    between atoms: C_2  and  C_17
REMARK    2  A    between atoms: C_3  and  N_19
REMARK    3  A    between atoms: C_20  and  C_22
REMARK    4  A    between atoms: C_22  and  C_23
REMARK    5  A    between atoms: C_23  and  C_31
REMARK                            x       y       z     vdW  Elec       q    Type
REMARK                         _______ _______ _______ _____ _____    ______ ____
ROOT
ATOM      1 BR   UNL     1      31.944  -7.039 -19.190  0.00  0.00    -0.049 Br
ATOM      2  C   UNL     1      33.252  -8.757 -22.748  0.00  0.00    +0.068 C 
ATOM      3  C   UNL     1      32.677 -10.027 -22.715  0.00  0.00    +0.055 C 
ATOM      4  C   UNL     1      33.033  -7.866 -21.697  0.00  0.00    +0.012 C 
ATOM      5  C   UNL     1      31.884 -10.407 -21.632  0.00  0.00    +0.015 C 
ATOM      6  C   UNL     1      32.242  -8.245 -20.614  0.00  0.00    +0.035 C 
ATOM      7  C   UNL     1      31.667  -9.516 -20.581  0.00  0.00    +0.008 C 
ENDROOT
BRANCH   2  17
ATOM      8  O   UNL     1      35.216  -8.816 -23.931  0.00  0.00    -0.270 OA
ATOM      9  N   UNL     1      33.558  -7.400 -24.775  0.00  0.00    -0.276 N 
ATOM     10  C   UNL     1      34.485  -5.407 -25.887  0.00  0.00    +0.020 C 
ATOM     11  C   UNL     1      32.261  -5.307 -24.663  0.00  0.00    +0.020 C 
ATOM     12  C   UNL     1      33.091  -4.758 -25.837  0.00  0.00    +0.003 C 
ATOM     13  C   UNL     1      34.368  -6.937 -25.902  0.00  0.00    +0.094 C 
ATOM     14  C   UNL     1      32.202  -6.837 -24.724  0.00  0.00    +0.094 C 
ATOM     15  C   UNL     1      35.271  -4.912 -27.098  0.00  0.00    +0.002 C 
ATOM     16  C   UNL     1      30.857  -4.709 -24.666  0.00  0.00    +0.002 C 
ATOM     17  C   UNL     1      34.090  -8.326 -23.874  0.00  0.00    +0.250 C 
ENDBRANCH   2  17
BRANCH   3  19
ATOM     18  O   UNL     1      34.270 -12.573 -22.791  0.00  0.00    -0.275 OA
ATOM     19  N   UNL     1      32.882 -10.938 -23.758  0.00  0.00    -0.284 N 
ATOM     20  C   UNL     1      33.640 -12.117 -23.740  0.00  0.00    +0.227 C 
ATOM     21  H   UNL     1      32.439 -10.723 -24.610  0.00  0.00    +0.155 HD
BRANCH  20  22
ATOM     22  C   UNL     1      33.598 -12.816 -25.091  0.00  0.00    +0.095 C 
BRANCH  22  23
ATOM     23  C   UNL     1      32.694 -14.040 -25.089  0.00  0.00    +0.095 C 
BRANCH  23  31
ATOM     24  O   UNL     1      35.166 -16.965 -21.800  0.00  0.00    -0.350 OA
ATOM     25  O   UNL     1      33.872 -15.638 -26.384  0.00  0.00    -0.275 OA
ATOM     26  N   UNL     1      33.854 -15.973 -24.088  0.00  0.00    -0.274 N 
ATOM     27  C   UNL     1      33.354 -15.658 -22.745  0.00  0.00    +0.125 C 
ATOM     28  C   UNL     1      34.661 -17.192 -24.157  0.00  0.00    +0.125 C 
ATOM     29  C   UNL     1      34.492 -15.706 -21.733  0.00  0.00    +0.164 C 
ATOM     30  C   UNL     1      35.746 -17.170 -23.090  0.00  0.00    +0.164 C 
ATOM     31  C   UNL     1      33.525 -15.287 -25.254  0.00  0.00    +0.226 C 
ENDBRANCH  23  31
ENDBRANCH  22  23
ENDBRANCH  20  22
ENDBRANCH   3  19
TORSDOF 5
ENDMDL
