MODEL 1
REMARK VINA RESULT:      -9.1      0.000      0.000
REMARK  Name = 22875828
REMARK  4 active torsions:
REMARK  status: ('A' for Active; 'I' for Inactive)
REMARK    1  A    between atoms: C_7  and  C_26
REMARK    2  A    between atoms: C_11  and  O_23
REMARK    3  A    between atoms: C_26  and  C_28
REMARK    4  A    between atoms: C_28  and  O_29
REMARK                            x       y       z     vdW  Elec       q    Type
REMARK                         _______ _______ _______ _____ _____    ______ ____
ROOT
ATOM      1  F   UNL     1      37.721 -20.597 -19.911  0.00  0.00    -0.233 F 
ATOM      2  O   UNL     1      33.545 -18.449 -21.320  0.00  0.00    -0.287 OA
ATOM      3  C   UNL     1      35.149 -23.550 -15.078  0.00  0.00    +0.009 C 
ATOM      4  C   UNL     1      36.110 -22.575 -15.788  0.00  0.00    +0.001 C 
ATOM      5  C   UNL     1      35.965 -22.579 -17.315  0.00  0.00    +0.006 C 
ATOM      6  C   UNL     1      34.500 -22.147 -17.680  0.00  0.00    +0.034 C 
ATOM      7  C   UNL     1      35.583 -23.299 -13.614  0.00  0.00    +0.069 C 
ATOM      8  C   UNL     1      33.710 -23.108 -15.400  0.00  0.00    +0.030 C 
ATOM      9  C   UNL     1      37.467 -22.894 -15.165  0.00  0.00    +0.000 C 
ATOM     10  C   UNL     1      37.132 -23.218 -13.689  0.00  0.00    +0.007 C 
ATOM     11  C   UNL     1      33.436 -22.999 -16.917  0.00  0.00    +0.111 C 
ATOM     12  C   UNL     1      34.290 -22.009 -19.241  0.00  0.00    +0.039 C 
ATOM     13  C   UNL     1      36.997 -21.638 -17.957  0.00  0.00    +0.040 C 
ATOM     14  C   UNL     1      35.368 -25.037 -15.463  0.00  0.00    +0.001 C 
ATOM     15  C   UNL     1      36.805 -21.503 -19.461  0.00  0.00    +0.180 C 
ATOM     16  C   UNL     1      35.390 -21.081 -19.772  0.00  0.00    -0.006 C 
ATOM     17  C   UNL     1      37.687 -22.167 -12.731  0.00  0.00    +0.000 C 
ATOM     18  C   UNL     1      34.379 -23.348 -20.008  0.00  0.00    +0.009 C 
ATOM     19  C   UNL     1      32.906 -21.447 -19.531  0.00  0.00    -0.020 C 
ATOM     20  C   UNL     1      35.142 -19.940 -20.435  0.00  0.00    +0.036 C 
ATOM     21  C   UNL     1      32.654 -20.311 -20.188  0.00  0.00    +0.038 C 
ATOM     22  C   UNL     1      33.762 -19.484 -20.700  0.00  0.00    +0.195 C 
ENDROOT
BRANCH  11  23
ATOM     23  O   UNL     1      33.325 -24.301 -17.473  0.00  0.00    -0.384 OA
ATOM     24  H   UNL     1      32.612 -24.784 -17.025  0.00  0.00    +0.210 HD
ENDBRANCH  11  23
BRANCH   7  26
ATOM     25  O   UNL     1      33.942 -24.665 -12.484  0.00  0.00    -0.284 OA
ATOM     26  C   UNL     1      35.109 -24.345 -12.651  0.00  0.00    +0.247 C 
BRANCH  26  28
ATOM     27  O   UNL     1      36.504 -24.653 -10.746  0.00  0.00    -0.242 OA
ATOM     28  C   UNL     1      36.154 -25.054 -11.837  0.00  0.00    +0.373 C 
BRANCH  28  29
ATOM     29  O   UNL     1      36.554 -26.164 -12.471  0.00  0.00    -0.475 OA
ATOM     30  H   UNL     1      37.319 -26.620 -12.179  0.00  0.00    +0.295 HD
ENDBRANCH  28  29
ENDBRANCH  26  28
ENDBRANCH   7  26
TORSDOF 4
ENDMDL
MODEL 2
REMARK VINA RESULT:      -7.5      6.462     10.343
REMARK  Name = 22875828
REMARK  4 active torsions:
REMARK  status: ('A' for Active; 'I' for Inactive)
REMARK    1  A    between atoms: C_7  and  C_26
REMARK    2  A    between atoms: C_11  and  O_23
REMARK    3  A    between atoms: C_26  and  C_28
REMARK    4  A    between atoms: C_28  and  O_29
REMARK                            x       y       z     vdW  Elec       q    Type
REMARK                         _______ _______ _______ _____ _____    ______ ____
ROOT
ATOM      1  F   UNL     1      32.880 -13.995 -27.475  0.00  0.00    -0.233 F 
ATOM      2  O   UNL     1      35.185  -9.876 -26.150  0.00  0.00    -0.287 OA
ATOM      3  C   UNL     1      34.461 -17.121 -22.335  0.00  0.00    +0.009 C 
ATOM      4  C   UNL     1      34.407 -16.827 -23.848  0.00  0.00    +0.001 C 
ATOM      5  C   UNL     1      33.580 -15.583 -24.198  0.00  0.00    +0.006 C 
ATOM      6  C   UNL     1      34.228 -14.336 -23.498  0.00  0.00    +0.034 C 
ATOM      7  C   UNL     1      35.326 -18.404 -22.366  0.00  0.00    +0.069 C 
ATOM      8  C   UNL     1      35.133 -15.918 -21.647  0.00  0.00    +0.030 C 
ATOM      9  C   UNL     1      34.030 -18.173 -24.461  0.00  0.00    +0.000 C 
ATOM     10  C   UNL     1      34.767 -19.205 -23.574  0.00  0.00    +0.007 C 
ATOM     11  C   UNL     1      34.442 -14.574 -21.968  0.00  0.00    +0.111 C 
ATOM     12  C   UNL     1      33.509 -12.986 -23.897  0.00  0.00    +0.039 C 
ATOM     13  C   UNL     1      33.514 -15.391 -25.721  0.00  0.00    +0.040 C 
ATOM     14  C   UNL     1      33.075 -17.413 -21.703  0.00  0.00    +0.001 C 
ATOM     15  C   UNL     1      32.819 -14.095 -26.115  0.00  0.00    +0.180 C 
ATOM     16  C   UNL     1      33.472 -12.922 -25.430  0.00  0.00    -0.006 C 
ATOM     17  C   UNL     1      35.879 -19.924 -24.334  0.00  0.00    +0.000 C 
ATOM     18  C   UNL     1      32.059 -12.868 -23.376  0.00  0.00    +0.009 C 
ATOM     19  C   UNL     1      34.267 -11.802 -23.313  0.00  0.00    -0.020 C 
ATOM     20  C   UNL     1      34.014 -11.922 -26.144  0.00  0.00    +0.036 C 
ATOM     21  C   UNL     1      34.809 -10.806 -24.020  0.00  0.00    +0.038 C 
ATOM     22  C   UNL     1      34.706 -10.792 -25.490  0.00  0.00    +0.195 C 
ENDROOT
BRANCH  11  23
ATOM     23  O   UNL     1      33.214 -14.491 -21.259  0.00  0.00    -0.384 OA
ATOM     24  H   UNL     1      33.062 -15.321 -20.778  0.00  0.00    +0.210 HD
ENDBRANCH  11  23
BRANCH   7  26
ATOM     25  O   UNL     1      34.278 -19.584 -20.538  0.00  0.00    -0.284 OA
ATOM     26  C   UNL     1      35.294 -19.191 -21.091  0.00  0.00    +0.247 C 
BRANCH  26  28
ATOM     27  O   UNL     1      36.690 -20.165 -19.427  0.00  0.00    -0.242 OA
ATOM     28  C   UNL     1      36.613 -19.523 -20.454  0.00  0.00    +0.373 C 
BRANCH  28  29
ATOM     29  O   UNL     1      37.617 -19.060 -21.210  0.00  0.00    -0.475 OA
ATOM     30  H   UNL     1      37.917 -18.179 -21.103  0.00  0.00    +0.295 HD
ENDBRANCH  28  29
ENDBRANCH  26  28
ENDBRANCH   7  26
TORSDOF 4
ENDMDL
MODEL 3
REMARK VINA RESULT:      -7.5     14.022     19.423
REMARK  Name = 22875828
REMARK  4 active torsions:
REMARK  status: ('A' for Active; 'I' for Inactive)
REMARK    1  A    between atoms: C_7  and  C_26
REMARK    2  A    between atoms: C_11  and  O_23
REMARK    3  A    between atoms: C_26  and  C_28
REMARK    4  A    between atoms: C_28  and  O_29
REMARK                            x       y       z     vdW  Elec       q    Type
REMARK                         _______ _______ _______ _____ _____    ______ ____
ROOT
ATOM      1  F   UNL     1      35.497  -9.464 -24.652  0.00  0.00    -0.233 F 
ATOM      2  O   UNL     1      32.191 -12.729 -23.086  0.00  0.00    -0.287 OA
ATOM      3  C   UNL     1      31.602  -4.625 -24.326  0.00  0.00    +0.009 C 
ATOM      4  C   UNL     1      32.549  -5.631 -25.010  0.00  0.00    +0.001 C 
ATOM      5  C   UNL     1      33.174  -6.640 -24.037  0.00  0.00    +0.006 C 
ATOM      6  C   UNL     1      32.021  -7.463 -23.360  0.00  0.00    +0.034 C 
ATOM      7  C   UNL     1      31.197  -3.789 -25.564  0.00  0.00    +0.069 C 
ATOM      8  C   UNL     1      30.447  -5.424 -23.694  0.00  0.00    +0.030 C 
ATOM      9  C   UNL     1      33.460  -4.746 -25.856  0.00  0.00    +0.000 C 
ATOM     10  C   UNL     1      32.526  -3.614 -26.350  0.00  0.00    +0.007 C 
ATOM     11  C   UNL     1      30.933  -6.533 -22.733  0.00  0.00    +0.111 C 
ATOM     12  C   UNL     1      32.576  -8.610 -22.425  0.00  0.00    +0.039 C 
ATOM     13  C   UNL     1      34.155  -7.564 -24.776  0.00  0.00    +0.040 C 
ATOM     14  C   UNL     1      32.297  -3.730 -23.267  0.00  0.00    +0.001 C 
ATOM     15  C   UNL     1      34.699  -8.669 -23.881  0.00  0.00    +0.180 C 
ATOM     16  C   UNL     1      33.564  -9.440 -23.254  0.00  0.00    -0.006 C 
ATOM     17  C   UNL     1      32.298  -3.676 -27.858  0.00  0.00    +0.000 C 
ATOM     18  C   UNL     1      33.317  -8.094 -21.170  0.00  0.00    +0.009 C 
ATOM     19  C   UNL     1      31.426  -9.467 -21.915  0.00  0.00    -0.020 C 
ATOM     20  C   UNL     1      33.431 -10.760 -23.463  0.00  0.00    +0.036 C 
ATOM     21  C   UNL     1      31.289 -10.780 -22.122  0.00  0.00    +0.038 C 
ATOM     22  C   UNL     1      32.296 -11.521 -22.902  0.00  0.00    +0.195 C 
ENDROOT
BRANCH  11  23
ATOM     23  O   UNL     1      31.393  -5.945 -21.525  0.00  0.00    -0.384 OA
ATOM     24  H   UNL     1      31.200  -6.539 -20.782  0.00  0.00    +0.210 HD
ENDBRANCH  11  23
BRANCH   7  26
ATOM     25  O   UNL     1      30.835  -1.787 -24.261  0.00  0.00    -0.284 OA
ATOM     26  C   UNL     1      30.553  -2.478 -25.228  0.00  0.00    +0.247 C 
BRANCH  26  28
ATOM     27  O   UNL     1      29.697  -1.786 -27.339  0.00  0.00    -0.242 OA
ATOM     28  C   UNL     1      29.485  -1.978 -26.159  0.00  0.00    +0.373 C 
BRANCH  28  29
ATOM     29  O   UNL     1      28.325  -1.852 -25.502  0.00  0.00    -0.475 OA
ATOM     30  H   UNL     1      28.199  -2.293 -24.684  0.00  0.00    +0.295 HD
ENDBRANCH  28  29
ENDBRANCH  26  28
ENDBRANCH   7  26
TORSDOF 4
ENDMDL
MODEL 4
REMARK VINA RESULT:      -7.0      9.183     14.686
REMARK  Name = 22875828
REMARK  4 active torsions:
REMARK  status: ('A' for Active; 'I' for Inactive)
REMARK    1  A    between atoms: C_7  and  C_26
REMARK    2  A    between atoms: C_11  and  O_23
REMARK    3  A    between atoms: C_26  and  C_28
REMARK    4  A    between atoms: C_28  and  O_29
REMARK                            x       y       z     vdW  Elec       q    Type
REMARK                         _______ _______ _______ _____ _____    ______ ____
ROOT
ATOM      1  F   UNL     1      31.654 -14.719 -20.193  0.00  0.00    -0.233 F 
ATOM      2  O   UNL     1      35.520 -17.282 -21.781  0.00  0.00    -0.287 OA
ATOM      3  C   UNL     1      33.135  -9.578 -23.366  0.00  0.00    +0.009 C 
ATOM      4  C   UNL     1      32.847 -10.429 -22.113  0.00  0.00    +0.001 C 
ATOM      5  C   UNL     1      32.464 -11.880 -22.436  0.00  0.00    +0.006 C 
ATOM      6  C   UNL     1      33.658 -12.554 -23.202  0.00  0.00    +0.034 C 
ATOM      7  C   UNL     1      33.451  -8.228 -22.676  0.00  0.00    +0.069 C 
ATOM      8  C   UNL     1      34.331 -10.212 -24.099  0.00  0.00    +0.030 C 
ATOM      9  C   UNL     1      31.883  -9.564 -21.305  0.00  0.00    +0.000 C 
ATOM     10  C   UNL     1      32.382  -8.120 -21.554  0.00  0.00    +0.007 C 
ATOM     11  C   UNL     1      34.115 -11.705 -24.431  0.00  0.00    +0.111 C 
ATOM     12  C   UNL     1      33.401 -14.090 -23.475  0.00  0.00    +0.039 C 
ATOM     13  C   UNL     1      32.127 -12.647 -21.149  0.00  0.00    +0.040 C 
ATOM     14  C   UNL     1      31.919  -9.432 -24.317  0.00  0.00    +0.001 C 
ATOM     15  C   UNL     1      31.872 -14.127 -21.403  0.00  0.00    +0.180 C 
ATOM     16  C   UNL     1      33.041 -14.741 -22.133  0.00  0.00    -0.006 C 
ATOM     17  C   UNL     1      32.957  -7.486 -20.290  0.00  0.00    +0.000 C 
ATOM     18  C   UNL     1      32.249 -14.367 -24.467  0.00  0.00    +0.009 C 
ATOM     19  C   UNL     1      34.644 -14.725 -24.081  0.00  0.00    -0.020 C 
ATOM     20  C   UNL     1      33.728 -15.762 -21.596  0.00  0.00    +0.036 C 
ATOM     21  C   UNL     1      35.332 -15.740 -23.549  0.00  0.00    +0.038 C 
ATOM     22  C   UNL     1      34.908 -16.339 -22.271  0.00  0.00    +0.195 C 
ENDROOT
BRANCH  11  23
ATOM     23  O   UNL     1      33.194 -11.822 -25.507  0.00  0.00    -0.384 OA
ATOM     24  H   UNL     1      32.543 -12.512 -25.301  0.00  0.00    +0.210 HD
ENDBRANCH  11  23
BRANCH   7  26
ATOM     25  O   UNL     1      34.311  -6.774 -24.403  0.00  0.00    -0.284 OA
ATOM     26  C   UNL     1      33.429  -7.051 -23.604  0.00  0.00    +0.247 C 
BRANCH  26  28
ATOM     27  O   UNL     1      32.112  -5.281 -22.710  0.00  0.00    -0.242 OA
ATOM     28  C   UNL     1      32.227  -6.153 -23.547  0.00  0.00    +0.373 C 
BRANCH  28  29
ATOM     29  O   UNL     1      31.394  -6.436 -24.557  0.00  0.00    -0.475 OA
ATOM     30  H   UNL     1      31.544  -6.066 -25.406  0.00  0.00    +0.295 HD
ENDBRANCH  28  29
ENDBRANCH  26  28
ENDBRANCH   7  26
TORSDOF 4
ENDMDL
MODEL 5
REMARK VINA RESULT:      -6.7      2.331      7.671
REMARK  Name = 22875828
REMARK  4 active torsions:
REMARK  status: ('A' for Active; 'I' for Inactive)
REMARK    1  A    between atoms: C_7  and  C_26
REMARK    2  A    between atoms: C_11  and  O_23
REMARK    3  A    between atoms: C_26  and  C_28
REMARK    4  A    between atoms: C_28  and  O_29
REMARK                            x       y       z     vdW  Elec       q    Type
REMARK                         _______ _______ _______ _____ _____    ______ ____
ROOT
ATOM      1  F   UNL     1      32.939 -25.282 -14.798  0.00  0.00    -0.233 F 
ATOM      2  O   UNL     1      35.133 -23.641 -10.732  0.00  0.00    -0.287 OA
ATOM      3  C   UNL     1      36.015 -21.442 -18.602  0.00  0.00    +0.009 C 
ATOM      4  C   UNL     1      34.780 -22.056 -17.914  0.00  0.00    +0.001 C 
ATOM      5  C   UNL     1      35.124 -23.207 -16.958  0.00  0.00    +0.006 C 
ATOM      6  C   UNL     1      36.068 -22.656 -15.830  0.00  0.00    +0.034 C 
ATOM      7  C   UNL     1      35.306 -20.374 -19.470  0.00  0.00    +0.069 C 
ATOM      8  C   UNL     1      36.926 -20.865 -17.503  0.00  0.00    +0.030 C 
ATOM      9  C   UNL     1      33.814 -22.307 -19.068  0.00  0.00    +0.000 C 
ATOM     10  C   UNL     1      34.052 -21.109 -20.020  0.00  0.00    +0.007 C 
ATOM     11  C   UNL     1      37.302 -21.902 -16.422  0.00  0.00    +0.111 C 
ATOM     12  C   UNL     1      36.382 -23.746 -14.730  0.00  0.00    +0.039 C 
ATOM     13  C   UNL     1      33.843 -23.812 -16.362  0.00  0.00    +0.040 C 
ATOM     14  C   UNL     1      36.795 -22.440 -19.497  0.00  0.00    +0.001 C 
ATOM     15  C   UNL     1      34.136 -24.867 -15.304  0.00  0.00    +0.180 C 
ATOM     16  C   UNL     1      35.039 -24.301 -14.237  0.00  0.00    -0.006 C 
ATOM     17  C   UNL     1      32.842 -20.180 -20.087  0.00  0.00    +0.000 C 
ATOM     18  C   UNL     1      37.231 -24.931 -15.243  0.00  0.00    +0.009 C 
ATOM     19  C   UNL     1      37.173 -23.121 -13.590  0.00  0.00    -0.020 C 
ATOM     20  C   UNL     1      34.645 -24.260 -12.953  0.00  0.00    +0.036 C 
ATOM     21  C   UNL     1      36.784 -23.077 -12.312  0.00  0.00    +0.038 C 
ATOM     22  C   UNL     1      35.494 -23.660 -11.904  0.00  0.00    +0.195 C 
ENDROOT
BRANCH  11  23
ATOM     23  O   UNL     1      38.255 -22.813 -16.950  0.00  0.00    -0.384 OA
ATOM     24  H   UNL     1      38.607 -22.465 -17.785  0.00  0.00    +0.210 HD
ENDBRANCH  11  23
BRANCH   7  26
ATOM     25  O   UNL     1      37.369 -19.981 -20.663  0.00  0.00    -0.284 OA
ATOM     26  C   UNL     1      36.164 -19.809 -20.561  0.00  0.00    +0.247 C 
BRANCH  26  28
ATOM     27  O   UNL     1      35.168 -19.428 -22.690  0.00  0.00    -0.242 OA
ATOM     28  C   UNL     1      35.483 -18.975 -21.608  0.00  0.00    +0.373 C 
BRANCH  28  29
ATOM     29  O   UNL     1      35.253 -17.743 -21.136  0.00  0.00    -0.475 OA
ATOM     30  H   UNL     1      35.730 -17.429 -20.392  0.00  0.00    +0.295 HD
ENDBRANCH  28  29
ENDBRANCH  26  28
ENDBRANCH   7  26
TORSDOF 4
ENDMDL
