MODEL 1
REMARK VINA RESULT:     -14.1      0.000      0.000
REMARK  Name = 25145656
REMARK  4 active torsions:
REMARK  status: ('A' for Active; 'I' for Inactive)
REMARK    1  A    between atoms: C_5  and  C_22
REMARK    2  A    between atoms: C_8  and  C_11
REMARK    3  A    between atoms: C_14  and  C_19
REMARK    4  A    between atoms: C_22  and  C_24
REMARK                            x       y       z     vdW  Elec       q    Type
REMARK                         _______ _______ _______ _____ _____    ______ ____
ROOT
ATOM      1  N   UNL     1      34.253 -16.184 -24.100  0.00  0.00    -0.134 N 
ATOM      2  N   UNL     1      33.950 -15.027 -23.471  0.00  0.00    -0.168 NA
ATOM      3  N   UNL     1      34.478 -17.687 -25.716  0.00  0.00    -0.178 NA
ATOM      4  N   UNL     1      33.483 -15.546 -26.251  0.00  0.00    -0.200 NA
ATOM      5  C   UNL     1      34.826 -17.284 -23.520  0.00  0.00    +0.086 C 
ATOM      6  C   UNL     1      34.054 -16.468 -25.437  0.00  0.00    +0.114 C 
ATOM      7  C   UNL     1      34.954 -18.197 -24.537  0.00  0.00    +0.124 C 
ATOM      8  C   UNL     1      33.422 -14.123 -24.240  0.00  0.00    +0.103 C 
ATOM      9  C   UNL     1      33.168 -14.421 -25.698  0.00  0.00    +0.184 C 
ENDROOT
BRANCH   8  11
ATOM     10  F   UNL     1      30.884 -11.380 -21.144  0.00  0.00    -0.204 F 
ATOM     11  C   UNL     1      33.058 -12.797 -23.689  0.00  0.00    +0.019 C 
ATOM     12  C   UNL     1      32.125 -12.705 -22.657  0.00  0.00    +0.031 C 
ATOM     13  C   UNL     1      33.649 -11.642 -24.201  0.00  0.00    +0.002 C 
ATOM     14  C   UNL     1      32.372 -10.301 -22.649  0.00  0.00    +0.081 C 
ATOM     15  C   UNL     1      31.782 -11.457 -22.137  0.00  0.00    +0.144 C 
ATOM     16  C   UNL     1      33.306 -10.395 -23.681  0.00  0.00    +0.007 C 
BRANCH  14  19
ATOM     17  O   UNL     1      31.232  -8.253 -22.721  0.00  0.00    -0.270 OA
ATOM     18  N   UNL     1      32.582  -8.647 -20.878  0.00  0.00    -0.299 N 
ATOM     19  C   UNL     1      32.018  -8.998 -22.110  0.00  0.00    +0.248 C 
ATOM     20  C   UNL     1      32.310  -7.399 -20.201  0.00  0.00    +0.111 C 
ATOM     21  H   UNL     1      33.198  -9.284 -20.448  0.00  0.00    +0.150 HD
ENDBRANCH  14  19
ENDBRANCH   8  11
BRANCH   5  22
ATOM     22  C   UNL     1      35.195 -17.357 -22.052  0.00  0.00    +0.068 C 
BRANCH  22  24
ATOM     23  N   UNL     1      32.895 -21.760 -19.342  0.00  0.00    -0.248 NA
ATOM     24  C   UNL     1      34.598 -18.520 -21.335  0.00  0.00    -0.038 C 
ATOM     25  C   UNL     1      35.419 -19.453 -20.708  0.00  0.00    +0.050 C 
ATOM     26  C   UNL     1      34.861 -20.550 -20.032  0.00  0.00    -0.004 C 
ATOM     27  C   UNL     1      33.218 -18.681 -21.289  0.00  0.00    -0.028 C 
ATOM     28  C   UNL     1      33.461 -20.720 -19.981  0.00  0.00    +0.060 C 
ATOM     29  C   UNL     1      32.664 -19.772 -20.616  0.00  0.00    +0.071 C 
ATOM     30  C   UNL     1      35.665 -21.503 -19.392  0.00  0.00    -0.001 C 
ATOM     31  C   UNL     1      35.083 -22.578 -18.732  0.00  0.00    +0.020 C 
ATOM     32  C   UNL     1      33.706 -22.658 -18.737  0.00  0.00    +0.098 C 
ENDBRANCH  22  24
ENDBRANCH   5  22
TORSDOF 4
ENDMDL
MODEL 2
REMARK VINA RESULT:     -14.0      1.076      1.589
REMARK  Name = 25145656
REMARK  4 active torsions:
REMARK  status: ('A' for Active; 'I' for Inactive)
REMARK    1  A    between atoms: C_5  and  C_22
REMARK    2  A    between atoms: C_8  and  C_11
REMARK    3  A    between atoms: C_14  and  C_19
REMARK    4  A    between atoms: C_22  and  C_24
REMARK                            x       y       z     vdW  Elec       q    Type
REMARK                         _______ _______ _______ _____ _____    ______ ____
ROOT
ATOM      1  N   UNL     1      34.374 -16.119 -24.046  0.00  0.00    -0.134 N 
ATOM      2  N   UNL     1      34.131 -14.904 -23.509  0.00  0.00    -0.168 NA
ATOM      3  N   UNL     1      34.452 -17.774 -25.523  0.00  0.00    -0.178 NA
ATOM      4  N   UNL     1      33.424 -15.682 -26.176  0.00  0.00    -0.200 NA
ATOM      5  C   UNL     1      34.990 -17.165 -23.414  0.00  0.00    +0.086 C 
ATOM      6  C   UNL     1      34.060 -16.528 -25.328  0.00  0.00    +0.114 C 
ATOM      7  C   UNL     1      35.027 -18.173 -24.345  0.00  0.00    +0.124 C 
ATOM      8  C   UNL     1      33.542 -14.071 -24.315  0.00  0.00    +0.103 C 
ATOM      9  C   UNL     1      33.162 -14.505 -25.709  0.00  0.00    +0.184 C 
ENDROOT
BRANCH   8  11
ATOM     10  F   UNL     1      31.151 -11.005 -21.411  0.00  0.00    -0.204 F 
ATOM     11  C   UNL     1      33.233 -12.694 -23.865  0.00  0.00    +0.019 C 
ATOM     12  C   UNL     1      32.321 -12.488 -22.830  0.00  0.00    +0.031 C 
ATOM     13  C   UNL     1      33.853 -11.605 -24.476  0.00  0.00    +0.002 C 
ATOM     14  C   UNL     1      32.649 -10.101 -23.017  0.00  0.00    +0.081 C 
ATOM     15  C   UNL     1      32.029 -11.192 -22.407  0.00  0.00    +0.144 C 
ATOM     16  C   UNL     1      33.561 -10.309 -24.052  0.00  0.00    +0.007 C 
BRANCH  14  19
ATOM     17  O   UNL     1      33.016  -8.214 -21.675  0.00  0.00    -0.270 OA
ATOM     18  N   UNL     1      31.303  -8.086 -23.232  0.00  0.00    -0.299 N 
ATOM     19  C   UNL     1      32.348  -8.748 -22.578  0.00  0.00    +0.248 C 
ATOM     20  C   UNL     1      30.900  -6.732 -22.926  0.00  0.00    +0.111 C 
ATOM     21  H   UNL     1      30.814  -8.568 -23.938  0.00  0.00    +0.150 HD
ENDBRANCH  14  19
ENDBRANCH   8  11
BRANCH   5  22
ATOM     22  C   UNL     1      35.484 -17.101 -21.982  0.00  0.00    +0.068 C 
BRANCH  22  24
ATOM     23  N   UNL     1      35.495 -22.094 -19.319  0.00  0.00    -0.248 NA
ATOM     24  C   UNL     1      35.477 -18.416 -21.280  0.00  0.00    -0.038 C 
ATOM     25  C   UNL     1      34.272 -18.997 -20.895  0.00  0.00    +0.050 C 
ATOM     26  C   UNL     1      34.260 -20.237 -20.233  0.00  0.00    -0.004 C 
ATOM     27  C   UNL     1      36.672 -19.070 -21.007  0.00  0.00    -0.028 C 
ATOM     28  C   UNL     1      35.470 -20.906 -19.952  0.00  0.00    +0.060 C 
ATOM     29  C   UNL     1      36.660 -20.302 -20.349  0.00  0.00    +0.071 C 
ATOM     30  C   UNL     1      33.062 -20.845 -19.835  0.00  0.00    -0.001 C 
ATOM     31  C   UNL     1      33.085 -22.070 -19.182  0.00  0.00    +0.020 C 
ATOM     32  C   UNL     1      34.315 -22.647 -18.951  0.00  0.00    +0.098 C 
ENDBRANCH  22  24
ENDBRANCH   5  22
TORSDOF 4
ENDMDL
MODEL 3
REMARK VINA RESULT:     -13.7      1.484      2.070
REMARK  Name = 25145656
REMARK  4 active torsions:
REMARK  status: ('A' for Active; 'I' for Inactive)
REMARK    1  A    between atoms: C_5  and  C_22
REMARK    2  A    between atoms: C_8  and  C_11
REMARK    3  A    between atoms: C_14  and  C_19
REMARK    4  A    between atoms: C_22  and  C_24
REMARK                            x       y       z     vdW  Elec       q    Type
REMARK                         _______ _______ _______ _____ _____    ______ ____
ROOT
ATOM      1  N   UNL     1      34.228 -15.985 -23.998  0.00  0.00    -0.134 N 
ATOM      2  N   UNL     1      34.051 -14.755 -23.468  0.00  0.00    -0.168 NA
ATOM      3  N   UNL     1      34.184 -17.659 -25.454  0.00  0.00    -0.178 NA
ATOM      4  N   UNL     1      33.206 -15.538 -26.092  0.00  0.00    -0.200 NA
ATOM      5  C   UNL     1      34.831 -17.045 -23.377  0.00  0.00    +0.086 C 
ATOM      6  C   UNL     1      33.845 -16.397 -25.260  0.00  0.00    +0.114 C 
ATOM      7  C   UNL     1      34.792 -18.065 -24.295  0.00  0.00    +0.124 C 
ATOM      8  C   UNL     1      33.460 -13.911 -24.260  0.00  0.00    +0.103 C 
ATOM      9  C   UNL     1      33.006 -14.347 -25.631  0.00  0.00    +0.184 C 
ENDROOT
BRANCH   8  11
ATOM     10  F   UNL     1      34.409  -9.159 -24.535  0.00  0.00    -0.204 F 
ATOM     11  C   UNL     1      33.220 -12.518 -23.816  0.00  0.00    +0.019 C 
ATOM     12  C   UNL     1      33.939 -11.470 -24.392  0.00  0.00    +0.031 C 
ATOM     13  C   UNL     1      32.275 -12.255 -22.825  0.00  0.00    +0.002 C 
ATOM     14  C   UNL     1      32.768  -9.894 -22.983  0.00  0.00    +0.081 C 
ATOM     15  C   UNL     1      33.712 -10.159 -23.975  0.00  0.00    +0.144 C 
ATOM     16  C   UNL     1      32.050 -10.943 -22.408  0.00  0.00    +0.007 C 
BRANCH  14  19
ATOM     17  O   UNL     1      32.954  -8.133 -21.446  0.00  0.00    -0.270 OA
ATOM     18  N   UNL     1      31.827  -7.695 -23.424  0.00  0.00    -0.299 N 
ATOM     19  C   UNL     1      32.529  -8.529 -22.546  0.00  0.00    +0.248 C 
ATOM     20  C   UNL     1      31.532  -6.308 -23.145  0.00  0.00    +0.111 C 
ATOM     21  H   UNL     1      31.518  -8.073 -24.279  0.00  0.00    +0.150 HD
ENDBRANCH  14  19
ENDBRANCH   8  11
BRANCH   5  22
ATOM     22  C   UNL     1      35.386 -16.982 -21.969  0.00  0.00    +0.068 C 
BRANCH  22  24
ATOM     23  N   UNL     1      35.557 -21.983 -19.327  0.00  0.00    -0.248 NA
ATOM     24  C   UNL     1      35.421 -18.300 -21.272  0.00  0.00    -0.038 C 
ATOM     25  C   UNL     1      34.235 -18.939 -20.924  0.00  0.00    +0.050 C 
ATOM     26  C   UNL     1      34.263 -20.181 -20.268  0.00  0.00    -0.004 C 
ATOM     27  C   UNL     1      36.637 -18.898 -20.968  0.00  0.00    -0.028 C 
ATOM     28  C   UNL     1      35.494 -20.795 -19.955  0.00  0.00    +0.060 C 
ATOM     29  C   UNL     1      36.665 -20.133 -20.316  0.00  0.00    +0.071 C 
ATOM     30  C   UNL     1      33.084 -20.847 -19.906  0.00  0.00    -0.001 C 
ATOM     31  C   UNL     1      33.145 -22.073 -19.258  0.00  0.00    +0.020 C 
ATOM     32  C   UNL     1      34.395 -22.593 -18.995  0.00  0.00    +0.098 C 
ENDBRANCH  22  24
ENDBRANCH   5  22
TORSDOF 4
ENDMDL
MODEL 4
REMARK VINA RESULT:     -13.2      3.560      9.599
REMARK  Name = 25145656
REMARK  4 active torsions:
REMARK  status: ('A' for Active; 'I' for Inactive)
REMARK    1  A    between atoms: C_5  and  C_22
REMARK    2  A    between atoms: C_8  and  C_11
REMARK    3  A    between atoms: C_14  and  C_19
REMARK    4  A    between atoms: C_22  and  C_24
REMARK                            x       y       z     vdW  Elec       q    Type
REMARK                         _______ _______ _______ _____ _____    ______ ____
ROOT
ATOM      1  N   UNL     1      33.740 -15.738 -24.115  0.00  0.00    -0.134 N 
ATOM      2  N   UNL     1      33.999 -16.511 -23.038  0.00  0.00    -0.168 NA
ATOM      3  N   UNL     1      33.620 -15.071 -26.228  0.00  0.00    -0.178 NA
ATOM      4  N   UNL     1      34.633 -17.215 -25.743  0.00  0.00    -0.200 NA
ATOM      5  C   UNL     1      33.140 -14.508 -24.092  0.00  0.00    +0.086 C 
ATOM      6  C   UNL     1      34.020 -16.047 -25.432  0.00  0.00    +0.114 C 
ATOM      7  C   UNL     1      33.078 -14.117 -25.406  0.00  0.00    +0.124 C 
ATOM      8  C   UNL     1      34.566 -17.646 -23.317  0.00  0.00    +0.103 C 
ATOM      9  C   UNL     1      34.909 -17.991 -24.746  0.00  0.00    +0.184 C 
ENDROOT
BRANCH   8  11
ATOM     10  F   UNL     1      33.197 -20.986 -20.074  0.00  0.00    -0.204 F 
ATOM     11  C   UNL     1      34.890 -18.603 -22.234  0.00  0.00    +0.019 C 
ATOM     12  C   UNL     1      33.876 -19.361 -21.649  0.00  0.00    +0.031 C 
ATOM     13  C   UNL     1      36.208 -18.747 -21.800  0.00  0.00    +0.002 C 
ATOM     14  C   UNL     1      35.497 -20.406 -20.194  0.00  0.00    +0.081 C 
ATOM     15  C   UNL     1      34.180 -20.263 -20.629  0.00  0.00    +0.144 C 
ATOM     16  C   UNL     1      36.511 -19.648 -20.780  0.00  0.00    +0.007 C 
BRANCH  14  19
ATOM     17  O   UNL     1      35.320 -22.485 -19.124  0.00  0.00    -0.270 OA
ATOM     18  N   UNL     1      36.721 -20.913 -18.153  0.00  0.00    -0.299 N 
ATOM     19  C   UNL     1      35.819 -21.346 -19.132  0.00  0.00    +0.248 C 
ATOM     20  C   UNL     1      37.157 -21.737 -17.049  0.00  0.00    +0.111 C 
ATOM     21  H   UNL     1      37.077 -19.998 -18.219  0.00  0.00    +0.150 HD
ENDBRANCH  14  19
ENDBRANCH   8  11
BRANCH   5  22
ATOM     22  C   UNL     1      32.686 -13.825 -22.818  0.00  0.00    +0.068 C 
BRANCH  22  24
ATOM     23  N   UNL     1      32.612  -8.174 -23.111  0.00  0.00    -0.248 NA
ATOM     24  C   UNL     1      32.675 -12.336 -22.900  0.00  0.00    -0.038 C 
ATOM     25  C   UNL     1      33.709 -11.663 -23.545  0.00  0.00    +0.050 C 
ATOM     26  C   UNL     1      33.703 -10.261 -23.626  0.00  0.00    -0.004 C 
ATOM     27  C   UNL     1      31.633 -11.611 -22.334  0.00  0.00    -0.028 C 
ATOM     28  C   UNL     1      32.649  -9.518 -23.053  0.00  0.00    +0.060 C 
ATOM     29  C   UNL     1      31.628 -10.217 -22.414  0.00  0.00    +0.071 C 
ATOM     30  C   UNL     1      34.730  -9.558 -24.270  0.00  0.00    -0.001 C 
ATOM     31  C   UNL     1      34.695  -8.172 -24.331  0.00  0.00    +0.020 C 
ATOM     32  C   UNL     1      33.624  -7.534 -23.742  0.00  0.00    +0.098 C 
ENDBRANCH  22  24
ENDBRANCH   5  22
TORSDOF 4
ENDMDL
MODEL 5
REMARK VINA RESULT:     -12.9      3.537      9.632
REMARK  Name = 25145656
REMARK  4 active torsions:
REMARK  status: ('A' for Active; 'I' for Inactive)
REMARK    1  A    between atoms: C_5  and  C_22
REMARK    2  A    between atoms: C_8  and  C_11
REMARK    3  A    between atoms: C_14  and  C_19
REMARK    4  A    between atoms: C_22  and  C_24
REMARK                            x       y       z     vdW  Elec       q    Type
REMARK                         _______ _______ _______ _____ _____    ______ ____
ROOT
ATOM      1  N   UNL     1      33.821 -15.876 -24.228  0.00  0.00    -0.134 N 
ATOM      2  N   UNL     1      34.105 -16.594 -23.118  0.00  0.00    -0.168 NA
ATOM      3  N   UNL     1      33.609 -15.336 -26.369  0.00  0.00    -0.178 NA
ATOM      4  N   UNL     1      34.535 -17.500 -25.803  0.00  0.00    -0.200 NA
ATOM      5  C   UNL     1      33.290 -14.615 -24.251  0.00  0.00    +0.086 C 
ATOM      6  C   UNL     1      34.004 -16.281 -25.535  0.00  0.00    +0.114 C 
ATOM      7  C   UNL     1      33.168 -14.304 -25.582  0.00  0.00    +0.124 C 
ATOM      8  C   UNL     1      34.593 -17.774 -23.355  0.00  0.00    +0.103 C 
ATOM      9  C   UNL     1      34.829 -18.226 -24.776  0.00  0.00    +0.184 C 
ENDROOT
BRANCH   8  11
ATOM     10  F   UNL     1      33.288 -21.052 -20.023  0.00  0.00    -0.204 F 
ATOM     11  C   UNL     1      34.931 -18.679 -22.232  0.00  0.00    +0.019 C 
ATOM     12  C   UNL     1      33.935 -19.457 -21.641  0.00  0.00    +0.031 C 
ATOM     13  C   UNL     1      36.243 -18.752 -21.766  0.00  0.00    +0.002 C 
ATOM     14  C   UNL     1      35.565 -20.383 -20.116  0.00  0.00    +0.081 C 
ATOM     15  C   UNL     1      34.253 -20.309 -20.584  0.00  0.00    +0.144 C 
ATOM     16  C   UNL     1      36.560 -19.604 -20.708  0.00  0.00    +0.007 C 
BRANCH  14  19
ATOM     17  O   UNL     1      35.406 -22.410 -18.948  0.00  0.00    -0.270 OA
ATOM     18  N   UNL     1      36.810 -20.789 -18.066  0.00  0.00    -0.299 N 
ATOM     19  C   UNL     1      35.900 -21.270 -19.015  0.00  0.00    +0.248 C 
ATOM     20  C   UNL     1      37.261 -21.559 -16.929  0.00  0.00    +0.111 C 
ATOM     21  H   UNL     1      37.163 -19.877 -18.179  0.00  0.00    +0.150 HD
ENDBRANCH  14  19
ENDBRANCH   8  11
BRANCH   5  22
ATOM     22  C   UNL     1      32.950 -13.829 -23.001  0.00  0.00    +0.068 C 
BRANCH  22  24
ATOM     23  N   UNL     1      33.477  -8.230 -23.631  0.00  0.00    -0.248 NA
ATOM     24  C   UNL     1      33.081 -12.352 -23.160  0.00  0.00    -0.038 C 
ATOM     25  C   UNL     1      32.278 -11.493 -22.415  0.00  0.00    +0.050 C 
ATOM     26  C   UNL     1      32.399 -10.102 -22.561  0.00  0.00    -0.004 C 
ATOM     27  C   UNL     1      34.006 -11.825 -24.053  0.00  0.00    -0.028 C 
ATOM     28  C   UNL     1      33.336  -9.558 -23.466  0.00  0.00    +0.060 C 
ATOM     29  C   UNL     1      34.126 -10.441 -24.198  0.00  0.00    +0.071 C 
ATOM     30  C   UNL     1      31.604  -9.214 -21.824  0.00  0.00    -0.001 C 
ATOM     31  C   UNL     1      31.747  -7.844 -21.992  0.00  0.00    +0.020 C 
ATOM     32  C   UNL     1      32.689  -7.407 -22.900  0.00  0.00    +0.098 C 
ENDBRANCH  22  24
ENDBRANCH   5  22
TORSDOF 4
ENDMDL
MODEL 6
REMARK VINA RESULT:     -12.4      3.775      7.383
REMARK  Name = 25145656
REMARK  4 active torsions:
REMARK  status: ('A' for Active; 'I' for Inactive)
REMARK    1  A    between atoms: C_5  and  C_22
REMARK    2  A    between atoms: C_8  and  C_11
REMARK    3  A    between atoms: C_14  and  C_19
REMARK    4  A    between atoms: C_22  and  C_24
REMARK                            x       y       z     vdW  Elec       q    Type
REMARK                         _______ _______ _______ _____ _____    ______ ____
ROOT
ATOM      1  N   UNL     1      31.882  -9.570 -21.002  0.00  0.00    -0.134 N 
ATOM      2  N   UNL     1      31.973  -8.905 -22.174  0.00  0.00    -0.168 NA
ATOM      3  N   UNL     1      31.934  -9.979 -18.822  0.00  0.00    -0.178 NA
ATOM      4  N   UNL     1      32.540  -7.770 -19.605  0.00  0.00    -0.200 NA
ATOM      5  C   UNL     1      31.508 -10.879 -20.851  0.00  0.00    +0.086 C 
ATOM      6  C   UNL     1      32.135  -9.056 -19.745  0.00  0.00    +0.114 C 
ATOM      7  C   UNL     1      31.548 -11.106 -19.498  0.00  0.00    +0.124 C 
ATOM      8  C   UNL     1      32.338  -7.664 -22.058  0.00  0.00    +0.103 C 
ATOM      9  C   UNL     1      32.649  -7.089 -20.698  0.00  0.00    +0.184 C 
ENDROOT
BRANCH   8  11
ATOM     10  F   UNL     1      34.848  -6.115 -25.913  0.00  0.00    -0.204 F 
ATOM     11  C   UNL     1      32.460  -6.808 -23.261  0.00  0.00    +0.019 C 
ATOM     12  C   UNL     1      33.616  -6.861 -24.039  0.00  0.00    +0.031 C 
ATOM     13  C   UNL     1      31.419  -5.951 -23.616  0.00  0.00    +0.002 C 
ATOM     14  C   UNL     1      32.691  -5.198 -25.527  0.00  0.00    +0.081 C 
ATOM     15  C   UNL     1      33.731  -6.056 -25.172  0.00  0.00    +0.144 C 
ATOM     16  C   UNL     1      31.534  -5.146 -24.749  0.00  0.00    +0.007 C 
BRANCH  14  19
ATOM     17  O   UNL     1      32.958  -4.866 -27.833  0.00  0.00    -0.270 OA
ATOM     18  N   UNL     1      32.716  -2.974 -26.515  0.00  0.00    -0.299 N 
ATOM     19  C   UNL     1      32.806  -4.358 -26.708  0.00  0.00    +0.248 C 
ATOM     20  C   UNL     1      32.787  -2.011 -27.589  0.00  0.00    +0.111 C 
ATOM     21  H   UNL     1      32.597  -2.639 -25.597  0.00  0.00    +0.150 HD
ENDBRANCH  14  19
ENDBRANCH   8  11
BRANCH   5  22
ATOM     22  C   UNL     1      31.149 -11.784 -22.012  0.00  0.00    +0.068 C 
BRANCH  22  24
ATOM     23  N   UNL     1      35.111 -15.633 -23.241  0.00  0.00    -0.248 NA
ATOM     24  C   UNL     1      32.190 -12.804 -22.328  0.00  0.00    -0.038 C 
ATOM     25  C   UNL     1      32.330 -13.933 -21.527  0.00  0.00    +0.050 C 
ATOM     26  C   UNL     1      33.309 -14.897 -21.821  0.00  0.00    -0.004 C 
ATOM     27  C   UNL     1      33.028 -12.632 -23.424  0.00  0.00    -0.028 C 
ATOM     28  C   UNL     1      34.163 -14.730 -22.932  0.00  0.00    +0.060 C 
ATOM     29  C   UNL     1      34.001 -13.590 -23.716  0.00  0.00    +0.071 C 
ATOM     30  C   UNL     1      33.470 -16.044 -21.032  0.00  0.00    -0.001 C 
ATOM     31  C   UNL     1      34.448 -16.977 -21.349  0.00  0.00    +0.020 C 
ATOM     32  C   UNL     1      35.234 -16.727 -22.454  0.00  0.00    +0.098 C 
ENDBRANCH  22  24
ENDBRANCH   5  22
TORSDOF 4
ENDMDL
MODEL 7
REMARK VINA RESULT:     -11.9      3.725      7.185
REMARK  Name = 25145656
REMARK  4 active torsions:
REMARK  status: ('A' for Active; 'I' for Inactive)
REMARK    1  A    between atoms: C_5  and  C_22
REMARK    2  A    between atoms: C_8  and  C_11
REMARK    3  A    between atoms: C_14  and  C_19
REMARK    4  A    between atoms: C_22  and  C_24
REMARK                            x       y       z     vdW  Elec       q    Type
REMARK                         _______ _______ _______ _____ _____    ______ ____
ROOT
ATOM      1  N   UNL     1      31.879  -9.779 -20.921  0.00  0.00    -0.134 N 
ATOM      2  N   UNL     1      32.018  -9.094 -22.077  0.00  0.00    -0.168 NA
ATOM      3  N   UNL     1      31.762 -10.206 -18.747  0.00  0.00    -0.178 NA
ATOM      4  N   UNL     1      32.227  -7.941 -19.462  0.00  0.00    -0.200 NA
ATOM      5  C   UNL     1      31.619 -11.118 -20.810  0.00  0.00    +0.086 C 
ATOM      6  C   UNL     1      31.962  -9.257 -19.644  0.00  0.00    +0.114 C 
ATOM      7  C   UNL     1      31.551 -11.357 -19.460  0.00  0.00    +0.124 C 
ATOM      8  C   UNL     1      32.251  -7.825 -21.923  0.00  0.00    +0.103 C 
ATOM      9  C   UNL     1      32.375  -7.240 -20.538  0.00  0.00    +0.184 C 
ENDROOT
BRANCH   8  11
ATOM     10  F   UNL     1      30.511  -4.444 -24.940  0.00  0.00    -0.204 F 
ATOM     11  C   UNL     1      32.405  -6.948 -23.107  0.00  0.00    +0.019 C 
ATOM     12  C   UNL     1      31.369  -6.091 -23.478  0.00  0.00    +0.031 C 
ATOM     13  C   UNL     1      33.585  -6.978 -23.849  0.00  0.00    +0.002 C 
ATOM     14  C   UNL     1      32.694  -5.295 -25.335  0.00  0.00    +0.081 C 
ATOM     15  C   UNL     1      31.514  -5.264 -24.592  0.00  0.00    +0.144 C 
ATOM     16  C   UNL     1      33.729  -6.152 -24.963  0.00  0.00    +0.007 C 
BRANCH  14  19
ATOM     17  O   UNL     1      32.950  -3.202 -26.362  0.00  0.00    -0.270 OA
ATOM     18  N   UNL     1      32.902  -5.059 -27.748  0.00  0.00    -0.299 N 
ATOM     19  C   UNL     1      32.849  -4.434 -26.497  0.00  0.00    +0.248 C 
ATOM     20  C   UNL     1      33.077  -4.345 -28.992  0.00  0.00    +0.111 C 
ATOM     21  H   UNL     1      32.815  -6.039 -27.783  0.00  0.00    +0.150 HD
ENDBRANCH  14  19
ENDBRANCH   8  11
BRANCH   5  22
ATOM     22  C   UNL     1      31.459 -12.039 -22.003  0.00  0.00    +0.068 C 
BRANCH  22  24
ATOM     23  N   UNL     1      34.589 -16.741 -21.668  0.00  0.00    -0.248 NA
ATOM     24  C   UNL     1      32.285 -13.278 -21.925  0.00  0.00    -0.038 C 
ATOM     25  C   UNL     1      32.794 -13.854 -23.085  0.00  0.00    +0.050 C 
ATOM     26  C   UNL     1      33.573 -15.021 -23.016  0.00  0.00    -0.004 C 
ATOM     27  C   UNL     1      32.551 -13.865 -20.694  0.00  0.00    -0.028 C 
ATOM     28  C   UNL     1      33.847 -15.623 -21.769  0.00  0.00    +0.060 C 
ATOM     29  C   UNL     1      33.325 -15.025 -20.625  0.00  0.00    +0.071 C 
ATOM     30  C   UNL     1      34.099 -15.621 -24.168  0.00  0.00    -0.001 C 
ATOM     31  C   UNL     1      34.864 -16.775 -24.066  0.00  0.00    +0.020 C 
ATOM     32  C   UNL     1      35.078 -17.290 -22.804  0.00  0.00    +0.098 C 
ENDBRANCH  22  24
ENDBRANCH   5  22
TORSDOF 4
ENDMDL
MODEL 8
REMARK VINA RESULT:     -11.7      4.047      9.912
REMARK  Name = 25145656
REMARK  4 active torsions:
REMARK  status: ('A' for Active; 'I' for Inactive)
REMARK    1  A    between atoms: C_5  and  C_22
REMARK    2  A    between atoms: C_8  and  C_11
REMARK    3  A    between atoms: C_14  and  C_19
REMARK    4  A    between atoms: C_22  and  C_24
REMARK                            x       y       z     vdW  Elec       q    Type
REMARK                         _______ _______ _______ _____ _____    ______ ____
ROOT
ATOM      1  N   UNL     1      34.244 -16.915 -22.719  0.00  0.00    -0.134 N 
ATOM      2  N   UNL     1      34.191 -17.745 -21.655  0.00  0.00    -0.168 NA
ATOM      3  N   UNL     1      34.547 -16.199 -24.797  0.00  0.00    -0.178 NA
ATOM      4  N   UNL     1      35.013 -18.519 -24.289  0.00  0.00    -0.200 NA
ATOM      5  C   UNL     1      33.919 -15.585 -22.715  0.00  0.00    +0.086 C 
ATOM      6  C   UNL     1      34.624 -17.252 -24.004  0.00  0.00    +0.114 C 
ATOM      7  C   UNL     1      34.114 -15.167 -24.007  0.00  0.00    +0.124 C 
ATOM      8  C   UNL     1      34.539 -18.970 -21.914  0.00  0.00    +0.103 C 
ATOM      9  C   UNL     1      34.986 -19.354 -23.303  0.00  0.00    +0.184 C 
ENDROOT
BRANCH   8  11
ATOM     10  F   UNL     1      36.826 -21.927 -18.819  0.00  0.00    -0.204 F 
ATOM     11  C   UNL     1      34.508 -19.995 -20.844  0.00  0.00    +0.019 C 
ATOM     12  C   UNL     1      35.701 -20.492 -20.322  0.00  0.00    +0.031 C 
ATOM     13  C   UNL     1      33.286 -20.460 -20.359  0.00  0.00    +0.002 C 
ATOM     14  C   UNL     1      34.451 -21.923 -18.829  0.00  0.00    +0.081 C 
ATOM     15  C   UNL     1      35.672 -21.456 -19.314  0.00  0.00    +0.144 C 
ATOM     16  C   UNL     1      33.258 -21.425 -19.352  0.00  0.00    +0.007 C 
BRANCH  14  19
ATOM     17  O   UNL     1      33.724 -23.952 -17.906  0.00  0.00    -0.270 OA
ATOM     18  N   UNL     1      35.208 -22.692 -16.649  0.00  0.00    -0.299 N 
ATOM     19  C   UNL     1      34.416 -22.927 -17.778  0.00  0.00    +0.248 C 
ATOM     20  C   UNL     1      35.300 -23.605 -15.532  0.00  0.00    +0.111 C 
ATOM     21  H   UNL     1      35.732 -21.859 -16.611  0.00  0.00    +0.150 HD
ENDBRANCH  14  19
ENDBRANCH   8  11
BRANCH   5  22
ATOM     22  C   UNL     1      33.454 -14.844 -21.477  0.00  0.00    +0.068 C 
BRANCH  22  24
ATOM     23  N   UNL     1      31.363  -9.688 -22.504  0.00  0.00    -0.248 NA
ATOM     24  C   UNL     1      32.910 -13.484 -21.755  0.00  0.00    -0.038 C 
ATOM     25  C   UNL     1      33.454 -12.707 -22.773  0.00  0.00    +0.050 C 
ATOM     26  C   UNL     1      32.944 -11.426 -23.039  0.00  0.00    -0.004 C 
ATOM     27  C   UNL     1      31.856 -12.985 -21.000  0.00  0.00    -0.028 C 
ATOM     28  C   UNL     1      31.874 -10.911 -22.276  0.00  0.00    +0.060 C 
ATOM     29  C   UNL     1      31.349 -11.710 -21.264  0.00  0.00    +0.071 C 
ATOM     30  C   UNL     1      33.473 -10.623 -24.059  0.00  0.00    -0.001 C 
ATOM     31  C   UNL     1      32.947  -9.360 -24.296  0.00  0.00    +0.020 C 
ATOM     32  C   UNL     1      31.902  -8.944 -23.498  0.00  0.00    +0.098 C 
ENDBRANCH  22  24
ENDBRANCH   5  22
TORSDOF 4
ENDMDL
