MODEL 1
REMARK VINA RESULT:     -12.3      0.000      0.000
REMARK  Name = 42628060
REMARK  6 active torsions:
REMARK  status: ('A' for Active; 'I' for Inactive)
REMARK    1  A    between atoms: N_2  and  C_6
REMARK    2  A    between atoms: C_3  and  C_19
REMARK    3  A    between atoms: C_9  and  N_13
REMARK    4  A    between atoms: C_19  and  N_20
REMARK    5  A    between atoms: C_21  and  N_27
REMARK    6  A    between atoms: C_28  and  C_32
REMARK                            x       y       z     vdW  Elec       q    Type
REMARK                         _______ _______ _______ _____ _____    ______ ____
ROOT
ATOM      1  O   UNL     1      32.365 -13.908 -23.228  0.00  0.00    -0.277 OA
ATOM      2  N   UNL     1      34.291 -14.894 -24.140  0.00  0.00    -0.284 N 
ATOM      3  C   UNL     1      33.286 -13.934 -24.038  0.00  0.00    +0.205 C 
ATOM      4  H   UNL     1      34.950 -14.759 -24.858  0.00  0.00    +0.155 HD
ENDROOT
BRANCH   2   6
ATOM      5  F   UNL     1      34.617 -17.426 -25.256  0.00  0.00    -0.203 F 
ATOM      6  C   UNL     1      34.474 -16.041 -23.332  0.00  0.00    +0.078 C 
ATOM      7  C   UNL     1      34.634 -17.295 -23.922  0.00  0.00    +0.155 C 
ATOM      8  C   UNL     1      34.492 -15.916 -21.943  0.00  0.00    +0.018 C 
ATOM      9  C   UNL     1      34.832 -18.299 -21.733  0.00  0.00    +0.061 C 
ATOM     10  C   UNL     1      34.813 -18.424 -23.122  0.00  0.00    +0.046 C 
ATOM     11  C   UNL     1      34.671 -17.046 -21.143  0.00  0.00    +0.017 C 
BRANCH   9  13
ATOM     12  O   UNL     1      32.718 -20.043 -20.809  0.00  0.00    -0.269 OA
ATOM     13  N   UNL     1      35.017 -19.472 -20.902  0.00  0.00    -0.233 N 
ATOM     14  C   UNL     1      33.890 -20.225 -20.481  0.00  0.00    +0.257 C 
ATOM     15  C   UNL     1      36.300 -19.881 -20.529  0.00  0.00    +0.072 C 
ATOM     16  C   UNL     1      34.166 -21.394 -19.588  0.00  0.00    +0.059 C 
ATOM     17  C   UNL     1      36.521 -20.950 -19.757  0.00  0.00    +0.017 C 
ATOM     18  C   UNL     1      35.420 -21.723 -19.268  0.00  0.00    +0.006 C 
ENDBRANCH   9  13
ENDBRANCH   2   6
BRANCH   3  19
ATOM     19  C   UNL     1      33.465 -12.870 -25.108  0.00  0.00    +0.010 C 
BRANCH  19  20
ATOM     20  N   UNL     1      34.193 -11.741 -24.549  0.00  0.00    +0.394 N 
ATOM     21  C   UNL     1      34.221  -9.549 -23.753  0.00  0.00    +0.049 C 
ATOM     22  C   UNL     1      35.262  -9.681 -24.868  0.00  0.00    -0.005 C 
ATOM     23  C   UNL     1      33.303 -10.755 -23.931  0.00  0.00    -0.057 C 
ATOM     24  C   UNL     1      34.931 -10.994 -25.567  0.00  0.00    -0.075 C 
ATOM     25  H   UNL     1      34.818 -12.163 -23.864  0.00  0.00    -0.079 HD
BRANCH  21  27
ATOM     26  O   UNL     1      33.032  -8.166 -21.536  0.00  0.00    -0.270 OA
ATOM     27  N   UNL     1      33.503  -8.306 -23.803  0.00  0.00    -0.304 N 
ATOM     28  C   UNL     1      32.958  -7.707 -22.674  0.00  0.00    +0.252 C 
ATOM     29  H   UNL     1      33.391  -7.860 -24.674  0.00  0.00    +0.150 HD
BRANCH  28  32
ATOM     30 CL   UNL     1      30.742  -3.230 -25.049  0.00  0.00    -0.075 Cl
ATOM     31  S   UNL     1      32.183  -5.761 -24.470  0.00  0.00    -0.071 S 
ATOM     32  C   UNL     1      32.222  -6.435 -22.897  0.00  0.00    +0.084 C 
ATOM     33  C   UNL     1      31.526  -5.670 -21.988  0.00  0.00    +0.012 C 
ATOM     34  C   UNL     1      30.952  -4.514 -22.592  0.00  0.00    +0.019 C 
ATOM     35  C   UNL     1      31.231  -4.440 -23.938  0.00  0.00    +0.087 C 
ENDBRANCH  28  32
ENDBRANCH  21  27
ENDBRANCH  19  20
ENDBRANCH   3  19
TORSDOF 6
ENDMDL
MODEL 2
REMARK VINA RESULT:     -11.0      5.075      8.340
REMARK  Name = 42628060
REMARK  6 active torsions:
REMARK  status: ('A' for Active; 'I' for Inactive)
REMARK    1  A    between atoms: N_2  and  C_6
REMARK    2  A    between atoms: C_3  and  C_19
REMARK    3  A    between atoms: C_9  and  N_13
REMARK    4  A    between atoms: C_19  and  N_20
REMARK    5  A    between atoms: C_21  and  N_27
REMARK    6  A    between atoms: C_28  and  C_32
REMARK                            x       y       z     vdW  Elec       q    Type
REMARK                         _______ _______ _______ _____ _____    ______ ____
ROOT
ATOM      1  O   UNL     1      36.725 -20.511 -19.878  0.00  0.00    -0.277 OA
ATOM      2  N   UNL     1      34.866 -21.608 -18.953  0.00  0.00    -0.284 N 
ATOM      3  C   UNL     1      35.544 -20.841 -19.899  0.00  0.00    +0.205 C 
ATOM      4  H   UNL     1      33.912 -21.772 -19.129  0.00  0.00    +0.155 HD
ENDROOT
BRANCH   2   6
ATOM      5  F   UNL     1      33.284 -23.146 -17.253  0.00  0.00    -0.203 F 
ATOM      6  C   UNL     1      35.390 -22.178 -17.769  0.00  0.00    +0.078 C 
ATOM      7  C   UNL     1      34.571 -22.943 -16.939  0.00  0.00    +0.155 C 
ATOM      8  C   UNL     1      36.728 -21.972 -17.431  0.00  0.00    +0.018 C 
ATOM      9  C   UNL     1      36.428 -23.297 -15.434  0.00  0.00    +0.061 C 
ATOM     10  C   UNL     1      35.091 -23.503 -15.771  0.00  0.00    +0.046 C 
ATOM     11  C   UNL     1      37.247 -22.532 -16.264  0.00  0.00    +0.017 C 
BRANCH   9  13
ATOM     12  O   UNL     1      37.537 -25.959 -15.206  0.00  0.00    -0.269 OA
ATOM     13  N   UNL     1      36.968 -23.879 -14.220  0.00  0.00    -0.233 N 
ATOM     14  C   UNL     1      37.447 -25.214 -14.229  0.00  0.00    +0.257 C 
ATOM     15  C   UNL     1      37.039 -23.127 -13.045  0.00  0.00    +0.072 C 
ATOM     16  C   UNL     1      37.945 -25.752 -12.924  0.00  0.00    +0.059 C 
ATOM     17  C   UNL     1      37.519 -23.621 -11.899  0.00  0.00    +0.017 C 
ATOM     18  C   UNL     1      37.979 -24.976 -11.839  0.00  0.00    +0.006 C 
ENDBRANCH   9  13
ENDBRANCH   2   6
BRANCH   3  19
ATOM     19  C   UNL     1      34.600 -20.430 -21.016  0.00  0.00    +0.010 C 
BRANCH  19  20
ATOM     20  N   UNL     1      35.201 -19.352 -21.787  0.00  0.00    +0.394 N 
ATOM     21  C   UNL     1      35.234 -17.118 -22.452  0.00  0.00    +0.049 C 
ATOM     22  C   UNL     1      35.195 -18.002 -23.701  0.00  0.00    -0.005 C 
ATOM     23  C   UNL     1      34.787 -18.030 -21.314  0.00  0.00    -0.057 C 
ATOM     24  C   UNL     1      34.808 -19.387 -23.195  0.00  0.00    -0.075 C 
ATOM     25  H   UNL     1      36.204 -19.496 -21.672  0.00  0.00    -0.079 HD
BRANCH  21  27
ATOM     26  O   UNL     1      34.921 -15.038 -20.498  0.00  0.00    -0.270 OA
ATOM     27  N   UNL     1      34.408 -15.948 -22.569  0.00  0.00    -0.304 N 
ATOM     28  C   UNL     1      34.317 -14.990 -21.568  0.00  0.00    +0.252 C 
ATOM     29  H   UNL     1      33.884 -15.821 -23.394  0.00  0.00    +0.150 HD
BRANCH  28  32
ATOM     30 CL   UNL     1      30.417 -11.106 -21.013  0.00  0.00    -0.075 Cl
ATOM     31  S   UNL     1      32.299 -13.368 -20.613  0.00  0.00    -0.071 S 
ATOM     32  C   UNL     1      33.399 -13.852 -21.832  0.00  0.00    +0.084 C 
ATOM     33  C   UNL     1      33.286 -13.079 -22.967  0.00  0.00    +0.012 C 
ATOM     34  C   UNL     1      32.282 -12.076 -22.833  0.00  0.00    +0.019 C 
ATOM     35  C   UNL     1      31.667 -12.120 -21.601  0.00  0.00    +0.087 C 
ENDBRANCH  28  32
ENDBRANCH  21  27
ENDBRANCH  19  20
ENDBRANCH   3  19
TORSDOF 6
ENDMDL
MODEL 3
REMARK VINA RESULT:     -10.9      4.985      8.557
REMARK  Name = 42628060
REMARK  6 active torsions:
REMARK  status: ('A' for Active; 'I' for Inactive)
REMARK    1  A    between atoms: N_2  and  C_6
REMARK    2  A    between atoms: C_3  and  C_19
REMARK    3  A    between atoms: C_9  and  N_13
REMARK    4  A    between atoms: C_19  and  N_20
REMARK    5  A    between atoms: C_21  and  N_27
REMARK    6  A    between atoms: C_28  and  C_32
REMARK                            x       y       z     vdW  Elec       q    Type
REMARK                         _______ _______ _______ _____ _____    ______ ____
ROOT
ATOM      1  O   UNL     1      32.340 -21.672 -18.644  0.00  0.00    -0.277 OA
ATOM      2  N   UNL     1      34.660 -21.548 -18.989  0.00  0.00    -0.284 N 
ATOM      3  C   UNL     1      33.319 -21.340 -19.306  0.00  0.00    +0.205 C 
ATOM      4  H   UNL     1      35.317 -21.218 -19.642  0.00  0.00    +0.155 HD
ENDROOT
BRANCH   2   6
ATOM      5  F   UNL     1      37.272 -21.083 -18.138  0.00  0.00    -0.203 F 
ATOM      6  C   UNL     1      35.186 -22.179 -17.837  0.00  0.00    +0.078 C 
ATOM      7  C   UNL     1      36.498 -21.925 -17.438  0.00  0.00    +0.155 C 
ATOM      8  C   UNL     1      34.391 -23.057 -17.101  0.00  0.00    +0.018 C 
ATOM      9  C   UNL     1      36.220 -23.427 -15.566  0.00  0.00    +0.061 C 
ATOM     10  C   UNL     1      37.015 -22.549 -16.302  0.00  0.00    +0.046 C 
ATOM     11  C   UNL     1      34.908 -23.682 -15.964  0.00  0.00    +0.017 C 
BRANCH   9  13
ATOM     12  O   UNL     1      37.148 -26.164 -15.441  0.00  0.00    -0.269 OA
ATOM     13  N   UNL     1      36.757 -24.076 -14.386  0.00  0.00    -0.233 N 
ATOM     14  C   UNL     1      37.142 -25.441 -14.444  0.00  0.00    +0.257 C 
ATOM     15  C   UNL     1      36.919 -23.363 -13.196  0.00  0.00    +0.072 C 
ATOM     16  C   UNL     1      37.643 -26.046 -13.170  0.00  0.00    +0.059 C 
ATOM     17  C   UNL     1      37.400 -23.919 -12.080  0.00  0.00    +0.017 C 
ATOM     18  C   UNL     1      37.766 -25.303 -12.068  0.00  0.00    +0.006 C 
ENDBRANCH   9  13
ENDBRANCH   2   6
BRANCH   3  19
ATOM     19  C   UNL     1      33.199 -20.624 -20.640  0.00  0.00    +0.010 C 
BRANCH  19  20
ATOM     20  N   UNL     1      34.185 -19.556 -20.705  0.00  0.00    +0.394 N 
ATOM     21  C   UNL     1      34.829 -17.443 -21.451  0.00  0.00    +0.049 C 
ATOM     22  C   UNL     1      35.889 -18.460 -21.882  0.00  0.00    -0.005 C 
ATOM     23  C   UNL     1      33.598 -18.279 -21.116  0.00  0.00    -0.057 C 
ATOM     24  C   UNL     1      35.232 -19.822 -21.692  0.00  0.00    -0.075 C 
ATOM     25  H   UNL     1      34.563 -19.509 -19.759  0.00  0.00    -0.079 HD
BRANCH  21  27
ATOM     26  O   UNL     1      34.111 -14.698 -21.014  0.00  0.00    -0.270 OA
ATOM     27  N   UNL     1      34.559 -16.455 -22.460  0.00  0.00    -0.304 N 
ATOM     28  C   UNL     1      34.216 -15.144 -22.154  0.00  0.00    +0.252 C 
ATOM     29  H   UNL     1      34.618 -16.719 -23.407  0.00  0.00    +0.150 HD
BRANCH  28  32
ATOM     30 CL   UNL     1      33.005 -13.276 -27.218  0.00  0.00    -0.075 Cl
ATOM     31  S   UNL     1      33.578 -14.948 -24.832  0.00  0.00    -0.071 S 
ATOM     32  C   UNL     1      33.942 -14.252 -23.311  0.00  0.00    +0.084 C 
ATOM     33  C   UNL     1      33.933 -12.875 -23.356  0.00  0.00    +0.012 C 
ATOM     34  C   UNL     1      33.622 -12.386 -24.657  0.00  0.00    +0.019 C 
ATOM     35  C   UNL     1      33.406 -13.406 -25.557  0.00  0.00    +0.087 C 
ENDBRANCH  28  32
ENDBRANCH  21  27
ENDBRANCH  19  20
ENDBRANCH   3  19
TORSDOF 6
ENDMDL
MODEL 4
REMARK VINA RESULT:     -10.9      7.348     13.722
REMARK  Name = 42628060
REMARK  6 active torsions:
REMARK  status: ('A' for Active; 'I' for Inactive)
REMARK    1  A    between atoms: N_2  and  C_6
REMARK    2  A    between atoms: C_3  and  C_19
REMARK    3  A    between atoms: C_9  and  N_13
REMARK    4  A    between atoms: C_19  and  N_20
REMARK    5  A    between atoms: C_21  and  N_27
REMARK    6  A    between atoms: C_28  and  C_32
REMARK                            x       y       z     vdW  Elec       q    Type
REMARK                         _______ _______ _______ _____ _____    ______ ____
ROOT
ATOM      1  O   UNL     1      33.555 -19.996 -20.678  0.00  0.00    -0.277 OA
ATOM      2  N   UNL     1      35.535 -19.340 -21.757  0.00  0.00    -0.284 N 
ATOM      3  C   UNL     1      34.746 -20.141 -20.934  0.00  0.00    +0.205 C 
ATOM      4  H   UNL     1      36.479 -19.603 -21.845  0.00  0.00    +0.155 HD
ENDROOT
BRANCH   2   6
ATOM      5  F   UNL     1      35.031 -19.446 -24.495  0.00  0.00    -0.203 F 
ATOM      6  C   UNL     1      35.137 -18.192 -22.481  0.00  0.00    +0.078 C 
ATOM      7  C   UNL     1      34.892 -18.279 -23.851  0.00  0.00    +0.155 C 
ATOM      8  C   UNL     1      34.990 -16.971 -21.823  0.00  0.00    +0.018 C 
ATOM      9  C   UNL     1      34.353 -15.924 -23.905  0.00  0.00    +0.061 C 
ATOM     10  C   UNL     1      34.500 -17.145 -24.564  0.00  0.00    +0.046 C 
ATOM     11  C   UNL     1      34.598 -15.836 -22.535  0.00  0.00    +0.017 C 
BRANCH   9  13
ATOM     12  O   UNL     1      33.224 -15.929 -26.567  0.00  0.00    -0.269 OA
ATOM     13  N   UNL     1      33.947 -14.745 -24.645  0.00  0.00    -0.233 N 
ATOM     14  C   UNL     1      33.442 -14.878 -25.964  0.00  0.00    +0.257 C 
ATOM     15  C   UNL     1      34.028 -13.479 -24.060  0.00  0.00    +0.072 C 
ATOM     16  C   UNL     1      33.089 -13.608 -26.673  0.00  0.00    +0.059 C 
ATOM     17  C   UNL     1      33.675 -12.362 -24.704  0.00  0.00    +0.017 C 
ATOM     18  C   UNL     1      33.198 -12.431 -26.053  0.00  0.00    +0.006 C 
ENDBRANCH   9  13
ENDBRANCH   2   6
BRANCH   3  19
ATOM     19  C   UNL     1      35.576 -21.272 -20.351  0.00  0.00    +0.010 C 
BRANCH  19  20
ATOM     20  N   UNL     1      35.194 -21.488 -18.963  0.00  0.00    +0.394 N 
ATOM     21  C   UNL     1      35.712 -22.238 -16.818  0.00  0.00    +0.049 C 
ATOM     22  C   UNL     1      34.436 -22.940 -17.289  0.00  0.00    -0.005 C 
ATOM     23  C   UNL     1      36.352 -21.694 -18.091  0.00  0.00    -0.057 C 
ATOM     24  C   UNL     1      34.376 -22.688 -18.790  0.00  0.00    -0.075 C 
ATOM     25  H   UNL     1      34.680 -20.643 -18.714  0.00  0.00    -0.079 HD
BRANCH  21  27
ATOM     26  O   UNL     1      35.461 -23.036 -14.071  0.00  0.00    -0.270 OA
ATOM     27  N   UNL     1      36.595 -23.110 -16.094  0.00  0.00    -0.304 N 
ATOM     28  C   UNL     1      36.395 -23.443 -14.760  0.00  0.00    +0.252 C 
ATOM     29  H   UNL     1      37.375 -23.487 -16.562  0.00  0.00    +0.150 HD
BRANCH  28  32
ATOM     30 CL   UNL     1      40.922 -26.512 -13.934  0.00  0.00    -0.075 Cl
ATOM     31  S   UNL     1      38.812 -24.744 -15.046  0.00  0.00    -0.071 S 
ATOM     32  C   UNL     1      37.413 -24.335 -14.147  0.00  0.00    +0.084 C 
ATOM     33  C   UNL     1      37.411 -24.919 -12.899  0.00  0.00    +0.012 C 
ATOM     34  C   UNL     1      38.574 -25.712 -12.679  0.00  0.00    +0.019 C 
ATOM     35  C   UNL     1      39.420 -25.705 -13.766  0.00  0.00    +0.087 C 
ENDBRANCH  28  32
ENDBRANCH  21  27
ENDBRANCH  19  20
ENDBRANCH   3  19
TORSDOF 6
ENDMDL
MODEL 5
REMARK VINA RESULT:     -10.7      5.047     11.701
REMARK  Name = 42628060
REMARK  6 active torsions:
REMARK  status: ('A' for Active; 'I' for Inactive)
REMARK    1  A    between atoms: N_2  and  C_6
REMARK    2  A    between atoms: C_3  and  C_19
REMARK    3  A    between atoms: C_9  and  N_13
REMARK    4  A    between atoms: C_19  and  N_20
REMARK    5  A    between atoms: C_21  and  N_27
REMARK    6  A    between atoms: C_28  and  C_32
REMARK                            x       y       z     vdW  Elec       q    Type
REMARK                         _______ _______ _______ _____ _____    ______ ____
ROOT
ATOM      1  O   UNL     1      32.578 -13.716 -25.658  0.00  0.00    -0.277 OA
ATOM      2  N   UNL     1      33.566 -13.067 -23.629  0.00  0.00    -0.284 N 
ATOM      3  C   UNL     1      33.243 -13.953 -24.655  0.00  0.00    +0.205 C 
ATOM      4  H   UNL     1      34.108 -13.432 -22.894  0.00  0.00    +0.155 HD
ENDROOT
BRANCH   2   6
ATOM      5  F   UNL     1      31.456 -12.243 -22.006  0.00  0.00    -0.203 F 
ATOM      6  C   UNL     1      33.204 -11.704 -23.522  0.00  0.00    +0.078 C 
ATOM      7  C   UNL     1      32.142 -11.324 -22.701  0.00  0.00    +0.155 C 
ATOM      8  C   UNL     1      33.909 -10.738 -24.241  0.00  0.00    +0.018 C 
ATOM      9  C   UNL     1      32.492  -9.014 -23.316  0.00  0.00    +0.061 C 
ATOM     10  C   UNL     1      31.787  -9.978 -22.597  0.00  0.00    +0.046 C 
ATOM     11  C   UNL     1      33.554  -9.393 -24.137  0.00  0.00    +0.017 C 
BRANCH   9  13
ATOM     12  O   UNL     1      32.725  -7.401 -20.927  0.00  0.00    -0.269 OA
ATOM     13  N   UNL     1      32.123  -7.616 -23.210  0.00  0.00    -0.233 N 
ATOM     14  C   UNL     1      32.247  -6.944 -21.966  0.00  0.00    +0.257 C 
ATOM     15  C   UNL     1      31.663  -6.917 -24.329  0.00  0.00    +0.072 C 
ATOM     16  C   UNL     1      31.801  -5.516 -21.933  0.00  0.00    +0.059 C 
ATOM     17  C   UNL     1      31.301  -5.631 -24.280  0.00  0.00    +0.017 C 
ATOM     18  C   UNL     1      31.367  -4.914 -23.042  0.00  0.00    +0.006 C 
ENDBRANCH   9  13
ENDBRANCH   2   6
BRANCH   3  19
ATOM     19  C   UNL     1      33.836 -15.323 -24.371  0.00  0.00    +0.010 C 
BRANCH  19  20
ATOM     20  N   UNL     1      34.386 -15.342 -23.024  0.00  0.00    +0.394 N 
ATOM     21  C   UNL     1      35.255 -16.525 -21.213  0.00  0.00    +0.049 C 
ATOM     22  C   UNL     1      34.072 -15.683 -20.728  0.00  0.00    -0.005 C 
ATOM     23  C   UNL     1      35.094 -16.589 -22.728  0.00  0.00    -0.057 C 
ATOM     24  C   UNL     1      33.349 -15.247 -21.997  0.00  0.00    -0.075 C 
ATOM     25  H   UNL     1      35.014 -14.539 -23.002  0.00  0.00    -0.079 HD
BRANCH  21  27
ATOM     26  O   UNL     1      34.094 -18.931 -22.264  0.00  0.00    -0.270 OA
ATOM     27  N   UNL     1      35.296 -17.830 -20.614  0.00  0.00    -0.304 N 
ATOM     28  C   UNL     1      34.703 -18.943 -21.197  0.00  0.00    +0.252 C 
ATOM     29  H   UNL     1      35.763 -17.940 -19.753  0.00  0.00    +0.150 HD
BRANCH  28  32
ATOM     30 CL   UNL     1      33.473 -23.467 -18.260  0.00  0.00    -0.075 Cl
ATOM     31  S   UNL     1      33.393 -20.924 -19.790  0.00  0.00    -0.071 S 
ATOM     32  C   UNL     1      34.811 -20.216 -20.437  0.00  0.00    +0.084 C 
ATOM     33  C   UNL     1      35.935 -20.961 -20.156  0.00  0.00    +0.012 C 
ATOM     34  C   UNL     1      35.627 -22.128 -19.400  0.00  0.00    +0.019 C 
ATOM     35  C   UNL     1      34.281 -22.231 -19.131  0.00  0.00    +0.087 C 
ENDBRANCH  28  32
ENDBRANCH  21  27
ENDBRANCH  19  20
ENDBRANCH   3  19
TORSDOF 6
ENDMDL
MODEL 6
REMARK VINA RESULT:     -10.6      5.721     12.156
REMARK  Name = 42628060
REMARK  6 active torsions:
REMARK  status: ('A' for Active; 'I' for Inactive)
REMARK    1  A    between atoms: N_2  and  C_6
REMARK    2  A    between atoms: C_3  and  C_19
REMARK    3  A    between atoms: C_9  and  N_13
REMARK    4  A    between atoms: C_19  and  N_20
REMARK    5  A    between atoms: C_21  and  N_27
REMARK    6  A    between atoms: C_28  and  C_32
REMARK                            x       y       z     vdW  Elec       q    Type
REMARK                         _______ _______ _______ _____ _____    ______ ____
ROOT
ATOM      1  O   UNL     1      35.630 -15.634 -23.943  0.00  0.00    -0.277 OA
ATOM      2  N   UNL     1      33.328 -15.245 -23.694  0.00  0.00    -0.284 N 
ATOM      3  C   UNL     1      34.474 -16.027 -23.818  0.00  0.00    +0.205 C 
ATOM      4  H   UNL     1      32.477 -15.732 -23.606  0.00  0.00    +0.155 HD
ENDROOT
BRANCH   2   6
ATOM      5  F   UNL     1      31.995 -13.887 -21.658  0.00  0.00    -0.203 F 
ATOM      6  C   UNL     1      33.244 -13.833 -23.678  0.00  0.00    +0.078 C 
ATOM      7  C   UNL     1      32.569 -13.183 -22.644  0.00  0.00    +0.155 C 
ATOM      8  C   UNL     1      33.837 -13.090 -24.699  0.00  0.00    +0.018 C 
ATOM      9  C   UNL     1      33.081 -11.048 -23.653  0.00  0.00    +0.061 C 
ATOM     10  C   UNL     1      32.488 -11.790 -22.632  0.00  0.00    +0.046 C 
ATOM     11  C   UNL     1      33.755 -11.697 -24.686  0.00  0.00    +0.017 C 
BRANCH   9  13
ATOM     12  O   UNL     1      35.323  -9.239 -23.906  0.00  0.00    -0.269 OA
ATOM     13  N   UNL     1      32.995  -9.600 -23.640  0.00  0.00    -0.233 N 
ATOM     14  C   UNL     1      34.178  -8.822 -23.733  0.00  0.00    +0.257 C 
ATOM     15  C   UNL     1      31.754  -8.964 -23.560  0.00  0.00    +0.072 C 
ATOM     16  C   UNL     1      34.005  -7.337 -23.667  0.00  0.00    +0.059 C 
ATOM     17  C   UNL     1      31.624  -7.634 -23.535  0.00  0.00    +0.017 C 
ATOM     18  C   UNL     1      32.786  -6.798 -23.584  0.00  0.00    +0.006 C 
ENDBRANCH   9  13
ENDBRANCH   2   6
BRANCH   3  19
ATOM     19  C   UNL     1      34.110 -17.502 -23.787  0.00  0.00    +0.010 C 
BRANCH  19  20
ATOM     20  N   UNL     1      35.037 -18.211 -22.918  0.00  0.00    +0.394 N 
ATOM     21  C   UNL     1      35.447 -19.833 -21.295  0.00  0.00    +0.049 C 
ATOM     22  C   UNL     1      35.992 -18.491 -20.797  0.00  0.00    -0.005 C 
ATOM     23  C   UNL     1      34.482 -19.470 -22.419  0.00  0.00    -0.057 C 
ATOM     24  C   UNL     1      35.372 -17.446 -21.717  0.00  0.00    -0.075 C 
ATOM     25  H   UNL     1      35.856 -18.367 -23.505  0.00  0.00    -0.079 HD
BRANCH  21  27
ATOM     26  O   UNL     1      36.737 -21.586 -19.423  0.00  0.00    -0.270 OA
ATOM     27  N   UNL     1      34.811 -20.597 -20.257  0.00  0.00    -0.304 N 
ATOM     28  C   UNL     1      35.519 -21.424 -19.393  0.00  0.00    +0.252 C 
ATOM     29  H   UNL     1      33.834 -20.533 -20.154  0.00  0.00    +0.150 HD
BRANCH  28  32
ATOM     30 CL   UNL     1      33.944 -24.138 -14.838  0.00  0.00    -0.075 Cl
ATOM     31  S   UNL     1      35.448 -22.653 -16.923  0.00  0.00    -0.071 S 
ATOM     32  C   UNL     1      34.712 -22.168 -18.391  0.00  0.00    +0.084 C 
ATOM     33  C   UNL     1      33.390 -22.550 -18.458  0.00  0.00    +0.012 C 
ATOM     34  C   UNL     1      32.976 -23.250 -17.288  0.00  0.00    +0.019 C 
ATOM     35  C   UNL     1      33.997 -23.377 -16.372  0.00  0.00    +0.087 C 
ENDBRANCH  28  32
ENDBRANCH  21  27
ENDBRANCH  19  20
ENDBRANCH   3  19
TORSDOF 6
ENDMDL
MODEL 7
REMARK VINA RESULT:     -10.6      3.245      5.925
REMARK  Name = 42628060
REMARK  6 active torsions:
REMARK  status: ('A' for Active; 'I' for Inactive)
REMARK    1  A    between atoms: N_2  and  C_6
REMARK    2  A    between atoms: C_3  and  C_19
REMARK    3  A    between atoms: C_9  and  N_13
REMARK    4  A    between atoms: C_19  and  N_20
REMARK    5  A    between atoms: C_21  and  N_27
REMARK    6  A    between atoms: C_28  and  C_32
REMARK                            x       y       z     vdW  Elec       q    Type
REMARK                         _______ _______ _______ _____ _____    ______ ____
ROOT
ATOM      1  O   UNL     1      35.711 -17.640 -20.628  0.00  0.00    -0.277 OA
ATOM      2  N   UNL     1      35.233 -19.796 -21.427  0.00  0.00    -0.284 N 
ATOM      3  C   UNL     1      35.453 -18.424 -21.536  0.00  0.00    +0.205 C 
ATOM      4  H   UNL     1      35.032 -20.271 -22.265  0.00  0.00    +0.155 HD
ENDROOT
BRANCH   2   6
ATOM      5  F   UNL     1      32.927 -20.979 -20.404  0.00  0.00    -0.203 F 
ATOM      6  C   UNL     1      35.264 -20.584 -20.253  0.00  0.00    +0.078 C 
ATOM      7  C   UNL     1      34.092 -21.162 -19.766  0.00  0.00    +0.155 C 
ATOM      8  C   UNL     1      36.470 -20.780 -19.579  0.00  0.00    +0.018 C 
ATOM      9  C   UNL     1      35.332 -22.134 -17.935  0.00  0.00    +0.061 C 
ATOM     10  C   UNL     1      34.126 -21.938 -18.607  0.00  0.00    +0.046 C 
ATOM     11  C   UNL     1      36.504 -21.556 -18.420  0.00  0.00    +0.017 C 
BRANCH   9  13
ATOM     12  O   UNL     1      37.673 -22.592 -16.299  0.00  0.00    -0.269 OA
ATOM     13  N   UNL     1      35.367 -22.940 -16.729  0.00  0.00    -0.233 N 
ATOM     14  C   UNL     1      36.592 -23.121 -16.036  0.00  0.00    +0.257 C 
ATOM     15  C   UNL     1      34.200 -23.524 -16.232  0.00  0.00    +0.072 C 
ATOM     16  C   UNL     1      36.550 -24.003 -14.828  0.00  0.00    +0.059 C 
ATOM     17  C   UNL     1      34.183 -24.282 -15.131  0.00  0.00    +0.017 C 
ATOM     18  C   UNL     1      35.396 -24.533 -14.414  0.00  0.00    +0.006 C 
ENDBRANCH   9  13
ENDBRANCH   2   6
BRANCH   3  19
ATOM     19  C   UNL     1      35.323 -17.984 -22.984  0.00  0.00    +0.010 C 
BRANCH  19  20
ATOM     20  N   UNL     1      34.235 -17.025 -23.103  0.00  0.00    +0.394 N 
ATOM     21  C   UNL     1      33.478 -14.882 -23.619  0.00  0.00    +0.049 C 
ATOM     22  C   UNL     1      33.026 -15.233 -22.200  0.00  0.00    -0.005 C 
ATOM     23  C   UNL     1      34.594 -15.873 -23.931  0.00  0.00    -0.057 C 
ATOM     24  C   UNL     1      33.852 -16.454 -21.812  0.00  0.00    -0.075 C 
ATOM     25  H   UNL     1      33.474 -17.563 -23.517  0.00  0.00    -0.079 HD
BRANCH  21  27
ATOM     26  O   UNL     1      33.123 -13.179 -25.903  0.00  0.00    -0.270 OA
ATOM     27  N   UNL     1      33.909 -13.517 -23.747  0.00  0.00    -0.304 N 
ATOM     28  C   UNL     1      33.694 -12.766 -24.896  0.00  0.00    +0.252 C 
ATOM     29  H   UNL     1      34.377 -13.097 -22.989  0.00  0.00    +0.150 HD
BRANCH  28  32
ATOM     30 CL   UNL     1      34.696  -7.506 -23.507  0.00  0.00    -0.075 Cl
ATOM     31  S   UNL     1      33.706 -10.301 -23.653  0.00  0.00    -0.071 S 
ATOM     32  C   UNL     1      34.224 -11.378 -24.880  0.00  0.00    +0.084 C 
ATOM     33  C   UNL     1      35.120 -10.785 -25.743  0.00  0.00    +0.012 C 
ATOM     34  C   UNL     1      35.383  -9.430 -25.393  0.00  0.00    +0.019 C 
ATOM     35  C   UNL     1      34.680  -9.038 -24.276  0.00  0.00    +0.087 C 
ENDBRANCH  28  32
ENDBRANCH  21  27
ENDBRANCH  19  20
ENDBRANCH   3  19
TORSDOF 6
ENDMDL
MODEL 8
REMARK VINA RESULT:     -10.4      5.526     12.587
REMARK  Name = 42628060
REMARK  6 active torsions:
REMARK  status: ('A' for Active; 'I' for Inactive)
REMARK    1  A    between atoms: N_2  and  C_6
REMARK    2  A    between atoms: C_3  and  C_19
REMARK    3  A    between atoms: C_9  and  N_13
REMARK    4  A    between atoms: C_19  and  N_20
REMARK    5  A    between atoms: C_21  and  N_27
REMARK    6  A    between atoms: C_28  and  C_32
REMARK                            x       y       z     vdW  Elec       q    Type
REMARK                         _______ _______ _______ _____ _____    ______ ____
ROOT
ATOM      1  O   UNL     1      32.548 -12.378 -23.279  0.00  0.00    -0.277 OA
ATOM      2  N   UNL     1      31.957 -11.186 -21.344  0.00  0.00    -0.284 N 
ATOM      3  C   UNL     1      32.288 -12.321 -22.081  0.00  0.00    +0.205 C 
ATOM      4  H   UNL     1      31.774 -11.327 -20.387  0.00  0.00    +0.155 HD
ENDROOT
BRANCH   2   6
ATOM      5  F   UNL     1      32.810  -9.031 -19.797  0.00  0.00    -0.203 F 
ATOM      6  C   UNL     1      31.855  -9.854 -21.810  0.00  0.00    +0.078 C 
ATOM      7  C   UNL     1      32.291  -8.798 -21.011  0.00  0.00    +0.155 C 
ATOM      8  C   UNL     1      31.315  -9.599 -23.070  0.00  0.00    +0.018 C 
ATOM      9  C   UNL     1      31.648  -7.230 -22.733  0.00  0.00    +0.061 C 
ATOM     10  C   UNL     1      32.188  -7.485 -21.473  0.00  0.00    +0.046 C 
ATOM     11  C   UNL     1      31.212  -8.286 -23.532  0.00  0.00    +0.017 C 
BRANCH   9  13
ATOM     12  O   UNL     1      30.319  -5.069 -21.343  0.00  0.00    -0.269 OA
ATOM     13  N   UNL     1      31.540  -5.866 -23.213  0.00  0.00    -0.233 N 
ATOM     14  C   UNL     1      30.825  -4.904 -22.454  0.00  0.00    +0.257 C 
ATOM     15  C   UNL     1      32.153  -5.484 -24.409  0.00  0.00    +0.072 C 
ATOM     16  C   UNL     1      30.723  -3.532 -23.043  0.00  0.00    +0.059 C 
ATOM     17  C   UNL     1      32.074  -4.243 -24.898  0.00  0.00    +0.017 C 
ATOM     18  C   UNL     1      31.331  -3.241 -24.195  0.00  0.00    +0.006 C 
ENDBRANCH   9  13
ENDBRANCH   2   6
BRANCH   3  19
ATOM     19  C   UNL     1      32.283 -13.549 -21.186  0.00  0.00    +0.010 C 
BRANCH  19  20
ATOM     20  N   UNL     1      32.989 -14.635 -21.850  0.00  0.00    +0.394 N 
ATOM     21  C   UNL     1      33.708 -16.852 -21.887  0.00  0.00    +0.049 C 
ATOM     22  C   UNL     1      34.923 -15.938 -22.070  0.00  0.00    -0.005 C 
ATOM     23  C   UNL     1      32.621 -15.948 -21.316  0.00  0.00    -0.057 C 
ATOM     24  C   UNL     1      34.438 -14.550 -21.670  0.00  0.00    -0.075 C 
ATOM     25  H   UNL     1      32.725 -14.539 -22.830  0.00  0.00    -0.079 HD
BRANCH  21  27
ATOM     26  O   UNL     1      34.631 -19.439 -22.722  0.00  0.00    -0.270 OA
ATOM     27  N   UNL     1      33.980 -17.980 -21.040  0.00  0.00    -0.304 N 
ATOM     28  C   UNL     1      34.425 -19.200 -21.534  0.00  0.00    +0.252 C 
ATOM     29  H   UNL     1      33.844 -17.885 -20.069  0.00  0.00    +0.150 HD
BRANCH  28  32
ATOM     30 CL   UNL     1      33.555 -23.201 -17.815  0.00  0.00    -0.075 Cl
ATOM     31  S   UNL     1      33.272 -21.035 -19.826  0.00  0.00    -0.071 S 
ATOM     32  C   UNL     1      34.635 -20.276 -20.530  0.00  0.00    +0.084 C 
ATOM     33  C   UNL     1      35.819 -20.790 -20.050  0.00  0.00    +0.012 C 
ATOM     34  C   UNL     1      35.604 -21.821 -19.090  0.00  0.00    +0.019 C 
ATOM     35  C   UNL     1      34.264 -22.056 -18.874  0.00  0.00    +0.087 C 
ENDBRANCH  28  32
ENDBRANCH  21  27
ENDBRANCH  19  20
ENDBRANCH   3  19
TORSDOF 6
ENDMDL
MODEL 9
REMARK VINA RESULT:     -10.3      5.139      9.045
REMARK  Name = 42628060
REMARK  6 active torsions:
REMARK  status: ('A' for Active; 'I' for Inactive)
REMARK    1  A    between atoms: N_2  and  C_6
REMARK    2  A    between atoms: C_3  and  C_19
REMARK    3  A    between atoms: C_9  and  N_13
REMARK    4  A    between atoms: C_19  and  N_20
REMARK    5  A    between atoms: C_21  and  N_27
REMARK    6  A    between atoms: C_28  and  C_32
REMARK                            x       y       z     vdW  Elec       q    Type
REMARK                         _______ _______ _______ _____ _____    ______ ____
ROOT
ATOM      1  O   UNL     1      34.087 -23.356 -19.904  0.00  0.00    -0.277 OA
ATOM      2  N   UNL     1      34.562 -21.624 -18.391  0.00  0.00    -0.284 N 
ATOM      3  C   UNL     1      34.043 -22.179 -19.560  0.00  0.00    +0.205 C 
ATOM      4  H   UNL     1      34.439 -20.654 -18.280  0.00  0.00    +0.155 HD
ENDROOT
BRANCH   2   6
ATOM      5  F   UNL     1      33.247 -23.404 -16.699  0.00  0.00    -0.203 F 
ATOM      6  C   UNL     1      35.243 -22.292 -17.347  0.00  0.00    +0.078 C 
ATOM      7  C   UNL     1      34.555 -23.178 -16.517  0.00  0.00    +0.155 C 
ATOM      8  C   UNL     1      36.604 -22.063 -17.147  0.00  0.00    +0.018 C 
ATOM      9  C   UNL     1      36.591 -23.605 -15.287  0.00  0.00    +0.061 C 
ATOM     10  C   UNL     1      35.230 -23.835 -15.487  0.00  0.00    +0.046 C 
ATOM     11  C   UNL     1      37.278 -22.720 -16.117  0.00  0.00    +0.017 C 
BRANCH   9  13
ATOM     12  O   UNL     1      36.546 -22.830 -12.501  0.00  0.00    -0.269 OA
ATOM     13  N   UNL     1      37.291 -24.287 -14.217  0.00  0.00    -0.233 N 
ATOM     14  C   UNL     1      37.222 -23.782 -12.893  0.00  0.00    +0.257 C 
ATOM     15  C   UNL     1      38.019 -25.452 -14.474  0.00  0.00    +0.072 C 
ATOM     16  C   UNL     1      38.011 -24.519 -11.857  0.00  0.00    +0.059 C 
ATOM     17  C   UNL     1      38.689 -26.111 -13.524  0.00  0.00    +0.017 C 
ATOM     18  C   UNL     1      38.689 -25.624 -12.177  0.00  0.00    +0.006 C 
ENDBRANCH   9  13
ENDBRANCH   2   6
BRANCH   3  19
ATOM     19  C   UNL     1      33.389 -21.102 -20.408  0.00  0.00    +0.010 C 
BRANCH  19  20
ATOM     20  N   UNL     1      34.221 -19.908 -20.399  0.00  0.00    +0.394 N 
ATOM     21  C   UNL     1      34.724 -17.790 -21.233  0.00  0.00    +0.049 C 
ATOM     22  C   UNL     1      35.972 -18.669 -21.340  0.00  0.00    -0.005 C 
ATOM     23  C   UNL     1      33.570 -18.770 -21.050  0.00  0.00    -0.057 C 
ATOM     24  C   UNL     1      35.473 -20.094 -21.133  0.00  0.00    -0.075 C 
ATOM     25  H   UNL     1      34.387 -19.730 -19.409  0.00  0.00    -0.079 HD
BRANCH  21  27
ATOM     26  O   UNL     1      33.292 -15.303 -21.303  0.00  0.00    -0.270 OA
ATOM     27  N   UNL     1      34.541 -16.937 -22.375  0.00  0.00    -0.304 N 
ATOM     28  C   UNL     1      33.829 -15.746 -22.316  0.00  0.00    +0.252 C 
ATOM     29  H   UNL     1      34.936 -17.209 -23.235  0.00  0.00    +0.150 HD
BRANCH  28  32
ATOM     30 CL   UNL     1      33.553 -11.661 -26.035  0.00  0.00    -0.075 Cl
ATOM     31  S   UNL     1      33.776 -13.282 -23.558  0.00  0.00    -0.071 S 
ATOM     32  C   UNL     1      33.707 -14.992 -23.591  0.00  0.00    +0.084 C 
ATOM     33  C   UNL     1      33.539 -15.478 -24.869  0.00  0.00    +0.012 C 
ATOM     34  C   UNL     1      33.467 -14.432 -25.833  0.00  0.00    +0.019 C 
ATOM     35  C   UNL     1      33.582 -13.187 -25.256  0.00  0.00    +0.087 C 
ENDBRANCH  28  32
ENDBRANCH  21  27
ENDBRANCH  19  20
ENDBRANCH   3  19
TORSDOF 6
ENDMDL
