MODEL 1
REMARK VINA RESULT:      -8.7      0.000      0.000
REMARK  Name = 5324346
REMARK  11 active torsions:
REMARK  status: ('A' for Active; 'I' for Inactive)
REMARK    1  A    between atoms: N_1  and  O_13
REMARK    2  A    between atoms: C_2  and  C_3
REMARK    3  A    between atoms: C_2  and  C_20
REMARK    4  A    between atoms: C_6  and  C_12
REMARK    5  A    between atoms: O_13  and  C_14
REMARK    6  A    between atoms: C_14  and  C_15
REMARK    7  A    between atoms: C_15  and  N_16
REMARK    8  A    between atoms: C_20  and  C_21
REMARK    9  A    between atoms: C_21  and  C_22
REMARK   10  A    between atoms: C_22  and  C_23
REMARK   11  A    between atoms: C_23  and  O_24
REMARK                            x       y       z     vdW  Elec       q    Type
REMARK                         _______ _______ _______ _____ _____    ______ ____
ROOT
ATOM      1  N   UNL     1      34.518 -16.802 -21.387  0.00  0.00    -0.088 NA
ATOM      2  C   UNL     1      34.913 -17.957 -21.839  0.00  0.00    +0.097 C 
ENDROOT
BRANCH   2   3
ATOM      3  C   UNL     1      34.628 -19.173 -21.015  0.00  0.00    +0.017 C 
ATOM      4  C   UNL     1      33.310 -19.523 -20.719  0.00  0.00    +0.001 C 
ATOM      5  C   UNL     1      35.679 -19.959 -20.542  0.00  0.00    +0.001 C 
ATOM      6  C   UNL     1      34.097 -21.442 -19.480  0.00  0.00    +0.071 C 
ATOM      7  C   UNL     1      33.044 -20.656 -19.952  0.00  0.00    +0.004 C 
ATOM      8  C   UNL     1      35.414 -21.092 -19.775  0.00  0.00    +0.004 C 
BRANCH   6  12
ATOM      9  F   UNL     1      33.880 -23.821 -19.363  0.00  0.00    -0.166 F 
ATOM     10  F   UNL     1      34.675 -22.820 -17.612  0.00  0.00    -0.166 F 
ATOM     11  F   UNL     1      32.565 -22.633 -18.104  0.00  0.00    -0.166 F 
ATOM     12  C   UNL     1      33.812 -22.653 -18.658  0.00  0.00    +0.419 C 
ENDBRANCH   6  12
ENDBRANCH   2   3
BRANCH   1  13
ATOM     13  O   UNL     1      34.858 -15.757 -22.252  0.00  0.00    -0.380 OA
BRANCH  13  14
ATOM     14  C   UNL     1      34.211 -14.578 -21.796  0.00  0.00    +0.215 C 
BRANCH  14  15
ATOM     15  C   UNL     1      32.707 -14.789 -21.866  0.00  0.00    -0.035 C 
BRANCH  15  16
ATOM     16  N   UNL     1      32.024 -13.529 -22.119  0.00  0.00    +0.383 N 
ATOM     17  H   UNL     1      31.682 -13.145 -21.237  0.00  0.00    -0.089 HD
ATOM     18  H   UNL     1      31.236 -13.689 -22.747  0.00  0.00    -0.089 HD
ATOM     19  H   UNL     1      32.674 -12.870 -22.547  0.00  0.00    -0.089 HD
ENDBRANCH  15  16
ENDBRANCH  14  15
ENDBRANCH  13  14
ENDBRANCH   1  13
BRANCH   2  20
ATOM     20  C   UNL     1      35.654 -18.129 -23.164  0.00  0.00    +0.049 C 
BRANCH  20  21
ATOM     21  C   UNL     1      34.891 -19.057 -24.108  0.00  0.00    +0.009 C 
BRANCH  21  22
ATOM     22  C   UNL     1      34.121 -18.265 -25.162  0.00  0.00    +0.032 C 
BRANCH  22  23
ATOM     23  C   UNL     1      34.681 -16.859 -25.329  0.00  0.00    +0.142 C 
BRANCH  23  24
ATOM     24  O   UNL     1      33.827 -16.125 -26.194  0.00  0.00    -0.351 OA
ATOM     25  C   UNL     1      33.291 -14.977 -25.548  0.00  0.00    +0.174 C 
ENDBRANCH  23  24
ENDBRANCH  22  23
ENDBRANCH  21  22
ENDBRANCH  20  21
ENDBRANCH   2  20
TORSDOF 11
ENDMDL
MODEL 2
REMARK VINA RESULT:      -8.4      1.633      3.136
REMARK  Name = 5324346
REMARK  11 active torsions:
REMARK  status: ('A' for Active; 'I' for Inactive)
REMARK    1  A    between atoms: N_1  and  O_13
REMARK    2  A    between atoms: C_2  and  C_3
REMARK    3  A    between atoms: C_2  and  C_20
REMARK    4  A    between atoms: C_6  and  C_12
REMARK    5  A    between atoms: O_13  and  C_14
REMARK    6  A    between atoms: C_14  and  C_15
REMARK    7  A    between atoms: C_15  and  N_16
REMARK    8  A    between atoms: C_20  and  C_21
REMARK    9  A    between atoms: C_21  and  C_22
REMARK   10  A    between atoms: C_22  and  C_23
REMARK   11  A    between atoms: C_23  and  O_24
REMARK                            x       y       z     vdW  Elec       q    Type
REMARK                         _______ _______ _______ _____ _____    ______ ____
ROOT
ATOM      1  N   UNL     1      34.984 -19.253 -23.226  0.00  0.00    -0.088 NA
ATOM      2  C   UNL     1      34.982 -18.893 -21.975  0.00  0.00    +0.097 C 
ENDROOT
BRANCH   2   3
ATOM      3  C   UNL     1      34.605 -19.913 -20.948  0.00  0.00    +0.017 C 
ATOM      4  C   UNL     1      35.596 -20.644 -20.292  0.00  0.00    +0.001 C 
ATOM      5  C   UNL     1      33.261 -20.134 -20.644  0.00  0.00    +0.001 C 
ATOM      6  C   UNL     1      33.900 -21.814 -19.031  0.00  0.00    +0.071 C 
ATOM      7  C   UNL     1      35.244 -21.594 -19.334  0.00  0.00    +0.004 C 
ATOM      8  C   UNL     1      32.909 -21.084 -19.686  0.00  0.00    +0.004 C 
BRANCH   6  12
ATOM      9  F   UNL     1      33.554 -24.114 -18.473  0.00  0.00    -0.166 F 
ATOM     10  F   UNL     1      34.339 -22.831 -16.911  0.00  0.00    -0.166 F 
ATOM     11  F   UNL     1      32.261 -22.648 -17.523  0.00  0.00    -0.166 F 
ATOM     12  C   UNL     1      33.523 -22.830 -18.007  0.00  0.00    +0.419 C 
ENDBRANCH   6  12
ENDBRANCH   2   3
BRANCH   1  13
ATOM     13  O   UNL     1      35.346 -18.200 -24.074  0.00  0.00    -0.380 OA
BRANCH  13  14
ATOM     14  C   UNL     1      34.296 -18.004 -25.008  0.00  0.00    +0.215 C 
BRANCH  14  15
ATOM     15  C   UNL     1      34.309 -16.552 -25.459  0.00  0.00    -0.035 C 
BRANCH  15  16
ATOM     16  N   UNL     1      33.852 -15.678 -24.387  0.00  0.00    +0.383 N 
ATOM     17  H   UNL     1      34.483 -15.763 -23.589  0.00  0.00    -0.089 HD
ATOM     18  H   UNL     1      32.910 -15.949 -24.106  0.00  0.00    -0.089 HD
ATOM     19  H   UNL     1      33.847 -14.713 -24.715  0.00  0.00    -0.089 HD
ENDBRANCH  15  16
ENDBRANCH  14  15
ENDBRANCH  13  14
ENDBRANCH   1  13
BRANCH   2  20
ATOM     20  C   UNL     1      35.343 -17.483 -21.509  0.00  0.00    +0.049 C 
BRANCH  20  21
ATOM     21  C   UNL     1      34.120 -16.754 -20.955  0.00  0.00    +0.009 C 
BRANCH  21  22
ATOM     22  C   UNL     1      34.386 -15.257 -20.808  0.00  0.00    +0.032 C 
BRANCH  22  23
ATOM     23  C   UNL     1      33.091 -14.463 -20.713  0.00  0.00    +0.142 C 
BRANCH  23  24
ATOM     24  O   UNL     1      32.509 -14.378 -22.006  0.00  0.00    -0.351 OA
ATOM     25  C   UNL     1      32.229 -13.031 -22.365  0.00  0.00    +0.174 C 
ENDBRANCH  23  24
ENDBRANCH  22  23
ENDBRANCH  21  22
ENDBRANCH  20  21
ENDBRANCH   2  20
TORSDOF 11
ENDMDL
MODEL 3
REMARK VINA RESULT:      -8.3      5.446      8.395
REMARK  Name = 5324346
REMARK  11 active torsions:
REMARK  status: ('A' for Active; 'I' for Inactive)
REMARK    1  A    between atoms: N_1  and  O_13
REMARK    2  A    between atoms: C_2  and  C_3
REMARK    3  A    between atoms: C_2  and  C_20
REMARK    4  A    between atoms: C_6  and  C_12
REMARK    5  A    between atoms: O_13  and  C_14
REMARK    6  A    between atoms: C_14  and  C_15
REMARK    7  A    between atoms: C_15  and  N_16
REMARK    8  A    between atoms: C_20  and  C_21
REMARK    9  A    between atoms: C_21  and  C_22
REMARK   10  A    between atoms: C_22  and  C_23
REMARK   11  A    between atoms: C_23  and  O_24
REMARK                            x       y       z     vdW  Elec       q    Type
REMARK                         _______ _______ _______ _____ _____    ______ ____
ROOT
ATOM      1  N   UNL     1      35.427 -22.866 -17.121  0.00  0.00    -0.088 NA
ATOM      2  C   UNL     1      34.404 -22.692 -17.906  0.00  0.00    +0.097 C 
ENDROOT
BRANCH   2   3
ATOM      3  C   UNL     1      34.526 -21.697 -19.016  0.00  0.00    +0.017 C 
ATOM      4  C   UNL     1      33.380 -21.186 -19.625  0.00  0.00    +0.001 C 
ATOM      5  C   UNL     1      35.787 -21.277 -19.442  0.00  0.00    +0.001 C 
ATOM      6  C   UNL     1      34.755 -19.839 -21.085  0.00  0.00    +0.071 C 
ATOM      7  C   UNL     1      33.494 -20.258 -20.660  0.00  0.00    +0.004 C 
ATOM      8  C   UNL     1      35.901 -20.349 -20.476  0.00  0.00    +0.004 C 
BRANCH   6  12
ATOM      9  F   UNL     1      34.444 -19.318 -23.399  0.00  0.00    -0.166 F 
ATOM     10  F   UNL     1      34.164 -17.701 -21.981  0.00  0.00    -0.166 F 
ATOM     11  F   UNL     1      36.165 -18.444 -22.398  0.00  0.00    -0.166 F 
ATOM     12  C   UNL     1      34.877 -18.847 -22.192  0.00  0.00    +0.419 C 
ENDBRANCH   6  12
ENDBRANCH   2   3
BRANCH   1  13
ATOM     13  O   UNL     1      35.170 -23.817 -16.127  0.00  0.00    -0.380 OA
BRANCH  13  14
ATOM     14  C   UNL     1      35.890 -23.443 -14.962  0.00  0.00    +0.215 C 
BRANCH  14  15
ATOM     15  C   UNL     1      37.258 -24.105 -15.000  0.00  0.00    -0.035 C 
BRANCH  15  16
ATOM     16  N   UNL     1      38.149 -23.390 -15.901  0.00  0.00    +0.383 N 
ATOM     17  H   UNL     1      38.624 -24.058 -16.509  0.00  0.00    -0.089 HD
ATOM     18  H   UNL     1      38.841 -22.873 -15.358  0.00  0.00    -0.089 HD
ATOM     19  H   UNL     1      37.607 -22.739 -16.469  0.00  0.00    -0.089 HD
ENDBRANCH  15  16
ENDBRANCH  14  15
ENDBRANCH  13  14
ENDBRANCH   1  13
BRANCH   2  20
ATOM     20  C   UNL     1      33.087 -23.452 -17.745  0.00  0.00    +0.049 C 
BRANCH  20  21
ATOM     21  C   UNL     1      32.106 -22.678 -16.865  0.00  0.00    +0.009 C 
BRANCH  21  22
ATOM     22  C   UNL     1      31.144 -23.621 -16.146  0.00  0.00    +0.032 C 
BRANCH  22  23
ATOM     23  C   UNL     1      29.825 -22.935 -15.818  0.00  0.00    +0.142 C 
BRANCH  23  24
ATOM     24  O   UNL     1      29.261 -22.429 -17.019  0.00  0.00    -0.351 OA
ATOM     25  C   UNL     1      27.909 -22.842 -17.175  0.00  0.00    +0.174 C 
ENDBRANCH  23  24
ENDBRANCH  22  23
ENDBRANCH  21  22
ENDBRANCH  20  21
ENDBRANCH   2  20
TORSDOF 11
ENDMDL
MODEL 4
REMARK VINA RESULT:      -8.1      1.862      3.272
REMARK  Name = 5324346
REMARK  11 active torsions:
REMARK  status: ('A' for Active; 'I' for Inactive)
REMARK    1  A    between atoms: N_1  and  O_13
REMARK    2  A    between atoms: C_2  and  C_3
REMARK    3  A    between atoms: C_2  and  C_20
REMARK    4  A    between atoms: C_6  and  C_12
REMARK    5  A    between atoms: O_13  and  C_14
REMARK    6  A    between atoms: C_14  and  C_15
REMARK    7  A    between atoms: C_15  and  N_16
REMARK    8  A    between atoms: C_20  and  C_21
REMARK    9  A    between atoms: C_21  and  C_22
REMARK   10  A    between atoms: C_22  and  C_23
REMARK   11  A    between atoms: C_23  and  O_24
REMARK                            x       y       z     vdW  Elec       q    Type
REMARK                         _______ _______ _______ _____ _____    ______ ____
ROOT
ATOM      1  N   UNL     1      34.878 -17.581 -23.359  0.00  0.00    -0.088 NA
ATOM      2  C   UNL     1      34.616 -17.477 -22.089  0.00  0.00    +0.097 C 
ENDROOT
BRANCH   2   3
ATOM      3  C   UNL     1      34.467 -18.735 -21.293  0.00  0.00    +0.017 C 
ATOM      4  C   UNL     1      33.197 -19.188 -20.934  0.00  0.00    +0.001 C 
ATOM      5  C   UNL     1      35.598 -19.458 -20.910  0.00  0.00    +0.001 C 
ATOM      6  C   UNL     1      34.190 -21.082 -19.811  0.00  0.00    +0.071 C 
ATOM      7  C   UNL     1      33.058 -20.361 -20.193  0.00  0.00    +0.004 C 
ATOM      8  C   UNL     1      35.459 -20.630 -20.169  0.00  0.00    +0.004 C 
BRANCH   6  12
ATOM      9  F   UNL     1      34.078 -23.472 -19.776  0.00  0.00    -0.166 F 
ATOM     10  F   UNL     1      35.016 -22.507 -18.075  0.00  0.00    -0.166 F 
ATOM     11  F   UNL     1      32.860 -22.391 -18.336  0.00  0.00    -0.166 F 
ATOM     12  C   UNL     1      34.041 -22.336 -19.017  0.00  0.00    +0.419 C 
ENDBRANCH   6  12
ENDBRANCH   2   3
BRANCH   1  13
ATOM     13  O   UNL     1      34.983 -16.330 -23.977  0.00  0.00    -0.380 OA
BRANCH  13  14
ATOM     14  C   UNL     1      34.111 -16.316 -25.097  0.00  0.00    +0.215 C 
BRANCH  14  15
ATOM     15  C   UNL     1      33.346 -15.002 -25.105  0.00  0.00    -0.035 C 
BRANCH  15  16
ATOM     16  N   UNL     1      32.578 -14.864 -26.334  0.00  0.00    +0.383 N 
ATOM     17  H   UNL     1      32.218 -15.777 -26.613  0.00  0.00    -0.089 HD
ATOM     18  H   UNL     1      33.178 -14.495 -27.071  0.00  0.00    -0.089 HD
ATOM     19  H   UNL     1      31.799 -14.225 -26.176  0.00  0.00    -0.089 HD
ENDBRANCH  15  16
ENDBRANCH  14  15
ENDBRANCH  13  14
ENDBRANCH   1  13
BRANCH   2  20
ATOM     20  C   UNL     1      34.453 -16.136 -21.375  0.00  0.00    +0.049 C 
BRANCH  20  21
ATOM     21  C   UNL     1      32.981 -15.733 -21.285  0.00  0.00    +0.009 C 
BRANCH  21  22
ATOM     22  C   UNL     1      32.824 -14.328 -20.708  0.00  0.00    +0.032 C 
BRANCH  22  23
ATOM     23  C   UNL     1      32.238 -13.364 -21.729  0.00  0.00    +0.142 C 
BRANCH  23  24
ATOM     24  O   UNL     1      32.177 -12.067 -21.152  0.00  0.00    -0.351 OA
ATOM     25  C   UNL     1      30.906 -11.463 -21.359  0.00  0.00    +0.174 C 
ENDBRANCH  23  24
ENDBRANCH  22  23
ENDBRANCH  21  22
ENDBRANCH  20  21
ENDBRANCH   2  20
TORSDOF 11
ENDMDL
MODEL 5
REMARK VINA RESULT:      -8.0      5.461      8.525
REMARK  Name = 5324346
REMARK  11 active torsions:
REMARK  status: ('A' for Active; 'I' for Inactive)
REMARK    1  A    between atoms: N_1  and  O_13
REMARK    2  A    between atoms: C_2  and  C_3
REMARK    3  A    between atoms: C_2  and  C_20
REMARK    4  A    between atoms: C_6  and  C_12
REMARK    5  A    between atoms: O_13  and  C_14
REMARK    6  A    between atoms: C_14  and  C_15
REMARK    7  A    between atoms: C_15  and  N_16
REMARK    8  A    between atoms: C_20  and  C_21
REMARK    9  A    between atoms: C_21  and  C_22
REMARK   10  A    between atoms: C_22  and  C_23
REMARK   11  A    between atoms: C_23  and  O_24
REMARK                            x       y       z     vdW  Elec       q    Type
REMARK                         _______ _______ _______ _____ _____    ______ ____
ROOT
ATOM      1  N   UNL     1      31.986 -22.777 -17.576  0.00  0.00    -0.088 NA
ATOM      2  C   UNL     1      33.264 -22.727 -17.814  0.00  0.00    +0.097 C 
ENDROOT
BRANCH   2   3
ATOM      3  C   UNL     1      33.748 -21.803 -18.888  0.00  0.00    +0.017 C 
ATOM      4  C   UNL     1      35.102 -21.768 -19.221  0.00  0.00    +0.001 C 
ATOM      5  C   UNL     1      32.844 -20.978 -19.557  0.00  0.00    +0.001 C 
ATOM      6  C   UNL     1      34.647 -20.082 -20.890  0.00  0.00    +0.071 C 
ATOM      7  C   UNL     1      35.552 -20.907 -20.221  0.00  0.00    +0.004 C 
ATOM      8  C   UNL     1      33.294 -20.117 -20.558  0.00  0.00    +0.004 C 
BRANCH   6  12
ATOM      9  F   UNL     1      35.021 -19.680 -23.218  0.00  0.00    -0.166 F 
ATOM     10  F   UNL     1      34.453 -17.974 -22.006  0.00  0.00    -0.166 F 
ATOM     11  F   UNL     1      36.444 -18.827 -21.814  0.00  0.00    -0.166 F 
ATOM     12  C   UNL     1      35.129 -19.161 -21.960  0.00  0.00    +0.419 C 
ENDBRANCH   6  12
ENDBRANCH   2   3
BRANCH   1  13
ATOM     13  O   UNL     1      31.677 -23.685 -16.557  0.00  0.00    -0.380 OA
BRANCH  13  14
ATOM     14  C   UNL     1      30.711 -23.084 -15.709  0.00  0.00    +0.215 C 
BRANCH  14  15
ATOM     15  C   UNL     1      29.338 -23.628 -16.070  0.00  0.00    -0.035 C 
BRANCH  15  16
ATOM     16  N   UNL     1      28.721 -22.815 -17.109  0.00  0.00    +0.383 N 
ATOM     17  H   UNL     1      29.162 -21.895 -17.125  0.00  0.00    -0.089 HD
ATOM     18  H   UNL     1      27.726 -22.711 -16.913  0.00  0.00    -0.089 HD
ATOM     19  H   UNL     1      28.845 -23.269 -18.013  0.00  0.00    -0.089 HD
ENDBRANCH  15  16
ENDBRANCH  14  15
ENDBRANCH  13  14
ENDBRANCH   1  13
BRANCH   2  20
ATOM     20  C   UNL     1      34.290 -23.566 -17.054  0.00  0.00    +0.049 C 
BRANCH  20  21
ATOM     21  C   UNL     1      34.757 -22.854 -15.785  0.00  0.00    +0.009 C 
BRANCH  21  22
ATOM     22  C   UNL     1      36.069 -23.441 -15.269  0.00  0.00    +0.032 C 
BRANCH  22  23
ATOM     23  C   UNL     1      37.273 -22.826 -15.968  0.00  0.00    +0.142 C 
BRANCH  23  24
ATOM     24  O   UNL     1      38.456 -23.406 -15.438  0.00  0.00    -0.351 OA
ATOM     25  C   UNL     1      38.181 -24.627 -14.763  0.00  0.00    +0.174 C 
ENDBRANCH  23  24
ENDBRANCH  22  23
ENDBRANCH  21  22
ENDBRANCH  20  21
ENDBRANCH   2  20
TORSDOF 11
ENDMDL
MODEL 6
REMARK VINA RESULT:      -7.8      5.384      8.628
REMARK  Name = 5324346
REMARK  11 active torsions:
REMARK  status: ('A' for Active; 'I' for Inactive)
REMARK    1  A    between atoms: N_1  and  O_13
REMARK    2  A    between atoms: C_2  and  C_3
REMARK    3  A    between atoms: C_2  and  C_20
REMARK    4  A    between atoms: C_6  and  C_12
REMARK    5  A    between atoms: O_13  and  C_14
REMARK    6  A    between atoms: C_14  and  C_15
REMARK    7  A    between atoms: C_15  and  N_16
REMARK    8  A    between atoms: C_20  and  C_21
REMARK    9  A    between atoms: C_21  and  C_22
REMARK   10  A    between atoms: C_22  and  C_23
REMARK   11  A    between atoms: C_23  and  O_24
REMARK                            x       y       z     vdW  Elec       q    Type
REMARK                         _______ _______ _______ _____ _____    ______ ____
ROOT
ATOM      1  N   UNL     1      31.911 -22.588 -17.718  0.00  0.00    -0.088 NA
ATOM      2  C   UNL     1      33.183 -22.610 -17.995  0.00  0.00    +0.097 C 
ENDROOT
BRANCH   2   3
ATOM      3  C   UNL     1      33.692 -21.681 -19.052  0.00  0.00    +0.017 C 
ATOM      4  C   UNL     1      32.810 -20.830 -19.717  0.00  0.00    +0.001 C 
ATOM      5  C   UNL     1      35.050 -21.666 -19.373  0.00  0.00    +0.001 C 
ATOM      6  C   UNL     1      34.643 -19.949 -21.022  0.00  0.00    +0.071 C 
ATOM      7  C   UNL     1      33.285 -19.964 -20.702  0.00  0.00    +0.004 C 
ATOM      8  C   UNL     1      35.525 -20.800 -20.357  0.00  0.00    +0.004 C 
BRANCH   6  12
ATOM      9  F   UNL     1      34.497 -17.825 -22.112  0.00  0.00    -0.166 F 
ATOM     10  F   UNL     1      36.471 -18.705 -21.934  0.00  0.00    -0.166 F 
ATOM     11  F   UNL     1      35.032 -19.542 -23.332  0.00  0.00    -0.166 F 
ATOM     12  C   UNL     1      35.150 -19.024 -22.075  0.00  0.00    +0.419 C 
ENDBRANCH   6  12
ENDBRANCH   2   3
BRANCH   1  13
ATOM     13  O   UNL     1      31.576 -23.510 -16.721  0.00  0.00    -0.380 OA
BRANCH  13  14
ATOM     14  C   UNL     1      30.598 -22.916 -15.881  0.00  0.00    +0.215 C 
BRANCH  14  15
ATOM     15  C   UNL     1      30.851 -23.357 -14.448  0.00  0.00    -0.035 C 
BRANCH  15  16
ATOM     16  N   UNL     1      32.022 -22.685 -13.904  0.00  0.00    +0.383 N 
ATOM     17  H   UNL     1      32.795 -22.765 -14.565  0.00  0.00    -0.089 HD
ATOM     18  H   UNL     1      32.284 -23.121 -13.020  0.00  0.00    -0.089 HD
ATOM     19  H   UNL     1      31.807 -21.701 -13.748  0.00  0.00    -0.089 HD
ENDBRANCH  15  16
ENDBRANCH  14  15
ENDBRANCH  13  14
ENDBRANCH   1  13
BRANCH   2  20
ATOM     20  C   UNL     1      34.175 -23.538 -17.297  0.00  0.00    +0.049 C 
BRANCH  20  21
ATOM     21  C   UNL     1      34.796 -22.864 -16.073  0.00  0.00    +0.009 C 
BRANCH  21  22
ATOM     22  C   UNL     1      35.898 -23.728 -15.464  0.00  0.00    +0.032 C 
BRANCH  22  23
ATOM     23  C   UNL     1      37.272 -23.099 -15.649  0.00  0.00    +0.142 C 
BRANCH  23  24
ATOM     24  O   UNL     1      38.081 -23.426 -14.528  0.00  0.00    -0.351 OA
ATOM     25  C   UNL     1      38.256 -24.831 -14.402  0.00  0.00    +0.174 C 
ENDBRANCH  23  24
ENDBRANCH  22  23
ENDBRANCH  21  22
ENDBRANCH  20  21
ENDBRANCH   2  20
TORSDOF 11
ENDMDL
MODEL 7
REMARK VINA RESULT:      -7.6      7.054      9.880
REMARK  Name = 5324346
REMARK  11 active torsions:
REMARK  status: ('A' for Active; 'I' for Inactive)
REMARK    1  A    between atoms: N_1  and  O_13
REMARK    2  A    between atoms: C_2  and  C_3
REMARK    3  A    between atoms: C_2  and  C_20
REMARK    4  A    between atoms: C_6  and  C_12
REMARK    5  A    between atoms: O_13  and  C_14
REMARK    6  A    between atoms: C_14  and  C_15
REMARK    7  A    between atoms: C_15  and  N_16
REMARK    8  A    between atoms: C_20  and  C_21
REMARK    9  A    between atoms: C_21  and  C_22
REMARK   10  A    between atoms: C_22  and  C_23
REMARK   11  A    between atoms: C_23  and  O_24
REMARK                            x       y       z     vdW  Elec       q    Type
REMARK                         _______ _______ _______ _____ _____    ______ ____
ROOT
ATOM      1  N   UNL     1      33.543 -13.776 -24.559  0.00  0.00    -0.088 NA
ATOM      2  C   UNL     1      33.072 -13.056 -23.582  0.00  0.00    +0.097 C 
ENDROOT
BRANCH   2   3
ATOM      3  C   UNL     1      33.341 -11.585 -23.595  0.00  0.00    +0.017 C 
ATOM      4  C   UNL     1      32.494 -10.714 -22.909  0.00  0.00    +0.001 C 
ATOM      5  C   UNL     1      34.440 -11.082 -24.292  0.00  0.00    +0.001 C 
ATOM      6  C   UNL     1      33.844  -8.841 -23.618  0.00  0.00    +0.071 C 
ATOM      7  C   UNL     1      32.745  -9.342 -22.920  0.00  0.00    +0.004 C 
ATOM      8  C   UNL     1      34.691  -9.710 -24.304  0.00  0.00    +0.004 C 
BRANCH   6  12
ATOM      9  F   UNL     1      35.429  -7.056 -23.457  0.00  0.00    -0.166 F 
ATOM     10  F   UNL     1      33.751  -6.761 -24.798  0.00  0.00    -0.166 F 
ATOM     11  F   UNL     1      33.443  -6.708 -22.646  0.00  0.00    -0.166 F 
ATOM     12  C   UNL     1      34.112  -7.374 -23.631  0.00  0.00    +0.419 C 
ENDBRANCH   6  12
ENDBRANCH   2   3
BRANCH   1  13
ATOM     13  O   UNL     1      33.224 -15.130 -24.415  0.00  0.00    -0.380 OA
BRANCH  13  14
ATOM     14  C   UNL     1      33.616 -15.805 -25.600  0.00  0.00    +0.215 C 
BRANCH  14  15
ATOM     15  C   UNL     1      34.689 -16.823 -25.250  0.00  0.00    -0.035 C 
BRANCH  15  16
ATOM     16  N   UNL     1      35.470 -16.373 -24.106  0.00  0.00    +0.383 N 
ATOM     17  H   UNL     1      35.765 -15.408 -24.256  0.00  0.00    -0.089 HD
ATOM     18  H   UNL     1      36.291 -16.968 -24.000  0.00  0.00    -0.089 HD
ATOM     19  H   UNL     1      34.899 -16.427 -23.263  0.00  0.00    -0.089 HD
ENDBRANCH  15  16
ENDBRANCH  14  15
ENDBRANCH  13  14
ENDBRANCH   1  13
BRANCH   2  20
ATOM     20  C   UNL     1      32.262 -13.643 -22.426  0.00  0.00    +0.049 C 
BRANCH  20  21
ATOM     21  C   UNL     1      33.158 -13.959 -21.229  0.00  0.00    +0.009 C 
BRANCH  21  22
ATOM     22  C   UNL     1      33.065 -15.434 -20.842  0.00  0.00    +0.032 C 
BRANCH  22  23
ATOM     23  C   UNL     1      34.441 -16.079 -20.754  0.00  0.00    +0.142 C 
BRANCH  23  24
ATOM     24  O   UNL     1      34.390 -17.353 -21.379  0.00  0.00    -0.351 OA
ATOM     25  C   UNL     1      35.549 -18.124 -21.087  0.00  0.00    +0.174 C 
ENDBRANCH  23  24
ENDBRANCH  22  23
ENDBRANCH  21  22
ENDBRANCH  20  21
ENDBRANCH   2  20
TORSDOF 11
ENDMDL
MODEL 8
REMARK VINA RESULT:      -7.6      7.707     10.111
REMARK  Name = 5324346
REMARK  11 active torsions:
REMARK  status: ('A' for Active; 'I' for Inactive)
REMARK    1  A    between atoms: N_1  and  O_13
REMARK    2  A    between atoms: C_2  and  C_3
REMARK    3  A    between atoms: C_2  and  C_20
REMARK    4  A    between atoms: C_6  and  C_12
REMARK    5  A    between atoms: O_13  and  C_14
REMARK    6  A    between atoms: C_14  and  C_15
REMARK    7  A    between atoms: C_15  and  N_16
REMARK    8  A    between atoms: C_20  and  C_21
REMARK    9  A    between atoms: C_21  and  C_22
REMARK   10  A    between atoms: C_22  and  C_23
REMARK   11  A    between atoms: C_23  and  O_24
REMARK                            x       y       z     vdW  Elec       q    Type
REMARK                         _______ _______ _______ _____ _____    ______ ____
ROOT
ATOM      1  N   UNL     1      35.420 -23.606 -16.064  0.00  0.00    -0.088 NA
ATOM      2  C   UNL     1      34.629 -23.919 -15.079  0.00  0.00    +0.097 C 
ENDROOT
BRANCH   2   3
ATOM      3  C   UNL     1      33.170 -23.616 -15.221  0.00  0.00    +0.017 C 
ATOM      4  C   UNL     1      32.330 -23.693 -14.110  0.00  0.00    +0.001 C 
ATOM      5  C   UNL     1      32.650 -23.255 -16.464  0.00  0.00    +0.001 C 
ATOM      6  C   UNL     1      30.452 -23.050 -15.486  0.00  0.00    +0.071 C 
ATOM      7  C   UNL     1      30.971 -23.411 -14.243  0.00  0.00    +0.004 C 
ATOM      8  C   UNL     1      31.291 -22.972 -16.597  0.00  0.00    +0.004 C 
BRANCH   6  12
ATOM      9  F   UNL     1      28.188 -23.804 -15.322  0.00  0.00    -0.166 F 
ATOM     10  F   UNL     1      28.570 -21.728 -14.826  0.00  0.00    -0.166 F 
ATOM     11  F   UNL     1      28.658 -22.382 -16.898  0.00  0.00    -0.166 F 
ATOM     12  C   UNL     1      28.998 -22.748 -15.628  0.00  0.00    +0.419 C 
ENDBRANCH   6  12
ENDBRANCH   2   3
BRANCH   1  13
ATOM     13  O   UNL     1      36.752 -23.937 -15.792  0.00  0.00    -0.380 OA
BRANCH  13  14
ATOM     14  C   UNL     1      37.541 -22.769 -15.961  0.00  0.00    +0.215 C 
BRANCH  14  15
ATOM     15  C   UNL     1      36.922 -21.916 -17.057  0.00  0.00    -0.035 C 
BRANCH  15  16
ATOM     16  N   UNL     1      37.454 -20.561 -17.014  0.00  0.00    +0.383 N 
ATOM     17  H   UNL     1      38.424 -20.588 -16.700  0.00  0.00    -0.089 HD
ATOM     18  H   UNL     1      36.902 -20.000 -16.366  0.00  0.00    -0.089 HD
ATOM     19  H   UNL     1      37.409 -20.150 -17.946  0.00  0.00    -0.089 HD
ENDBRANCH  15  16
ENDBRANCH  14  15
ENDBRANCH  13  14
ENDBRANCH   1  13
BRANCH   2  20
ATOM     20  C   UNL     1      35.118 -24.576 -13.789  0.00  0.00    +0.049 C 
BRANCH  20  21
ATOM     21  C   UNL     1      35.320 -23.540 -12.683  0.00  0.00    +0.009 C 
BRANCH  21  22
ATOM     22  C   UNL     1      36.794 -23.416 -12.303  0.00  0.00    +0.032 C 
BRANCH  22  23
ATOM     23  C   UNL     1      37.547 -24.717 -12.542  0.00  0.00    +0.142 C 
BRANCH  23  24
ATOM     24  O   UNL     1      38.827 -24.413 -13.078  0.00  0.00    -0.351 OA
ATOM     25  C   UNL     1      39.380 -25.526 -13.770  0.00  0.00    +0.174 C 
ENDBRANCH  23  24
ENDBRANCH  22  23
ENDBRANCH  21  22
ENDBRANCH  20  21
ENDBRANCH   2  20
TORSDOF 11
ENDMDL
MODEL 9
REMARK VINA RESULT:      -7.6      4.100      6.342
REMARK  Name = 5324346
REMARK  11 active torsions:
REMARK  status: ('A' for Active; 'I' for Inactive)
REMARK    1  A    between atoms: N_1  and  O_13
REMARK    2  A    between atoms: C_2  and  C_3
REMARK    3  A    between atoms: C_2  and  C_20
REMARK    4  A    between atoms: C_6  and  C_12
REMARK    5  A    between atoms: O_13  and  C_14
REMARK    6  A    between atoms: C_14  and  C_15
REMARK    7  A    between atoms: C_15  and  N_16
REMARK    8  A    between atoms: C_20  and  C_21
REMARK    9  A    between atoms: C_21  and  C_22
REMARK   10  A    between atoms: C_22  and  C_23
REMARK   11  A    between atoms: C_23  and  O_24
REMARK                            x       y       z     vdW  Elec       q    Type
REMARK                         _______ _______ _______ _____ _____    ______ ____
ROOT
ATOM      1  N   UNL     1      33.893 -12.530 -23.422  0.00  0.00    -0.088 NA
ATOM      2  C   UNL     1      33.278 -13.403 -22.677  0.00  0.00    +0.097 C 
ENDROOT
BRANCH   2   3
ATOM      3  C   UNL     1      33.923 -14.737 -22.473  0.00  0.00    +0.017 C 
ATOM      4  C   UNL     1      34.218 -15.181 -21.184  0.00  0.00    +0.001 C 
ATOM      5  C   UNL     1      34.230 -15.540 -23.573  0.00  0.00    +0.001 C 
ATOM      6  C   UNL     1      35.125 -17.227 -22.094  0.00  0.00    +0.071 C 
ATOM      7  C   UNL     1      34.819 -16.425 -20.994  0.00  0.00    +0.004 C 
ATOM      8  C   UNL     1      34.831 -16.784 -23.383  0.00  0.00    +0.004 C 
BRANCH   6  12
ATOM      9  F   UNL     1      35.313 -19.521 -22.744  0.00  0.00    -0.166 F 
ATOM     10  F   UNL     1      37.124 -18.541 -22.063  0.00  0.00    -0.166 F 
ATOM     11  F   UNL     1      35.564 -19.053 -20.636  0.00  0.00    -0.166 F 
ATOM     12  C   UNL     1      35.768 -18.556 -21.891  0.00  0.00    +0.419 C 
ENDBRANCH   6  12
ENDBRANCH   2   3
BRANCH   1  13
ATOM     13  O   UNL     1      33.174 -11.335 -23.532  0.00  0.00    -0.380 OA
BRANCH  13  14
ATOM     14  C   UNL     1      33.973 -10.404 -24.246  0.00  0.00    +0.215 C 
BRANCH  14  15
ATOM     15  C   UNL     1      34.543 -11.092 -25.476  0.00  0.00    -0.035 C 
BRANCH  15  16
ATOM     16  N   UNL     1      35.639 -10.315 -26.037  0.00  0.00    +0.383 N 
ATOM     17  H   UNL     1      35.451  -9.321 -25.904  0.00  0.00    -0.089 HD
ATOM     18  H   UNL     1      35.722 -10.514 -27.034  0.00  0.00    -0.089 HD
ATOM     19  H   UNL     1      36.508 -10.564 -25.566  0.00  0.00    -0.089 HD
ENDBRANCH  15  16
ENDBRANCH  14  15
ENDBRANCH  13  14
ENDBRANCH   1  13
BRANCH   2  20
ATOM     20  C   UNL     1      31.932 -13.130 -22.007  0.00  0.00    +0.049 C 
BRANCH  20  21
ATOM     21  C   UNL     1      32.120 -12.551 -20.605  0.00  0.00    +0.009 C 
BRANCH  21  22
ATOM     22  C   UNL     1      31.272 -11.297 -20.406  0.00  0.00    +0.032 C 
BRANCH  22  23
ATOM     23  C   UNL     1      31.428 -10.730 -19.002  0.00  0.00    +0.142 C 
BRANCH  23  24
ATOM     24  O   UNL     1      32.402  -9.696 -19.031  0.00  0.00    -0.351 OA
ATOM     25  C   UNL     1      32.185  -8.805 -20.118  0.00  0.00    +0.174 C 
ENDBRANCH  23  24
ENDBRANCH  22  23
ENDBRANCH  21  22
ENDBRANCH  20  21
ENDBRANCH   2  20
TORSDOF 11
ENDMDL
