MODEL 1
REMARK VINA RESULT:     -11.2      0.000      0.000
REMARK  Name = 4369443
REMARK  8 active torsions:
REMARK  status: ('A' for Active; 'I' for Inactive)
REMARK    1  A    between atoms: N_3  and  C_29
REMARK    2  A    between atoms: C_4  and  C_16
REMARK    3  A    between atoms: C_5  and  C_8
REMARK    4  A    between atoms: C_18  and  O_20
REMARK    5  A    between atoms: O_20  and  C_21
REMARK    6  A    between atoms: C_22  and  O_27
REMARK    7  A    between atoms: C_29  and  O_30
REMARK    8  A    between atoms: O_30  and  C_31
REMARK                            x       y       z     vdW  Elec       q    Type
REMARK                         _______ _______ _______ _____ _____    ______ ____
ROOT
ATOM      1  O   UNL     1      33.529 -15.383 -26.499  0.00  0.00    -0.331 OA
ATOM      2  O   UNL     1      32.772 -13.261 -26.981  0.00  0.00    -0.243 OA
ATOM      3  N   UNL     1      33.878 -15.986 -25.299  0.00  0.00    -0.158 N 
ATOM      4  C   UNL     1      33.807 -15.077 -24.277  0.00  0.00    +0.133 A 
ATOM      5  C   UNL     1      33.355 -13.892 -24.719  0.00  0.00    +0.099 A 
ATOM      6  C   UNL     1      33.173 -14.093 -26.186  0.00  0.00    +0.367 A 
ENDROOT
BRANCH   5   8
ATOM      7  F   UNL     1      32.457  -9.101 -21.984  0.00  0.00    -0.204 F 
ATOM      8  C   UNL     1      33.120 -12.640 -24.004  0.00  0.00    +0.008 C 
ATOM      9  C   UNL     1      32.125 -12.569 -23.029  0.00  0.00    +0.003 C 
ATOM     10  C   UNL     1      33.891 -11.515 -24.296  0.00  0.00    +0.003 C 
ATOM     11  C   UNL     1      31.901 -11.373 -22.347  0.00  0.00    +0.030 C 
ATOM     12  C   UNL     1      33.667 -10.319 -23.614  0.00  0.00    +0.030 C 
ATOM     13  C   UNL     1      32.672 -10.249 -22.639  0.00  0.00    +0.140 C 
ENDBRANCH   5   8
BRANCH   4  16
ATOM     14  N   UNL     1      34.808 -16.613 -22.735  0.00  0.00    -0.319 NA
ATOM     15  N   UNL     1      35.001 -16.114 -20.386  0.00  0.00    -0.151 NA
ATOM     16  C   UNL     1      34.212 -15.411 -22.910  0.00  0.00    +0.166 C 
ATOM     17  C   UNL     1      33.983 -14.522 -21.875  0.00  0.00    +0.056 C 
ATOM     18  C   UNL     1      35.171 -16.895 -21.471  0.00  0.00    +0.257 C 
ATOM     19  C   UNL     1      34.402 -14.930 -20.625  0.00  0.00    +0.116 C 
BRANCH  18  20
ATOM     20  O   UNL     1      35.779 -18.112 -21.262  0.00  0.00    -0.380 OA
BRANCH  20  21
ATOM     21  C   UNL     1      34.983 -19.143 -20.810  0.00  0.00    +0.194 C 
ATOM     22  C   UNL     1      35.561 -20.255 -20.217  0.00  0.00    +0.169 C 
ATOM     23  C   UNL     1      33.608 -19.044 -20.963  0.00  0.00    +0.042 C 
ATOM     24  C   UNL     1      34.745 -21.292 -19.764  0.00  0.00    +0.040 C 
ATOM     25  C   UNL     1      32.792 -20.081 -20.510  0.00  0.00    +0.003 C 
ATOM     26  C   UNL     1      33.361 -21.205 -19.911  0.00  0.00    +0.003 C 
BRANCH  22  27
ATOM     27  O   UNL     1      36.912 -20.352 -20.069  0.00  0.00    -0.503 OA
ATOM     28  H   UNL     1      37.309 -21.190 -19.929  0.00  0.00    +0.292 HD
ENDBRANCH  22  27
ENDBRANCH  20  21
ENDBRANCH  18  20
ENDBRANCH   4  16
BRANCH   3  29
ATOM     29  C   UNL     1      34.596 -17.226 -25.411  0.00  0.00    +0.289 C 
BRANCH  29  30
ATOM     30  O   UNL     1      33.697 -18.291 -25.705  0.00  0.00    -0.330 OA
BRANCH  30  31
ATOM     31  C   UNL     1      33.836 -19.364 -24.783  0.00  0.00    +0.145 C 
ATOM     32  C   UNL     1      35.298 -19.522 -24.425  0.00  0.00    +0.035 C 
ENDBRANCH  30  31
ENDBRANCH  29  30
ENDBRANCH   3  29
TORSDOF 8
ENDMDL
MODEL 2
REMARK VINA RESULT:     -10.6      6.331     11.704
REMARK  Name = 4369443
REMARK  8 active torsions:
REMARK  status: ('A' for Active; 'I' for Inactive)
REMARK    1  A    between atoms: N_3  and  C_29
REMARK    2  A    between atoms: C_4  and  C_16
REMARK    3  A    between atoms: C_5  and  C_8
REMARK    4  A    between atoms: C_18  and  O_20
REMARK    5  A    between atoms: O_20  and  C_21
REMARK    6  A    between atoms: C_22  and  O_27
REMARK    7  A    between atoms: C_29  and  O_30
REMARK    8  A    between atoms: O_30  and  C_31
REMARK                            x       y       z     vdW  Elec       q    Type
REMARK                         _______ _______ _______ _____ _____    ______ ____
ROOT
ATOM      1  O   UNL     1      36.200 -23.705 -13.346  0.00  0.00    -0.331 OA
ATOM      2  O   UNL     1      34.408 -24.165 -11.972  0.00  0.00    -0.243 OA
ATOM      3  N   UNL     1      36.267 -23.359 -14.687  0.00  0.00    -0.158 N 
ATOM      4  C   UNL     1      35.016 -23.391 -15.246  0.00  0.00    +0.133 A 
ATOM      5  C   UNL     1      34.086 -23.677 -14.320  0.00  0.00    +0.099 A 
ATOM      6  C   UNL     1      34.867 -23.885 -13.066  0.00  0.00    +0.367 A 
ENDROOT
BRANCH   5   8
ATOM      7  F   UNL     1      28.542 -24.218 -14.794  0.00  0.00    -0.204 F 
ATOM      8  C   UNL     1      32.637 -23.819 -14.445  0.00  0.00    +0.008 C 
ATOM      9  C   UNL     1      32.044 -25.074 -14.306  0.00  0.00    +0.003 C 
ATOM     10  C   UNL     1      31.847 -22.699 -14.701  0.00  0.00    +0.003 C 
ATOM     11  C   UNL     1      30.661 -25.208 -14.424  0.00  0.00    +0.030 C 
ATOM     12  C   UNL     1      30.463 -22.833 -14.819  0.00  0.00    +0.030 C 
ATOM     13  C   UNL     1      29.870 -24.088 -14.681  0.00  0.00    +0.140 C 
ENDBRANCH   5   8
BRANCH   4  16
ATOM     14  N   UNL     1      35.600 -22.251 -17.269  0.00  0.00    -0.319 NA
ATOM     15  N   UNL     1      34.453 -22.673 -19.345  0.00  0.00    -0.151 NA
ATOM     16  C   UNL     1      34.797 -23.162 -16.675  0.00  0.00    +0.166 C 
ATOM     17  C   UNL     1      33.811 -23.858 -17.352  0.00  0.00    +0.056 C 
ATOM     18  C   UNL     1      35.378 -22.059 -18.582  0.00  0.00    +0.257 C 
ATOM     19  C   UNL     1      33.684 -23.569 -18.695  0.00  0.00    +0.116 C 
BRANCH  18  20
ATOM     20  O   UNL     1      36.181 -21.136 -19.214  0.00  0.00    -0.380 OA
BRANCH  20  21
ATOM     21  C   UNL     1      35.577 -20.300 -20.128  0.00  0.00    +0.194 C 
ATOM     22  C   UNL     1      36.346 -19.425 -20.880  0.00  0.00    +0.169 C 
ATOM     23  C   UNL     1      34.199 -20.351 -20.274  0.00  0.00    +0.042 C 
ATOM     24  C   UNL     1      35.724 -18.583 -21.801  0.00  0.00    +0.040 C 
ATOM     25  C   UNL     1      33.576 -19.509 -21.196  0.00  0.00    +0.003 C 
ATOM     26  C   UNL     1      34.338 -18.625 -21.959  0.00  0.00    +0.003 C 
BRANCH  22  27
ATOM     27  O   UNL     1      37.700 -19.374 -20.735  0.00  0.00    -0.503 OA
ATOM     28  H   UNL     1      38.120 -19.890 -20.074  0.00  0.00    +0.292 HD
ENDBRANCH  22  27
ENDBRANCH  20  21
ENDBRANCH  18  20
ENDBRANCH   4  16
BRANCH   3  29
ATOM     29  C   UNL     1      37.571 -23.443 -15.288  0.00  0.00    +0.289 C 
BRANCH  29  30
ATOM     30  O   UNL     1      38.505 -23.989 -14.362  0.00  0.00    -0.330 OA
BRANCH  30  31
ATOM     31  C   UNL     1      38.822 -25.340 -14.671  0.00  0.00    +0.145 C 
ATOM     32  C   UNL     1      40.298 -25.440 -14.992  0.00  0.00    +0.035 C 
ENDBRANCH  30  31
ENDBRANCH  29  30
ENDBRANCH   3  29
TORSDOF 8
ENDMDL
MODEL 3
REMARK VINA RESULT:     -10.5      4.815      7.837
REMARK  Name = 4369443
REMARK  8 active torsions:
REMARK  status: ('A' for Active; 'I' for Inactive)
REMARK    1  A    between atoms: N_3  and  C_29
REMARK    2  A    between atoms: C_4  and  C_16
REMARK    3  A    between atoms: C_5  and  C_8
REMARK    4  A    between atoms: C_18  and  O_20
REMARK    5  A    between atoms: O_20  and  C_21
REMARK    6  A    between atoms: C_22  and  O_27
REMARK    7  A    between atoms: C_29  and  O_30
REMARK    8  A    between atoms: O_30  and  C_31
REMARK                            x       y       z     vdW  Elec       q    Type
REMARK                         _______ _______ _______ _____ _____    ______ ____
ROOT
ATOM      1  O   UNL     1      31.983  -7.124 -21.149  0.00  0.00    -0.331 OA
ATOM      2  O   UNL     1      31.698  -5.039 -22.088  0.00  0.00    -0.243 OA
ATOM      3  N   UNL     1      32.620  -8.264 -21.615  0.00  0.00    -0.158 N 
ATOM      4  C   UNL     1      33.068  -8.065 -22.894  0.00  0.00    +0.133 A 
ATOM      5  C   UNL     1      32.823  -6.807 -23.296  0.00  0.00    +0.099 A 
ATOM      6  C   UNL     1      32.106  -6.186 -22.145  0.00  0.00    +0.367 A 
ENDROOT
BRANCH   5   8
ATOM      7  F   UNL     1      33.936  -4.270 -28.152  0.00  0.00    -0.204 F 
ATOM      8  C   UNL     1      33.115  -6.144 -24.565  0.00  0.00    +0.008 C 
ATOM      9  C   UNL     1      34.386  -6.245 -25.131  0.00  0.00    +0.003 C 
ATOM     10  C   UNL     1      32.121  -5.410 -25.212  0.00  0.00    +0.003 C 
ATOM     11  C   UNL     1      34.664  -5.612 -26.342  0.00  0.00    +0.030 C 
ATOM     12  C   UNL     1      32.398  -4.776 -26.424  0.00  0.00    +0.030 C 
ATOM     13  C   UNL     1      33.670  -4.878 -26.988  0.00  0.00    +0.140 C 
ENDBRANCH   5   8
BRANCH   4  16
ATOM     14  N   UNL     1      33.028 -10.308 -23.733  0.00  0.00    -0.319 NA
ATOM     15  N   UNL     1      34.801 -11.184 -25.110  0.00  0.00    -0.151 NA
ATOM     16  C   UNL     1      33.696  -9.133 -23.674  0.00  0.00    +0.166 C 
ATOM     17  C   UNL     1      34.909  -8.919 -24.303  0.00  0.00    +0.056 C 
ATOM     18  C   UNL     1      33.627 -11.273 -24.455  0.00  0.00    +0.257 C 
ATOM     19  C   UNL     1      35.417  -9.988 -25.012  0.00  0.00    +0.116 C 
BRANCH  18  20
ATOM     20  O   UNL     1      32.971 -12.480 -24.534  0.00  0.00    -0.380 OA
BRANCH  20  21
ATOM     21  C   UNL     1      33.176 -13.374 -23.505  0.00  0.00    +0.194 C 
ATOM     22  C   UNL     1      32.320 -13.383 -22.414  0.00  0.00    +0.169 C 
ATOM     23  C   UNL     1      34.247 -14.251 -23.583  0.00  0.00    +0.042 C 
ATOM     24  C   UNL     1      32.538 -14.291 -21.379  0.00  0.00    +0.040 C 
ATOM     25  C   UNL     1      34.466 -15.160 -22.547  0.00  0.00    +0.003 C 
ATOM     26  C   UNL     1      33.611 -15.180 -21.445  0.00  0.00    +0.003 C 
BRANCH  22  27
ATOM     27  O   UNL     1      31.268 -12.519 -22.337  0.00  0.00    -0.503 OA
ATOM     28  H   UNL     1      31.146 -11.997 -21.568  0.00  0.00    +0.292 HD
ENDBRANCH  22  27
ENDBRANCH  20  21
ENDBRANCH  18  20
ENDBRANCH   4  16
BRANCH   3  29
ATOM     29  C   UNL     1      32.338  -9.475 -20.892  0.00  0.00    +0.289 C 
BRANCH  29  30
ATOM     30  O   UNL     1      32.317  -9.218 -19.491  0.00  0.00    -0.330 OA
BRANCH  30  31
ATOM     31  C   UNL     1      31.368 -10.037 -18.821  0.00  0.00    +0.145 C 
ATOM     32  C   UNL     1      31.534 -11.468 -19.286  0.00  0.00    +0.035 C 
ENDBRANCH  30  31
ENDBRANCH  29  30
ENDBRANCH   3  29
TORSDOF 8
ENDMDL
MODEL 4
REMARK VINA RESULT:     -10.5      1.732      2.364
REMARK  Name = 4369443
REMARK  8 active torsions:
REMARK  status: ('A' for Active; 'I' for Inactive)
REMARK    1  A    between atoms: N_3  and  C_29
REMARK    2  A    between atoms: C_4  and  C_16
REMARK    3  A    between atoms: C_5  and  C_8
REMARK    4  A    between atoms: C_18  and  O_20
REMARK    5  A    between atoms: O_20  and  C_21
REMARK    6  A    between atoms: C_22  and  O_27
REMARK    7  A    between atoms: C_29  and  O_30
REMARK    8  A    between atoms: O_30  and  C_31
REMARK                            x       y       z     vdW  Elec       q    Type
REMARK                         _______ _______ _______ _____ _____    ______ ____
ROOT
ATOM      1  O   UNL     1      33.482 -14.417 -26.894  0.00  0.00    -0.331 OA
ATOM      2  O   UNL     1      33.943 -12.325 -27.743  0.00  0.00    -0.243 OA
ATOM      3  N   UNL     1      33.243 -14.854 -25.600  0.00  0.00    -0.158 N 
ATOM      4  C   UNL     1      33.399 -13.818 -24.716  0.00  0.00    +0.133 A 
ATOM      5  C   UNL     1      33.667 -12.673 -25.364  0.00  0.00    +0.099 A 
ATOM      6  C   UNL     1      33.724 -13.068 -26.802  0.00  0.00    +0.367 A 
ENDROOT
BRANCH   5   8
ATOM      7  F   UNL     1      34.598  -7.524 -23.395  0.00  0.00    -0.204 F 
ATOM      8  C   UNL     1      33.910 -11.327 -24.849  0.00  0.00    +0.008 C 
ATOM      9  C   UNL     1      32.972 -10.719 -24.015  0.00  0.00    +0.003 C 
ATOM     10  C   UNL     1      35.081 -10.651 -25.192  0.00  0.00    +0.003 C 
ATOM     11  C   UNL     1      33.204  -9.434 -23.524  0.00  0.00    +0.030 C 
ATOM     12  C   UNL     1      35.314  -9.366 -24.701  0.00  0.00    +0.030 C 
ATOM     13  C   UNL     1      34.375  -8.758 -23.867  0.00  0.00    +0.140 C 
ENDBRANCH   5   8
BRANCH   4  16
ATOM     14  N   UNL     1      34.215 -14.833 -22.706  0.00  0.00    -0.319 NA
ATOM     15  N   UNL     1      33.188 -14.423 -20.565  0.00  0.00    -0.151 NA
ATOM     16  C   UNL     1      33.300 -14.010 -23.268  0.00  0.00    +0.166 C 
ATOM     17  C   UNL     1      32.312 -13.368 -22.543  0.00  0.00    +0.056 C 
ATOM     18  C   UNL     1      34.103 -14.991 -21.374  0.00  0.00    +0.257 C 
ATOM     19  C   UNL     1      32.305 -13.614 -21.185  0.00  0.00    +0.116 C 
BRANCH  18  20
ATOM     20  O   UNL     1      35.020 -15.824 -20.774  0.00  0.00    -0.380 OA
BRANCH  20  21
ATOM     21  C   UNL     1      34.868 -17.178 -20.981  0.00  0.00    +0.194 C 
ATOM     22  C   UNL     1      33.603 -17.744 -20.962  0.00  0.00    +0.169 C 
ATOM     23  C   UNL     1      35.997 -17.952 -21.204  0.00  0.00    +0.042 C 
ATOM     24  C   UNL     1      33.462 -19.116 -21.172  0.00  0.00    +0.040 C 
ATOM     25  C   UNL     1      35.856 -19.324 -21.414  0.00  0.00    +0.003 C 
ATOM     26  C   UNL     1      34.588 -19.906 -21.397  0.00  0.00    +0.003 C 
BRANCH  22  27
ATOM     27  O   UNL     1      32.494 -16.983 -20.741  0.00  0.00    -0.503 OA
ATOM     28  H   UNL     1      32.262 -16.734 -19.868  0.00  0.00    +0.292 HD
ENDBRANCH  22  27
ENDBRANCH  20  21
ENDBRANCH  18  20
ENDBRANCH   4  16
BRANCH   3  29
ATOM     29  C   UNL     1      33.292 -16.277 -25.403  0.00  0.00    +0.289 C 
BRANCH  29  30
ATOM     30  O   UNL     1      34.593 -16.772 -25.708  0.00  0.00    -0.330 OA
BRANCH  30  31
ATOM     31  C   UNL     1      35.056 -17.678 -24.717  0.00  0.00    +0.145 C 
ATOM     32  C   UNL     1      34.333 -18.998 -24.877  0.00  0.00    +0.035 C 
ENDBRANCH  30  31
ENDBRANCH  29  30
ENDBRANCH   3  29
TORSDOF 8
ENDMDL
MODEL 5
REMARK VINA RESULT:     -10.3      2.738      5.415
REMARK  Name = 4369443
REMARK  8 active torsions:
REMARK  status: ('A' for Active; 'I' for Inactive)
REMARK    1  A    between atoms: N_3  and  C_29
REMARK    2  A    between atoms: C_4  and  C_16
REMARK    3  A    between atoms: C_5  and  C_8
REMARK    4  A    between atoms: C_18  and  O_20
REMARK    5  A    between atoms: O_20  and  C_21
REMARK    6  A    between atoms: C_22  and  O_27
REMARK    7  A    between atoms: C_29  and  O_30
REMARK    8  A    between atoms: O_30  and  C_31
REMARK                            x       y       z     vdW  Elec       q    Type
REMARK                         _______ _______ _______ _____ _____    ______ ____
ROOT
ATOM      1  O   UNL     1      33.376 -14.783 -26.997  0.00  0.00    -0.331 OA
ATOM      2  O   UNL     1      33.850 -12.750 -27.972  0.00  0.00    -0.243 OA
ATOM      3  N   UNL     1      33.229 -15.156 -25.670  0.00  0.00    -0.158 N 
ATOM      4  C   UNL     1      33.502 -14.094 -24.849  0.00  0.00    +0.133 A 
ATOM      5  C   UNL     1      33.762 -12.989 -25.566  0.00  0.00    +0.099 A 
ATOM      6  C   UNL     1      33.681 -13.444 -26.984  0.00  0.00    +0.367 A 
ENDROOT
BRANCH   5   8
ATOM      7  F   UNL     1      35.069  -7.812 -23.909  0.00  0.00    -0.204 F 
ATOM      8  C   UNL     1      34.103 -11.635 -25.133  0.00  0.00    +0.008 C 
ATOM      9  C   UNL     1      33.398 -11.038 -24.088  0.00  0.00    +0.003 C 
ATOM     10  C   UNL     1      35.135 -10.941 -25.764  0.00  0.00    +0.003 C 
ATOM     11  C   UNL     1      33.724  -9.747 -23.675  0.00  0.00    +0.030 C 
ATOM     12  C   UNL     1      35.462  -9.649 -25.351  0.00  0.00    +0.030 C 
ATOM     13  C   UNL     1      34.756  -9.053 -24.306  0.00  0.00    +0.140 C 
ENDBRANCH   5   8
BRANCH   4  16
ATOM     14  N   UNL     1      32.481 -13.663 -22.725  0.00  0.00    -0.319 NA
ATOM     15  N   UNL     1      33.470 -14.416 -20.661  0.00  0.00    -0.151 NA
ATOM     16  C   UNL     1      33.518 -14.222 -23.390  0.00  0.00    +0.166 C 
ATOM     17  C   UNL     1      34.553 -14.886 -22.757  0.00  0.00    +0.056 C 
ATOM     18  C   UNL     1      32.520 -13.794 -21.387  0.00  0.00    +0.257 C 
ATOM     19  C   UNL     1      34.475 -14.952 -21.381  0.00  0.00    +0.116 C 
BRANCH  18  20
ATOM     20  O   UNL     1      31.477 -13.234 -20.683  0.00  0.00    -0.380 OA
BRANCH  20  21
ATOM     21  C   UNL     1      31.552 -11.883 -20.421  0.00  0.00    +0.194 C 
ATOM     22  C   UNL     1      31.122 -10.969 -21.370  0.00  0.00    +0.169 C 
ATOM     23  C   UNL     1      32.062 -11.465 -19.201  0.00  0.00    +0.042 C 
ATOM     24  C   UNL     1      31.203  -9.604 -21.094  0.00  0.00    +0.040 C 
ATOM     25  C   UNL     1      32.144 -10.100 -18.925  0.00  0.00    +0.003 C 
ATOM     26  C   UNL     1      31.714  -9.170 -19.871  0.00  0.00    +0.003 C 
BRANCH  22  27
ATOM     27  O   UNL     1      30.622 -11.381 -22.569  0.00  0.00    -0.503 OA
ATOM     28  H   UNL     1      31.167 -11.855 -23.167  0.00  0.00    +0.292 HD
ENDBRANCH  22  27
ENDBRANCH  20  21
ENDBRANCH  18  20
ENDBRANCH   4  16
BRANCH   3  29
ATOM     29  C   UNL     1      33.236 -16.571 -25.415  0.00  0.00    +0.289 C 
BRANCH  29  30
ATOM     30  O   UNL     1      34.550 -17.095 -25.578  0.00  0.00    -0.330 OA
BRANCH  30  31
ATOM     31  C   UNL     1      34.658 -18.414 -25.061  0.00  0.00    +0.145 C 
ATOM     32  C   UNL     1      35.249 -18.353 -23.669  0.00  0.00    +0.035 C 
ENDBRANCH  30  31
ENDBRANCH  29  30
ENDBRANCH   3  29
TORSDOF 8
ENDMDL
MODEL 6
REMARK VINA RESULT:      -9.9      4.738      7.648
REMARK  Name = 4369443
REMARK  8 active torsions:
REMARK  status: ('A' for Active; 'I' for Inactive)
REMARK    1  A    between atoms: N_3  and  C_29
REMARK    2  A    between atoms: C_4  and  C_16
REMARK    3  A    between atoms: C_5  and  C_8
REMARK    4  A    between atoms: C_18  and  O_20
REMARK    5  A    between atoms: O_20  and  C_21
REMARK    6  A    between atoms: C_22  and  O_27
REMARK    7  A    between atoms: C_29  and  O_30
REMARK    8  A    between atoms: O_30  and  C_31
REMARK                            x       y       z     vdW  Elec       q    Type
REMARK                         _______ _______ _______ _____ _____    ______ ____
ROOT
ATOM      1  O   UNL     1      31.677  -6.924 -21.093  0.00  0.00    -0.331 OA
ATOM      2  O   UNL     1      31.763  -4.877 -22.148  0.00  0.00    -0.243 OA
ATOM      3  N   UNL     1      32.195  -8.163 -21.441  0.00  0.00    -0.158 N 
ATOM      4  C   UNL     1      32.781  -8.097 -22.678  0.00  0.00    +0.133 A 
ATOM      5  C   UNL     1      32.747  -6.844 -23.158  0.00  0.00    +0.099 A 
ATOM      6  C   UNL     1      32.017  -6.069 -22.113  0.00  0.00    +0.367 A 
ENDROOT
BRANCH   5   8
ATOM      7  F   UNL     1      34.639  -4.755 -27.986  0.00  0.00    -0.204 F 
ATOM      8  C   UNL     1      33.241  -6.298 -24.421  0.00  0.00    +0.008 C 
ATOM      9  C   UNL     1      32.392  -5.553 -25.239  0.00  0.00    +0.003 C 
ATOM     10  C   UNL     1      34.563  -6.521 -24.806  0.00  0.00    +0.003 C 
ATOM     11  C   UNL     1      32.864  -5.033 -26.444  0.00  0.00    +0.030 C 
ATOM     12  C   UNL     1      35.035  -6.000 -26.011  0.00  0.00    +0.030 C 
ATOM     13  C   UNL     1      34.185  -5.255 -26.829  0.00  0.00    +0.140 C 
ENDBRANCH   5   8
BRANCH   4  16
ATOM     14  N   UNL     1      32.676 -10.447 -23.130  0.00  0.00    -0.319 NA
ATOM     15  N   UNL     1      34.288 -11.543 -24.547  0.00  0.00    -0.151 NA
ATOM     16  C   UNL     1      33.329  -9.281 -23.342  0.00  0.00    +0.166 C 
ATOM     17  C   UNL     1      34.457  -9.178 -24.137  0.00  0.00    +0.056 C 
ATOM     18  C   UNL     1      33.200 -11.519 -23.752  0.00  0.00    +0.257 C 
ATOM     19  C   UNL     1      34.893 -10.351 -24.719  0.00  0.00    +0.116 C 
BRANCH  18  20
ATOM     20  O   UNL     1      32.557 -12.720 -23.555  0.00  0.00    -0.380 OA
BRANCH  20  21
ATOM     21  C   UNL     1      33.139 -13.842 -24.104  0.00  0.00    +0.194 C 
ATOM     22  C   UNL     1      34.054 -14.578 -23.367  0.00  0.00    +0.169 C 
ATOM     23  C   UNL     1      32.796 -14.210 -25.397  0.00  0.00    +0.042 C 
ATOM     24  C   UNL     1      34.638 -15.711 -23.934  0.00  0.00    +0.040 C 
ATOM     25  C   UNL     1      33.380 -15.343 -25.964  0.00  0.00    +0.003 C 
ATOM     26  C   UNL     1      34.301 -16.094 -25.232  0.00  0.00    +0.003 C 
BRANCH  22  27
ATOM     27  O   UNL     1      34.392 -14.215 -22.098  0.00  0.00    -0.503 OA
ATOM     28  H   UNL     1      35.080 -13.593 -21.956  0.00  0.00    +0.292 HD
ENDBRANCH  22  27
ENDBRANCH  20  21
ENDBRANCH  18  20
ENDBRANCH   4  16
BRANCH   3  29
ATOM     29  C   UNL     1      31.687  -9.282 -20.696  0.00  0.00    +0.289 C 
BRANCH  29  30
ATOM     30  O   UNL     1      32.326  -9.358 -19.425  0.00  0.00    -0.330 OA
BRANCH  30  31
ATOM     31  C   UNL     1      32.011 -10.569 -18.751  0.00  0.00    +0.145 C 
ATOM     32  C   UNL     1      31.584 -11.605 -19.768  0.00  0.00    +0.035 C 
ENDBRANCH  30  31
ENDBRANCH  29  30
ENDBRANCH   3  29
TORSDOF 8
ENDMDL
MODEL 7
REMARK VINA RESULT:      -9.7      3.207      5.826
REMARK  Name = 4369443
REMARK  8 active torsions:
REMARK  status: ('A' for Active; 'I' for Inactive)
REMARK    1  A    between atoms: N_3  and  C_29
REMARK    2  A    between atoms: C_4  and  C_16
REMARK    3  A    between atoms: C_5  and  C_8
REMARK    4  A    between atoms: C_18  and  O_20
REMARK    5  A    between atoms: O_20  and  C_21
REMARK    6  A    between atoms: C_22  and  O_27
REMARK    7  A    between atoms: C_29  and  O_30
REMARK    8  A    between atoms: O_30  and  C_31
REMARK                            x       y       z     vdW  Elec       q    Type
REMARK                         _______ _______ _______ _____ _____    ______ ____
ROOT
ATOM      1  O   UNL     1      31.612 -11.784 -19.800  0.00  0.00    -0.331 OA
ATOM      2  O   UNL     1      30.859  -9.666 -19.293  0.00  0.00    -0.243 OA
ATOM      3  N   UNL     1      32.279 -12.283 -20.908  0.00  0.00    -0.158 N 
ATOM      4  C   UNL     1      32.412 -11.306 -21.858  0.00  0.00    +0.133 A 
ATOM      5  C   UNL     1      31.923 -10.137 -21.414  0.00  0.00    +0.099 A 
ATOM      6  C   UNL     1      31.394 -10.452 -20.056  0.00  0.00    +0.367 A 
ENDROOT
BRANCH   5   8
ATOM      7  F   UNL     1      31.626  -5.143 -23.910  0.00  0.00    -0.204 F 
ATOM      8  C   UNL     1      31.846  -8.831 -22.067  0.00  0.00    +0.008 C 
ATOM      9  C   UNL     1      30.973  -8.637 -23.138  0.00  0.00    +0.003 C 
ATOM     10  C   UNL     1      32.644  -7.779 -21.619  0.00  0.00    +0.003 C 
ATOM     11  C   UNL     1      30.899  -7.391 -23.761  0.00  0.00    +0.030 C 
ATOM     12  C   UNL     1      32.570  -6.533 -22.241  0.00  0.00    +0.030 C 
ATOM     13  C   UNL     1      31.697  -6.339 -23.312  0.00  0.00    +0.140 C 
ENDBRANCH   5   8
BRANCH   4  16
ATOM     14  N   UNL     1      32.693 -12.768 -23.734  0.00  0.00    -0.319 NA
ATOM     15  N   UNL     1      34.042 -12.157 -25.635  0.00  0.00    -0.151 NA
ATOM     16  C   UNL     1      32.995 -11.574 -23.175  0.00  0.00    +0.166 C 
ATOM     17  C   UNL     1      33.806 -10.635 -23.786  0.00  0.00    +0.056 C 
ATOM     18  C   UNL     1      33.241 -12.990 -24.943  0.00  0.00    +0.257 C 
ATOM     19  C   UNL     1      34.305 -10.984 -25.024  0.00  0.00    +0.116 C 
BRANCH  18  20
ATOM     20  O   UNL     1      32.952 -14.198 -25.537  0.00  0.00    -0.380 OA
BRANCH  20  21
ATOM     21  C   UNL     1      33.631 -15.304 -25.073  0.00  0.00    +0.194 C 
ATOM     22  C   UNL     1      33.423 -16.541 -25.663  0.00  0.00    +0.169 C 
ATOM     23  C   UNL     1      34.512 -15.153 -24.013  0.00  0.00    +0.042 C 
ATOM     24  C   UNL     1      34.115 -17.654 -25.184  0.00  0.00    +0.040 C 
ATOM     25  C   UNL     1      35.204 -16.265 -23.534  0.00  0.00    +0.003 C 
ATOM     26  C   UNL     1      35.006 -17.516 -24.119  0.00  0.00    +0.003 C 
BRANCH  22  27
ATOM     27  O   UNL     1      32.556 -16.690 -26.703  0.00  0.00    -0.503 OA
ATOM     28  H   UNL     1      32.421 -15.984 -27.306  0.00  0.00    +0.292 HD
ENDBRANCH  22  27
ENDBRANCH  20  21
ENDBRANCH  18  20
ENDBRANCH   4  16
BRANCH   3  29
ATOM     29  C   UNL     1      32.322 -13.716 -21.016  0.00  0.00    +0.289 C 
BRANCH  29  30
ATOM     30  O   UNL     1      33.623 -14.196 -20.690  0.00  0.00    -0.330 OA
BRANCH  30  31
ATOM     31  C   UNL     1      33.623 -15.599 -20.462  0.00  0.00    +0.145 C 
ATOM     32  C   UNL     1      32.233 -16.141 -20.717  0.00  0.00    +0.035 C 
ENDBRANCH  30  31
ENDBRANCH  29  30
ENDBRANCH   3  29
TORSDOF 8
ENDMDL
MODEL 8
REMARK VINA RESULT:      -9.5      3.333      5.882
REMARK  Name = 4369443
REMARK  8 active torsions:
REMARK  status: ('A' for Active; 'I' for Inactive)
REMARK    1  A    between atoms: N_3  and  C_29
REMARK    2  A    between atoms: C_4  and  C_16
REMARK    3  A    between atoms: C_5  and  C_8
REMARK    4  A    between atoms: C_18  and  O_20
REMARK    5  A    between atoms: O_20  and  C_21
REMARK    6  A    between atoms: C_22  and  O_27
REMARK    7  A    between atoms: C_29  and  O_30
REMARK    8  A    between atoms: O_30  and  C_31
REMARK                            x       y       z     vdW  Elec       q    Type
REMARK                         _______ _______ _______ _____ _____    ______ ____
ROOT
ATOM      1  O   UNL     1      31.171  -9.438 -22.170  0.00  0.00    -0.331 OA
ATOM      2  O   UNL     1      31.952  -8.311 -24.022  0.00  0.00    -0.243 OA
ATOM      3  N   UNL     1      31.471 -10.693 -21.661  0.00  0.00    -0.158 N 
ATOM      4  C   UNL     1      32.334 -11.348 -22.500  0.00  0.00    +0.133 A 
ATOM      5  C   UNL     1      32.690 -10.562 -23.529  0.00  0.00    +0.099 A 
ATOM      6  C   UNL     1      31.922  -9.301 -23.312  0.00  0.00    +0.367 A 
ENDROOT
BRANCH   5   8
ATOM      7  F   UNL     1      36.082 -11.570 -27.857  0.00  0.00    -0.204 F 
ATOM      8  C   UNL     1      33.577 -10.824 -24.660  0.00  0.00    +0.008 C 
ATOM      9  C   UNL     1      34.779 -10.127 -24.783  0.00  0.00    +0.003 C 
ATOM     10  C   UNL     1      33.222 -11.775 -25.617  0.00  0.00    +0.003 C 
ATOM     11  C   UNL     1      35.624 -10.378 -25.863  0.00  0.00    +0.030 C 
ATOM     12  C   UNL     1      34.068 -12.027 -26.698  0.00  0.00    +0.030 C 
ATOM     13  C   UNL     1      35.269 -11.328 -26.820  0.00  0.00    +0.140 C 
ENDBRANCH   5   8
BRANCH   4  16
ATOM     14  N   UNL     1      33.681 -13.233 -23.106  0.00  0.00    -0.319 NA
ATOM     15  N   UNL     1      33.584 -15.310 -21.889  0.00  0.00    -0.151 NA
ATOM     16  C   UNL     1      32.750 -12.731 -22.262  0.00  0.00    +0.166 C 
ATOM     17  C   UNL     1      32.200 -13.458 -21.222  0.00  0.00    +0.056 C 
ATOM     18  C   UNL     1      34.046 -14.506 -22.866  0.00  0.00    +0.257 C 
ATOM     19  C   UNL     1      32.659 -14.752 -21.082  0.00  0.00    +0.116 C 
BRANCH  18  20
ATOM     20  O   UNL     1      34.992 -15.044 -23.709  0.00  0.00    -0.380 OA
BRANCH  20  21
ATOM     21  C   UNL     1      34.966 -16.410 -23.891  0.00  0.00    +0.194 C 
ATOM     22  C   UNL     1      34.445 -16.943 -25.060  0.00  0.00    +0.169 C 
ATOM     23  C   UNL     1      35.465 -17.229 -22.888  0.00  0.00    +0.042 C 
ATOM     24  C   UNL     1      34.423 -18.327 -25.232  0.00  0.00    +0.040 C 
ATOM     25  C   UNL     1      35.443 -18.613 -23.060  0.00  0.00    +0.003 C 
ATOM     26  C   UNL     1      34.922 -19.162 -24.232  0.00  0.00    +0.003 C 
BRANCH  22  27
ATOM     27  O   UNL     1      33.953 -16.138 -26.043  0.00  0.00    -0.503 OA
ATOM     28  H   UNL     1      33.147 -15.677 -25.913  0.00  0.00    +0.292 HD
ENDBRANCH  22  27
ENDBRANCH  20  21
ENDBRANCH  18  20
ENDBRANCH   4  16
BRANCH   3  29
ATOM     29  C   UNL     1      30.568 -11.191 -20.660  0.00  0.00    +0.289 C 
BRANCH  29  30
ATOM     30  O   UNL     1      30.645 -10.391 -19.485  0.00  0.00    -0.330 OA
BRANCH  30  31
ATOM     31  C   UNL     1      31.992 -10.101 -19.134  0.00  0.00    +0.145 C 
ATOM     32  C   UNL     1      32.258  -8.629 -19.370  0.00  0.00    +0.035 C 
ENDBRANCH  30  31
ENDBRANCH  29  30
ENDBRANCH   3  29
TORSDOF 8
ENDMDL
MODEL 9
REMARK VINA RESULT:      -9.3      3.438      6.741
REMARK  Name = 4369443
REMARK  8 active torsions:
REMARK  status: ('A' for Active; 'I' for Inactive)
REMARK    1  A    between atoms: N_3  and  C_29
REMARK    2  A    between atoms: C_4  and  C_16
REMARK    3  A    between atoms: C_5  and  C_8
REMARK    4  A    between atoms: C_18  and  O_20
REMARK    5  A    between atoms: O_20  and  C_21
REMARK    6  A    between atoms: C_22  and  O_27
REMARK    7  A    between atoms: C_29  and  O_30
REMARK    8  A    between atoms: O_30  and  C_31
REMARK                            x       y       z     vdW  Elec       q    Type
REMARK                         _______ _______ _______ _____ _____    ______ ____
ROOT
ATOM      1  O   UNL     1      31.374 -10.540 -20.838  0.00  0.00    -0.331 OA
ATOM      2  O   UNL     1      31.561 -12.073 -19.127  0.00  0.00    -0.243 OA
ATOM      3  N   UNL     1      31.716 -10.612 -22.180  0.00  0.00    -0.158 N 
ATOM      4  C   UNL     1      32.336 -11.805 -22.445  0.00  0.00    +0.133 A 
ATOM      5  C   UNL     1      32.369 -12.581 -21.350  0.00  0.00    +0.099 A 
ATOM      6  C   UNL     1      31.736 -11.746 -20.288  0.00  0.00    +0.367 A 
ENDROOT
BRANCH   5   8
ATOM      7  F   UNL     1      34.490 -17.698 -20.596  0.00  0.00    -0.204 F 
ATOM      8  C   UNL     1      32.923 -13.919 -21.153  0.00  0.00    +0.008 C 
ATOM      9  C   UNL     1      32.084 -15.033 -21.175  0.00  0.00    +0.003 C 
ATOM     10  C   UNL     1      34.293 -14.082 -20.943  0.00  0.00    +0.003 C 
ATOM     11  C   UNL     1      32.613 -16.309 -20.986  0.00  0.00    +0.030 C 
ATOM     12  C   UNL     1      34.823 -15.359 -20.754  0.00  0.00    +0.030 C 
ATOM     13  C   UNL     1      33.982 -16.472 -20.776  0.00  0.00    +0.140 C 
ENDBRANCH   5   8
BRANCH   4  16
ATOM     14  N   UNL     1      32.670 -13.367 -24.230  0.00  0.00    -0.319 NA
ATOM     15  N   UNL     1      33.895 -12.782 -26.221  0.00  0.00    -0.151 NA
ATOM     16  C   UNL     1      32.891 -12.116 -23.764  0.00  0.00    +0.166 C 
ATOM     17  C   UNL     1      33.599 -11.159 -24.469  0.00  0.00    +0.056 C 
ATOM     18  C   UNL     1      33.191 -13.628 -25.443  0.00  0.00    +0.257 C 
ATOM     19  C   UNL     1      34.081 -11.552 -25.701  0.00  0.00    +0.116 C 
BRANCH  18  20
ATOM     20  O   UNL     1      32.982 -14.893 -25.943  0.00  0.00    -0.380 OA
BRANCH  20  21
ATOM     21  C   UNL     1      33.687 -15.923 -25.357  0.00  0.00    +0.194 C 
ATOM     22  C   UNL     1      33.365 -17.238 -25.656  0.00  0.00    +0.169 C 
ATOM     23  C   UNL     1      34.709 -15.617 -24.472  0.00  0.00    +0.042 C 
ATOM     24  C   UNL     1      34.084 -18.272 -25.056  0.00  0.00    +0.040 C 
ATOM     25  C   UNL     1      35.428 -16.651 -23.872  0.00  0.00    +0.003 C 
ATOM     26  C   UNL     1      35.116 -17.979 -24.164  0.00  0.00    +0.003 C 
BRANCH  22  27
ATOM     27  O   UNL     1      32.359 -17.539 -26.525  0.00  0.00    -0.503 OA
ATOM     28  H   UNL     1      31.528 -17.823 -26.198  0.00  0.00    +0.292 HD
ENDBRANCH  22  27
ENDBRANCH  20  21
ENDBRANCH  18  20
ENDBRANCH   4  16
BRANCH   3  29
ATOM     29  C   UNL     1      31.738  -9.360 -22.885  0.00  0.00    +0.289 C 
BRANCH  29  30
ATOM     30  O   UNL     1      32.657  -8.464 -22.269  0.00  0.00    -0.330 OA
BRANCH  30  31
ATOM     31  C   UNL     1      33.135  -7.488 -23.186  0.00  0.00    +0.145 C 
ATOM     32  C   UNL     1      34.621  -7.692 -23.394  0.00  0.00    +0.035 C 
ENDBRANCH  30  31
ENDBRANCH  29  30
ENDBRANCH   3  29
TORSDOF 8
ENDMDL
