MODEL 1
REMARK VINA RESULT:      -8.3      0.000      0.000
REMARK  Name = 1759
REMARK  10 active torsions:
REMARK  status: ('A' for Active; 'I' for Inactive)
REMARK    1  A    between atoms: N_2  and  C_17
REMARK    2  A    between atoms: C_3  and  C_5
REMARK    3  A    between atoms: C_6  and  S_11
REMARK    4  A    between atoms: S_11  and  N_14
REMARK    5  A    between atoms: C_17  and  C_18
REMARK    6  A    between atoms: C_18  and  C_19
REMARK    7  A    between atoms: C_19  and  C_20
REMARK    8  A    between atoms: C_20  and  N_21
REMARK    9  A    between atoms: N_21  and  C_24
REMARK   10  A    between atoms: C_24  and  S_25
REMARK                            x       y       z     vdW  Elec       q    Type
REMARK                         _______ _______ _______ _____ _____    ______ ____
ROOT
ATOM      1  O   UNL     1      35.198 -16.827 -21.508  0.00  0.00    -0.270 OA
ATOM      2  N   UNL     1      34.948 -18.099 -23.431  0.00  0.00    -0.301 N 
ATOM      3  C   UNL     1      34.969 -17.903 -22.056  0.00  0.00    +0.246 C 
ATOM      4  H   UNL     1      34.754 -19.000 -23.777  0.00  0.00    +0.150 HD
ENDROOT
BRANCH   3   5
ATOM      5  C   UNL     1      34.714 -19.103 -21.219  0.00  0.00    +0.053 C 
ATOM      6  C   UNL     1      34.241 -21.334 -19.666  0.00  0.00    +0.122 C 
ATOM      7  C   UNL     1      33.412 -19.436 -20.909  0.00  0.00    +0.006 C 
ATOM      8  C   UNL     1      35.788 -19.849 -20.779  0.00  0.00    +0.006 C 
ATOM      9  C   UNL     1      33.171 -20.563 -20.123  0.00  0.00    +0.020 C 
ATOM     10  C   UNL     1      35.548 -20.977 -19.993  0.00  0.00    +0.020 C 
BRANCH   6  11
ATOM     11  S   UNL     1      33.941 -22.745 -18.683  0.00  0.00    +0.057 S 
ATOM     12  O   UNL     1      33.913 -23.913 -19.552  0.00  0.00    -0.153 OA
ATOM     13  O   UNL     1      34.845 -22.714 -17.541  0.00  0.00    -0.153 OA
BRANCH  11  14
ATOM     14  N   UNL     1      32.355 -22.428 -18.134  0.00  0.00    -0.203 NA
ATOM     15  H   UNL     1      32.386 -21.733 -17.387  0.00  0.00    +0.144 HD
ATOM     16  H   UNL     1      31.940 -23.289 -17.778  0.00  0.00    +0.144 HD
ENDBRANCH  11  14
ENDBRANCH   6  11
ENDBRANCH   3   5
BRANCH   2  17
ATOM     17  C   UNL     1      35.200 -17.041 -24.371  0.00  0.00    +0.090 C 
BRANCH  17  18
ATOM     18  C   UNL     1      33.972 -16.706 -25.213  0.00  0.00    +0.019 C 
BRANCH  18  19
ATOM     19  C   UNL     1      33.588 -15.226 -25.130  0.00  0.00    -0.022 C 
BRANCH  19  20
ATOM     20  C   UNL     1      33.448 -14.774 -23.677  0.00  0.00    -0.080 C 
BRANCH  20  21
ATOM     21  N   UNL     1      34.189 -13.537 -23.458  0.00  0.00    +0.390 N 
ATOM     22  H   UNL     1      34.994 -13.514 -24.084  0.00  0.00    -0.083 HD
ATOM     23  H   UNL     1      34.494 -13.509 -22.485  0.00  0.00    -0.083 HD
BRANCH  21  24
ATOM     24  C   UNL     1      33.351 -12.373 -23.716  0.00  0.00    -0.026 C 
BRANCH  24  25
ATOM     25  S   UNL     1      34.066 -11.330 -25.018  0.00  0.00    -0.192 S 
ATOM     26  H   UNL     1      35.415 -11.500 -25.045  0.00  0.00    +0.100 HD
ENDBRANCH  24  25
ENDBRANCH  21  24
ENDBRANCH  20  21
ENDBRANCH  19  20
ENDBRANCH  18  19
ENDBRANCH  17  18
ENDBRANCH   2  17
TORSDOF 10
ENDMDL
MODEL 2
REMARK VINA RESULT:      -8.2      1.583      1.839
REMARK  Name = 1759
REMARK  10 active torsions:
REMARK  status: ('A' for Active; 'I' for Inactive)
REMARK    1  A    between atoms: N_2  and  C_17
REMARK    2  A    between atoms: C_3  and  C_5
REMARK    3  A    between atoms: C_6  and  S_11
REMARK    4  A    between atoms: S_11  and  N_14
REMARK    5  A    between atoms: C_17  and  C_18
REMARK    6  A    between atoms: C_18  and  C_19
REMARK    7  A    between atoms: C_19  and  C_20
REMARK    8  A    between atoms: C_20  and  N_21
REMARK    9  A    between atoms: N_21  and  C_24
REMARK   10  A    between atoms: C_24  and  S_25
REMARK                            x       y       z     vdW  Elec       q    Type
REMARK                         _______ _______ _______ _____ _____    ______ ____
ROOT
ATOM      1  O   UNL     1      36.073 -18.380 -22.937  0.00  0.00    -0.270 OA
ATOM      2  N   UNL     1      34.575 -17.018 -21.805  0.00  0.00    -0.301 N 
ATOM      3  C   UNL     1      35.233 -18.216 -22.055  0.00  0.00    +0.246 C 
ATOM      4  H   UNL     1      33.917 -16.984 -21.073  0.00  0.00    +0.150 HD
ENDROOT
BRANCH   3   5
ATOM      5  C   UNL     1      34.854 -19.364 -21.191  0.00  0.00    +0.053 C 
ATOM      6  C   UNL     1      34.149 -21.497 -19.590  0.00  0.00    +0.122 C 
ATOM      7  C   UNL     1      33.516 -19.630 -20.986  0.00  0.00    +0.006 C 
ATOM      8  C   UNL     1      35.852 -20.129 -20.624  0.00  0.00    +0.006 C 
ATOM      9  C   UNL     1      33.159 -20.708 -20.175  0.00  0.00    +0.020 C 
ATOM     10  C   UNL     1      35.495 -21.208 -19.814  0.00  0.00    +0.020 C 
BRANCH   6  11
ATOM     11  S   UNL     1      33.703 -22.846 -18.576  0.00  0.00    +0.057 S 
ATOM     12  O   UNL     1      32.409 -22.560 -17.973  0.00  0.00    -0.153 OA
ATOM     13  O   UNL     1      33.892 -24.077 -19.333  0.00  0.00    -0.153 OA
BRANCH  11  14
ATOM     14  N   UNL     1      34.907 -22.756 -17.367  0.00  0.00    -0.203 NA
ATOM     15  H   UNL     1      34.683 -23.408 -16.614  0.00  0.00    +0.144 HD
ATOM     16  H   UNL     1      34.944 -21.807 -16.995  0.00  0.00    +0.144 HD
ENDBRANCH  11  14
ENDBRANCH   6  11
ENDBRANCH   3   5
BRANCH   2  17
ATOM     17  C   UNL     1      34.815 -15.825 -22.570  0.00  0.00    +0.090 C 
BRANCH  17  18
ATOM     18  C   UNL     1      34.214 -14.584 -21.917  0.00  0.00    +0.019 C 
BRANCH  18  19
ATOM     19  C   UNL     1      32.844 -14.220 -22.496  0.00  0.00    -0.022 C 
BRANCH  19  20
ATOM     20  C   UNL     1      32.987 -13.488 -23.831  0.00  0.00    -0.080 C 
BRANCH  20  21
ATOM     21  N   UNL     1      34.121 -12.572 -23.787  0.00  0.00    +0.390 N 
ATOM     22  H   UNL     1      34.954 -13.057 -24.120  0.00  0.00    -0.083 HD
ATOM     23  H   UNL     1      34.250 -12.261 -22.825  0.00  0.00    -0.083 HD
BRANCH  21  24
ATOM     24  C   UNL     1      33.882 -11.404 -24.625  0.00  0.00    -0.026 C 
BRANCH  24  25
ATOM     25  S   UNL     1      33.190 -10.036 -23.655  0.00  0.00    -0.192 S 
ATOM     26  H   UNL     1      31.969  -9.699 -24.151  0.00  0.00    +0.100 HD
ENDBRANCH  24  25
ENDBRANCH  21  24
ENDBRANCH  20  21
ENDBRANCH  19  20
ENDBRANCH  18  19
ENDBRANCH  17  18
ENDBRANCH   2  17
TORSDOF 10
ENDMDL
MODEL 3
REMARK VINA RESULT:      -8.2      2.025      2.543
REMARK  Name = 1759
REMARK  10 active torsions:
REMARK  status: ('A' for Active; 'I' for Inactive)
REMARK    1  A    between atoms: N_2  and  C_17
REMARK    2  A    between atoms: C_3  and  C_5
REMARK    3  A    between atoms: C_6  and  S_11
REMARK    4  A    between atoms: S_11  and  N_14
REMARK    5  A    between atoms: C_17  and  C_18
REMARK    6  A    between atoms: C_18  and  C_19
REMARK    7  A    between atoms: C_19  and  C_20
REMARK    8  A    between atoms: C_20  and  N_21
REMARK    9  A    between atoms: N_21  and  C_24
REMARK   10  A    between atoms: C_24  and  S_25
REMARK                            x       y       z     vdW  Elec       q    Type
REMARK                         _______ _______ _______ _____ _____    ______ ____
ROOT
ATOM      1  O   UNL     1      36.647 -18.272 -22.482  0.00  0.00    -0.270 OA
ATOM      2  N   UNL     1      34.625 -17.188 -22.141  0.00  0.00    -0.301 N 
ATOM      3  C   UNL     1      35.529 -18.229 -21.973  0.00  0.00    +0.246 C 
ATOM      4  H   UNL     1      33.751 -17.244 -21.691  0.00  0.00    +0.150 HD
ENDROOT
BRANCH   3   5
ATOM      5  C   UNL     1      35.072 -19.365 -21.132  0.00  0.00    +0.053 C 
ATOM      6  C   UNL     1      34.223 -21.473 -19.568  0.00  0.00    +0.122 C 
ATOM      7  C   UNL     1      36.016 -20.170 -20.529  0.00  0.00    +0.006 C 
ATOM      8  C   UNL     1      33.718 -19.578 -20.979  0.00  0.00    +0.006 C 
ATOM      9  C   UNL     1      35.587 -21.237 -19.738  0.00  0.00    +0.020 C 
ATOM     10  C   UNL     1      33.289 -20.644 -20.188  0.00  0.00    +0.020 C 
BRANCH   6  11
ATOM     11  S   UNL     1      33.686 -22.808 -18.579  0.00  0.00    +0.057 S 
ATOM     12  O   UNL     1      32.368 -22.487 -18.051  0.00  0.00    -0.153 OA
ATOM     13  O   UNL     1      33.886 -24.045 -19.322  0.00  0.00    -0.153 OA
BRANCH  11  14
ATOM     14  N   UNL     1      34.821 -22.746 -17.305  0.00  0.00    -0.203 NA
ATOM     15  H   UNL     1      35.359 -23.613 -17.285  0.00  0.00    +0.144 HD
ATOM     16  H   UNL     1      34.331 -22.631 -16.418  0.00  0.00    +0.144 HD
ENDBRANCH  11  14
ENDBRANCH   6  11
ENDBRANCH   3   5
BRANCH   2  17
ATOM     17  C   UNL     1      34.911 -16.032 -22.946  0.00  0.00    +0.090 C 
BRANCH  17  18
ATOM     18  C   UNL     1      34.304 -14.757 -22.369  0.00  0.00    +0.019 C 
BRANCH  18  19
ATOM     19  C   UNL     1      33.119 -15.038 -21.439  0.00  0.00    -0.022 C 
BRANCH  19  20
ATOM     20  C   UNL     1      32.354 -13.754 -21.120  0.00  0.00    -0.080 C 
BRANCH  20  21
ATOM     21  N   UNL     1      31.934 -13.095 -22.350  0.00  0.00    +0.390 N 
ATOM     22  H   UNL     1      31.015 -13.444 -22.620  0.00  0.00    -0.083 HD
ATOM     23  H   UNL     1      32.619 -13.298 -23.078  0.00  0.00    -0.083 HD
BRANCH  21  24
ATOM     24  C   UNL     1      31.862 -11.650 -22.171  0.00  0.00    -0.026 C 
BRANCH  24  25
ATOM     25  S   UNL     1      31.131 -11.228 -20.564  0.00  0.00    -0.192 S 
ATOM     26  H   UNL     1      30.613 -12.349 -19.993  0.00  0.00    +0.100 HD
ENDBRANCH  24  25
ENDBRANCH  21  24
ENDBRANCH  20  21
ENDBRANCH  19  20
ENDBRANCH  18  19
ENDBRANCH  17  18
ENDBRANCH   2  17
TORSDOF 10
ENDMDL
MODEL 4
REMARK VINA RESULT:      -8.0      3.712      9.333
REMARK  Name = 1759
REMARK  10 active torsions:
REMARK  status: ('A' for Active; 'I' for Inactive)
REMARK    1  A    between atoms: N_2  and  C_17
REMARK    2  A    between atoms: C_3  and  C_5
REMARK    3  A    between atoms: C_6  and  S_11
REMARK    4  A    between atoms: S_11  and  N_14
REMARK    5  A    between atoms: C_17  and  C_18
REMARK    6  A    between atoms: C_18  and  C_19
REMARK    7  A    between atoms: C_19  and  C_20
REMARK    8  A    between atoms: C_20  and  N_21
REMARK    9  A    between atoms: N_21  and  C_24
REMARK   10  A    between atoms: C_24  and  S_25
REMARK                            x       y       z     vdW  Elec       q    Type
REMARK                         _______ _______ _______ _____ _____    ______ ____
ROOT
ATOM      1  O   UNL     1      34.769 -22.985 -17.928  0.00  0.00    -0.270 OA
ATOM      2  N   UNL     1      32.495 -22.541 -18.036  0.00  0.00    -0.301 N 
ATOM      3  C   UNL     1      33.821 -22.373 -18.415  0.00  0.00    +0.246 C 
ATOM      4  H   UNL     1      31.803 -22.004 -18.486  0.00  0.00    +0.150 HD
ENDROOT
BRANCH   3   5
ATOM      5  C   UNL     1      34.078 -21.357 -19.468  0.00  0.00    +0.053 C 
ATOM      6  C   UNL     1      34.555 -19.471 -21.424  0.00  0.00    +0.122 C 
ATOM      7  C   UNL     1      35.377 -21.129 -19.872  0.00  0.00    +0.006 C 
ATOM      8  C   UNL     1      33.009 -20.673 -20.009  0.00  0.00    +0.006 C 
ATOM      9  C   UNL     1      35.619 -20.176 -20.861  0.00  0.00    +0.020 C 
ATOM     10  C   UNL     1      33.251 -19.720 -20.999  0.00  0.00    +0.020 C 
BRANCH   6  11
ATOM     11  S   UNL     1      34.857 -18.278 -22.662  0.00  0.00    +0.057 S 
ATOM     12  O   UNL     1      34.445 -18.831 -23.945  0.00  0.00    -0.153 OA
ATOM     13  O   UNL     1      34.313 -17.001 -22.217  0.00  0.00    -0.153 OA
BRANCH  11  14
ATOM     14  N   UNL     1      36.562 -18.191 -22.621  0.00  0.00    -0.203 NA
ATOM     15  H   UNL     1      36.903 -18.594 -21.747  0.00  0.00    +0.144 HD
ATOM     16  H   UNL     1      36.854 -17.215 -22.681  0.00  0.00    +0.144 HD
ENDBRANCH  11  14
ENDBRANCH   6  11
ENDBRANCH   3   5
BRANCH   2  17
ATOM     17  C   UNL     1      32.090 -23.468 -17.015  0.00  0.00    +0.090 C 
BRANCH  17  18
ATOM     18  C   UNL     1      31.077 -22.862 -16.048  0.00  0.00    +0.019 C 
BRANCH  18  19
ATOM     19  C   UNL     1      31.375 -23.213 -14.587  0.00  0.00    -0.022 C 
BRANCH  19  20
ATOM     20  C   UNL     1      31.355 -24.726 -14.370  0.00  0.00    -0.080 C 
BRANCH  20  21
ATOM     21  N   UNL     1      32.533 -25.146 -13.621  0.00  0.00    +0.390 N 
ATOM     22  H   UNL     1      32.918 -25.988 -14.049  0.00  0.00    -0.083 HD
ATOM     23  H   UNL     1      32.256 -25.332 -12.657  0.00  0.00    -0.083 HD
BRANCH  21  24
ATOM     24  C   UNL     1      33.551 -24.103 -13.618  0.00  0.00    -0.026 C 
BRANCH  24  25
ATOM     25  S   UNL     1      34.964 -24.569 -14.657  0.00  0.00    -0.192 S 
ATOM     26  H   UNL     1      34.729 -25.781 -15.226  0.00  0.00    +0.100 HD
ENDBRANCH  24  25
ENDBRANCH  21  24
ENDBRANCH  20  21
ENDBRANCH  19  20
ENDBRANCH  18  19
ENDBRANCH  17  18
ENDBRANCH   2  17
TORSDOF 10
ENDMDL
MODEL 5
REMARK VINA RESULT:      -8.0      3.906      9.444
REMARK  Name = 1759
REMARK  10 active torsions:
REMARK  status: ('A' for Active; 'I' for Inactive)
REMARK    1  A    between atoms: N_2  and  C_17
REMARK    2  A    between atoms: C_3  and  C_5
REMARK    3  A    between atoms: C_6  and  S_11
REMARK    4  A    between atoms: S_11  and  N_14
REMARK    5  A    between atoms: C_17  and  C_18
REMARK    6  A    between atoms: C_18  and  C_19
REMARK    7  A    between atoms: C_19  and  C_20
REMARK    8  A    between atoms: C_20  and  N_21
REMARK    9  A    between atoms: N_21  and  C_24
REMARK   10  A    between atoms: C_24  and  S_25
REMARK                            x       y       z     vdW  Elec       q    Type
REMARK                         _______ _______ _______ _____ _____    ______ ____
ROOT
ATOM      1  O   UNL     1      33.905 -23.774 -19.235  0.00  0.00    -0.270 OA
ATOM      2  N   UNL     1      32.885 -22.392 -17.677  0.00  0.00    -0.301 N 
ATOM      3  C   UNL     1      33.589 -22.652 -18.847  0.00  0.00    +0.246 C 
ATOM      4  H   UNL     1      32.677 -21.456 -17.448  0.00  0.00    +0.150 HD
ENDROOT
BRANCH   3   5
ATOM      5  C   UNL     1      33.991 -21.467 -19.647  0.00  0.00    +0.053 C 
ATOM      6  C   UNL     1      34.737 -19.264 -21.131  0.00  0.00    +0.122 C 
ATOM      7  C   UNL     1      33.009 -20.643 -20.158  0.00  0.00    +0.006 C 
ATOM      8  C   UNL     1      35.333 -21.226 -19.853  0.00  0.00    +0.006 C 
ATOM      9  C   UNL     1      33.385 -19.530 -20.909  0.00  0.00    +0.020 C 
ATOM     10  C   UNL     1      35.710 -20.112 -20.604  0.00  0.00    +0.020 C 
BRANCH   6  11
ATOM     11  S   UNL     1      35.209 -17.871 -22.072  0.00  0.00    +0.057 S 
ATOM     12  O   UNL     1      34.481 -17.900 -23.333  0.00  0.00    -0.153 OA
ATOM     13  O   UNL     1      35.134 -16.691 -21.221  0.00  0.00    -0.153 OA
BRANCH  11  14
ATOM     14  N   UNL     1      36.852 -18.225 -22.375  0.00  0.00    -0.203 NA
ATOM     15  H   UNL     1      37.119 -19.067 -21.863  0.00  0.00    +0.144 HD
ATOM     16  H   UNL     1      37.430 -17.443 -22.067  0.00  0.00    +0.144 HD
ENDBRANCH  11  14
ENDBRANCH   6  11
ENDBRANCH   3   5
BRANCH   2  17
ATOM     17  C   UNL     1      32.449 -23.431 -16.785  0.00  0.00    +0.090 C 
BRANCH  17  18
ATOM     18  C   UNL     1      33.213 -23.423 -15.464  0.00  0.00    +0.019 C 
BRANCH  18  19
ATOM     19  C   UNL     1      32.283 -23.420 -14.247  0.00  0.00    -0.022 C 
BRANCH  19  20
ATOM     20  C   UNL     1      31.998 -24.843 -13.769  0.00  0.00    -0.080 C 
BRANCH  20  21
ATOM     21  N   UNL     1      30.561 -25.057 -13.643  0.00  0.00    +0.390 N 
ATOM     22  H   UNL     1      30.117 -24.184 -13.358  0.00  0.00    -0.083 HD
ATOM     23  H   UNL     1      30.400 -25.783 -12.946  0.00  0.00    -0.083 HD
BRANCH  21  24
ATOM     24  C   UNL     1      29.985 -25.492 -14.909  0.00  0.00    -0.026 C 
BRANCH  24  25
ATOM     25  S   UNL     1      28.862 -24.235 -15.582  0.00  0.00    -0.192 S 
ATOM     26  H   UNL     1      29.588 -23.219 -16.119  0.00  0.00    +0.100 HD
ENDBRANCH  24  25
ENDBRANCH  21  24
ENDBRANCH  20  21
ENDBRANCH  19  20
ENDBRANCH  18  19
ENDBRANCH  17  18
ENDBRANCH   2  17
TORSDOF 10
ENDMDL
MODEL 6
REMARK VINA RESULT:      -7.9      4.015      8.861
REMARK  Name = 1759
REMARK  10 active torsions:
REMARK  status: ('A' for Active; 'I' for Inactive)
REMARK    1  A    between atoms: N_2  and  C_17
REMARK    2  A    between atoms: C_3  and  C_5
REMARK    3  A    between atoms: C_6  and  S_11
REMARK    4  A    between atoms: S_11  and  N_14
REMARK    5  A    between atoms: C_17  and  C_18
REMARK    6  A    between atoms: C_18  and  C_19
REMARK    7  A    between atoms: C_19  and  C_20
REMARK    8  A    between atoms: C_20  and  N_21
REMARK    9  A    between atoms: N_21  and  C_24
REMARK   10  A    between atoms: C_24  and  S_25
REMARK                            x       y       z     vdW  Elec       q    Type
REMARK                         _______ _______ _______ _____ _____    ______ ____
ROOT
ATOM      1  O   UNL     1      33.780 -23.964 -18.468  0.00  0.00    -0.270 OA
ATOM      2  N   UNL     1      32.281 -22.476 -17.509  0.00  0.00    -0.301 N 
ATOM      3  C   UNL     1      33.304 -22.835 -18.379  0.00  0.00    +0.246 C 
ATOM      4  H   UNL     1      31.965 -21.543 -17.511  0.00  0.00    +0.150 HD
ENDROOT
BRANCH   3   5
ATOM      5  C   UNL     1      33.852 -21.747 -19.230  0.00  0.00    +0.053 C 
ATOM      6  C   UNL     1      34.870 -19.726 -20.808  0.00  0.00    +0.122 C 
ATOM      7  C   UNL     1      32.977 -20.870 -19.836  0.00  0.00    +0.006 C 
ATOM      8  C   UNL     1      35.219 -21.648 -19.386  0.00  0.00    +0.006 C 
ATOM      9  C   UNL     1      33.491 -19.848 -20.635  0.00  0.00    +0.020 C 
ATOM     10  C   UNL     1      35.733 -20.626 -20.184  0.00  0.00    +0.020 C 
BRANCH   6  11
ATOM     11  S   UNL     1      35.513 -18.448 -21.808  0.00  0.00    +0.057 S 
ATOM     12  O   UNL     1      36.959 -18.604 -21.879  0.00  0.00    -0.153 OA
ATOM     13  O   UNL     1      34.732 -18.382 -23.035  0.00  0.00    -0.153 OA
BRANCH  11  14
ATOM     14  N   UNL     1      35.153 -17.077 -20.855  0.00  0.00    -0.203 NA
ATOM     15  H   UNL     1      34.480 -17.333 -20.131  0.00  0.00    +0.144 HD
ATOM     16  H   UNL     1      34.755 -16.348 -21.446  0.00  0.00    +0.144 HD
ENDBRANCH  11  14
ENDBRANCH   6  11
ENDBRANCH   3   5
BRANCH   2  17
ATOM     17  C   UNL     1      31.666 -23.409 -16.606  0.00  0.00    +0.090 C 
BRANCH  17  18
ATOM     18  C   UNL     1      31.906 -23.049 -15.143  0.00  0.00    +0.019 C 
BRANCH  18  19
ATOM     19  C   UNL     1      32.702 -24.122 -14.396  0.00  0.00    -0.022 C 
BRANCH  19  20
ATOM     20  C   UNL     1      34.163 -24.137 -14.846  0.00  0.00    -0.080 C 
BRANCH  20  21
ATOM     21  N   UNL     1      34.742 -22.804 -14.733  0.00  0.00    +0.390 N 
ATOM     22  H   UNL     1      35.112 -22.680 -13.790  0.00  0.00    -0.083 HD
ATOM     23  H   UNL     1      34.014 -22.116 -14.924  0.00  0.00    -0.083 HD
BRANCH  21  24
ATOM     24  C   UNL     1      35.820 -22.619 -15.696  0.00  0.00    -0.026 C 
BRANCH  24  25
ATOM     25  S   UNL     1      37.313 -23.514 -15.184  0.00  0.00    -0.192 S 
ATOM     26  H   UNL     1      37.630 -24.444 -16.125  0.00  0.00    +0.100 HD
ENDBRANCH  24  25
ENDBRANCH  21  24
ENDBRANCH  20  21
ENDBRANCH  19  20
ENDBRANCH  18  19
ENDBRANCH  17  18
ENDBRANCH   2  17
TORSDOF 10
ENDMDL
MODEL 7
REMARK VINA RESULT:      -7.8      3.923      9.396
REMARK  Name = 1759
REMARK  10 active torsions:
REMARK  status: ('A' for Active; 'I' for Inactive)
REMARK    1  A    between atoms: N_2  and  C_17
REMARK    2  A    between atoms: C_3  and  C_5
REMARK    3  A    between atoms: C_6  and  S_11
REMARK    4  A    between atoms: S_11  and  N_14
REMARK    5  A    between atoms: C_17  and  C_18
REMARK    6  A    between atoms: C_18  and  C_19
REMARK    7  A    between atoms: C_19  and  C_20
REMARK    8  A    between atoms: C_20  and  N_21
REMARK    9  A    between atoms: N_21  and  C_24
REMARK   10  A    between atoms: C_24  and  S_25
REMARK                            x       y       z     vdW  Elec       q    Type
REMARK                         _______ _______ _______ _____ _____    ______ ____
ROOT
ATOM      1  O   UNL     1      33.799 -23.921 -19.257  0.00  0.00    -0.270 OA
ATOM      2  N   UNL     1      33.978 -22.666 -17.315  0.00  0.00    -0.301 N 
ATOM      3  C   UNL     1      33.998 -22.848 -18.692  0.00  0.00    +0.246 C 
ATOM      4  H   UNL     1      34.148 -21.765 -16.955  0.00  0.00    +0.150 HD
ENDROOT
BRANCH   3   5
ATOM      5  C   UNL     1      34.306 -21.645 -19.508  0.00  0.00    +0.053 C 
ATOM      6  C   UNL     1      34.878 -19.411 -21.021  0.00  0.00    +0.122 C 
ATOM      7  C   UNL     1      33.263 -20.893 -20.008  0.00  0.00    +0.006 C 
ATOM      8  C   UNL     1      35.626 -21.317 -19.738  0.00  0.00    +0.006 C 
ATOM      9  C   UNL     1      33.552 -19.764 -20.774  0.00  0.00    +0.020 C 
ATOM     10  C   UNL     1      35.915 -20.186 -20.503  0.00  0.00    +0.020 C 
BRANCH   6  11
ATOM     11  S   UNL     1      35.241 -17.997 -21.979  0.00  0.00    +0.057 S 
ATOM     12  O   UNL     1      34.448 -18.053 -23.199  0.00  0.00    -0.153 OA
ATOM     13  O   UNL     1      35.163 -16.823 -21.120  0.00  0.00    -0.153 OA
BRANCH  11  14
ATOM     14  N   UNL     1      36.878 -18.281 -22.372  0.00  0.00    -0.203 NA
ATOM     15  H   UNL     1      36.941 -19.061 -23.027  0.00  0.00    +0.144 HD
ATOM     16  H   UNL     1      37.396 -18.509 -21.523  0.00  0.00    +0.144 HD
ENDBRANCH  11  14
ENDBRANCH   6  11
ENDBRANCH   3   5
BRANCH   2  17
ATOM     17  C   UNL     1      33.719 -23.738 -16.393  0.00  0.00    +0.090 C 
BRANCH  17  18
ATOM     18  C   UNL     1      34.884 -23.978 -15.438  0.00  0.00    +0.019 C 
BRANCH  18  19
ATOM     19  C   UNL     1      35.822 -22.770 -15.340  0.00  0.00    -0.022 C 
BRANCH  19  20
ATOM     20  C   UNL     1      37.268 -23.172 -15.633  0.00  0.00    -0.080 C 
BRANCH  20  21
ATOM     21  N   UNL     1      37.466 -24.590 -15.358  0.00  0.00    +0.390 N 
ATOM     22  H   UNL     1      37.981 -25.011 -16.131  0.00  0.00    -0.083 HD
ATOM     23  H   UNL     1      36.553 -25.032 -15.256  0.00  0.00    -0.083 HD
BRANCH  21  24
ATOM     24  C   UNL     1      38.216 -24.783 -14.123  0.00  0.00    -0.026 C 
BRANCH  24  25
ATOM     25  S   UNL     1      37.306 -25.845 -12.966  0.00  0.00    -0.192 S 
ATOM     26  H   UNL     1      36.777 -26.901 -13.640  0.00  0.00    +0.100 HD
ENDBRANCH  24  25
ENDBRANCH  21  24
ENDBRANCH  20  21
ENDBRANCH  19  20
ENDBRANCH  18  19
ENDBRANCH  17  18
ENDBRANCH   2  17
TORSDOF 10
ENDMDL
MODEL 8
REMARK VINA RESULT:      -7.8      5.182      7.477
REMARK  Name = 1759
REMARK  10 active torsions:
REMARK  status: ('A' for Active; 'I' for Inactive)
REMARK    1  A    between atoms: N_2  and  C_17
REMARK    2  A    between atoms: C_3  and  C_5
REMARK    3  A    between atoms: C_6  and  S_11
REMARK    4  A    between atoms: S_11  and  N_14
REMARK    5  A    between atoms: C_17  and  C_18
REMARK    6  A    between atoms: C_18  and  C_19
REMARK    7  A    between atoms: C_19  and  C_20
REMARK    8  A    between atoms: C_20  and  N_21
REMARK    9  A    between atoms: N_21  and  C_24
REMARK   10  A    between atoms: C_24  and  S_25
REMARK                            x       y       z     vdW  Elec       q    Type
REMARK                         _______ _______ _______ _____ _____    ______ ____
ROOT
ATOM      1  O   UNL     1      32.333 -23.270 -16.520  0.00  0.00    -0.270 OA
ATOM      2  N   UNL     1      34.304 -22.860 -17.670  0.00  0.00    -0.301 N 
ATOM      3  C   UNL     1      33.558 -23.189 -16.545  0.00  0.00    +0.246 C 
ATOM      4  H   UNL     1      35.285 -22.820 -17.592  0.00  0.00    +0.150 HD
ENDROOT
BRANCH   3   5
ATOM      5  C   UNL     1      34.327 -23.429 -15.296  0.00  0.00    +0.053 C 
ATOM      6  C   UNL     1      35.754 -23.873 -12.978  0.00  0.00    +0.122 C 
ATOM      7  C   UNL     1      35.647 -23.033 -15.240  0.00  0.00    +0.006 C 
ATOM      8  C   UNL     1      33.696 -24.040 -14.233  0.00  0.00    +0.006 C 
ATOM      9  C   UNL     1      36.370 -23.258 -14.068  0.00  0.00    +0.020 C 
ATOM     10  C   UNL     1      34.418 -24.264 -13.060  0.00  0.00    +0.020 C 
BRANCH   6  11
ATOM     11  S   UNL     1      36.658 -24.156 -11.511  0.00  0.00    +0.057 S 
ATOM     12  O   UNL     1      37.613 -25.226 -11.759  0.00  0.00    -0.153 OA
ATOM     13  O   UNL     1      37.125 -22.873 -11.001  0.00  0.00    -0.153 OA
BRANCH  11  14
ATOM     14  N   UNL     1      35.429 -24.740 -10.479  0.00  0.00    -0.203 NA
ATOM     15  H   UNL     1      35.793 -24.827  -9.530  0.00  0.00    +0.144 HD
ATOM     16  H   UNL     1      35.117 -25.655 -10.807  0.00  0.00    +0.144 HD
ENDBRANCH  11  14
ENDBRANCH   6  11
ENDBRANCH   3   5
BRANCH   2  17
ATOM     17  C   UNL     1      33.704 -22.576 -18.945  0.00  0.00    +0.090 C 
BRANCH  17  18
ATOM     18  C   UNL     1      34.273 -21.314 -19.587  0.00  0.00    +0.019 C 
BRANCH  18  19
ATOM     19  C   UNL     1      33.189 -20.441 -20.228  0.00  0.00    -0.022 C 
BRANCH  19  20
ATOM     20  C   UNL     1      33.798 -19.444 -21.214  0.00  0.00    -0.080 C 
BRANCH  20  21
ATOM     21  N   UNL     1      35.237 -19.651 -21.321  0.00  0.00    +0.390 N 
ATOM     22  H   UNL     1      35.425 -20.302 -22.084  0.00  0.00    -0.083 HD
ATOM     23  H   UNL     1      35.578 -20.030 -20.438  0.00  0.00    -0.083 HD
BRANCH  21  24
ATOM     24  C   UNL     1      35.928 -18.396 -21.585  0.00  0.00    -0.026 C 
BRANCH  24  25
ATOM     25  S   UNL     1      34.862 -16.974 -21.214  0.00  0.00    -0.192 S 
ATOM     26  H   UNL     1      34.654 -16.255 -22.350  0.00  0.00    +0.100 HD
ENDBRANCH  24  25
ENDBRANCH  21  24
ENDBRANCH  20  21
ENDBRANCH  19  20
ENDBRANCH  18  19
ENDBRANCH  17  18
ENDBRANCH   2  17
TORSDOF 10
ENDMDL
MODEL 9
REMARK VINA RESULT:      -7.5      3.968      6.316
REMARK  Name = 1759
REMARK  10 active torsions:
REMARK  status: ('A' for Active; 'I' for Inactive)
REMARK    1  A    between atoms: N_2  and  C_17
REMARK    2  A    between atoms: C_3  and  C_5
REMARK    3  A    between atoms: C_6  and  S_11
REMARK    4  A    between atoms: S_11  and  N_14
REMARK    5  A    between atoms: C_17  and  C_18
REMARK    6  A    between atoms: C_18  and  C_19
REMARK    7  A    between atoms: C_19  and  C_20
REMARK    8  A    between atoms: C_20  and  N_21
REMARK    9  A    between atoms: N_21  and  C_24
REMARK   10  A    between atoms: C_24  and  S_25
REMARK                            x       y       z     vdW  Elec       q    Type
REMARK                         _______ _______ _______ _____ _____    ______ ____
ROOT
ATOM      1  O   UNL     1      32.920 -12.239 -23.398  0.00  0.00    -0.270 OA
ATOM      2  N   UNL     1      31.716 -12.604 -21.450  0.00  0.00    -0.301 N 
ATOM      3  C   UNL     1      32.632 -12.948 -22.437  0.00  0.00    +0.246 C 
ATOM      4  H   UNL     1      31.551 -13.240 -20.717  0.00  0.00    +0.150 HD
ENDROOT
BRANCH   3   5
ATOM      5  C   UNL     1      33.270 -14.282 -22.303  0.00  0.00    +0.053 C 
ATOM      6  C   UNL     1      34.458 -16.759 -22.052  0.00  0.00    +0.122 C 
ATOM      7  C   UNL     1      34.211 -14.668 -23.235  0.00  0.00    +0.006 C 
ATOM      8  C   UNL     1      32.904 -15.093 -21.248  0.00  0.00    +0.006 C 
ATOM      9  C   UNL     1      34.811 -15.921 -23.110  0.00  0.00    +0.020 C 
ATOM     10  C   UNL     1      33.505 -16.346 -21.122  0.00  0.00    +0.020 C 
BRANCH   6  11
ATOM     11  S   UNL     1      35.209 -18.327 -21.894  0.00  0.00    +0.057 S 
ATOM     12  O   UNL     1      35.844 -18.403 -20.585  0.00  0.00    -0.153 OA
ATOM     13  O   UNL     1      34.244 -19.345 -22.289  0.00  0.00    -0.153 OA
BRANCH  11  14
ATOM     14  N   UNL     1      36.423 -18.229 -23.091  0.00  0.00    -0.203 NA
ATOM     15  H   UNL     1      36.840 -19.150 -23.230  0.00  0.00    +0.144 HD
ATOM     16  H   UNL     1      37.143 -17.572 -22.791  0.00  0.00    +0.144 HD
ENDBRANCH  11  14
ENDBRANCH   6  11
ENDBRANCH   3   5
BRANCH   2  17
ATOM     17  C   UNL     1      30.998 -11.358 -21.455  0.00  0.00    +0.090 C 
BRANCH  17  18
ATOM     18  C   UNL     1      30.682 -10.864 -20.047  0.00  0.00    +0.019 C 
BRANCH  18  19
ATOM     19  C   UNL     1      31.827 -10.047 -19.440  0.00  0.00    -0.022 C 
BRANCH  19  20
ATOM     20  C   UNL     1      32.354  -9.013 -20.435  0.00  0.00    -0.080 C 
BRANCH  20  21
ATOM     21  N   UNL     1      32.666  -7.764 -19.751  0.00  0.00    +0.390 N 
ATOM     22  H   UNL     1      33.672  -7.715 -19.589  0.00  0.00    -0.083 HD
ATOM     23  H   UNL     1      32.161  -7.743 -18.865  0.00  0.00    -0.083 HD
BRANCH  21  24
ATOM     24  C   UNL     1      32.254  -6.615 -20.547  0.00  0.00    -0.026 C 
BRANCH  24  25
ATOM     25  S   UNL     1      32.086  -7.061 -22.299  0.00  0.00    -0.192 S 
ATOM     26  H   UNL     1      30.955  -7.797 -22.472  0.00  0.00    +0.100 HD
ENDBRANCH  24  25
ENDBRANCH  21  24
ENDBRANCH  20  21
ENDBRANCH  19  20
ENDBRANCH  18  19
ENDBRANCH  17  18
ENDBRANCH   2  17
TORSDOF 10
ENDMDL
