MODEL 1
REMARK VINA RESULT:      -7.4      0.000      0.000
REMARK  Name = 2756
REMARK  6 active torsions:
REMARK  status: ('A' for Active; 'I' for Inactive)
REMARK    1  A    between atoms: C_1  and  S_2
REMARK    2  A    between atoms: C_1  and  C_12
REMARK    3  A    between atoms: S_2  and  C_3
REMARK    4  A    between atoms: C_3  and  C_6
REMARK    5  A    between atoms: C_12  and  N_13
REMARK    6  A    between atoms: N_14  and  C_21
REMARK                            x       y       z     vdW  Elec       q    Type
REMARK                         _______ _______ _______ _____ _____    ______ ____
ROOT
ATOM      1  C   UNL     1      36.093 -22.303 -17.009  0.00  0.00    +0.082 C 
ENDROOT
BRANCH   1   2
ATOM      2  S   UNL     1      36.820 -21.383 -18.401  0.00  0.00    -0.132 S 
BRANCH   2   3
ATOM      3  C   UNL     1      35.422 -21.493 -19.541  0.00  0.00    +0.099 C 
BRANCH   3   6
ATOM      4  N   UNL     1      34.483 -18.545 -21.415  0.00  0.00    -0.319 N 
ATOM      5  N   UNL     1      36.337 -19.472 -20.619  0.00  0.00    -0.318 N 
ATOM      6  C   UNL     1      35.247 -20.228 -20.316  0.00  0.00    +0.043 C 
ATOM      7  C   UNL     1      34.088 -19.692 -20.787  0.00  0.00    +0.033 C 
ATOM      8  C   UNL     1      32.680 -20.113 -20.722  0.00  0.00    +0.048 C 
ATOM      9  C   UNL     1      35.841 -18.455 -21.288  0.00  0.00    +0.181 C 
ATOM     10  H   UNL     1      33.896 -17.900 -21.874  0.00  0.00    +0.148 HD
ATOM     11  H   UNL     1      37.279 -19.647 -20.391  0.00  0.00    +0.148 HD
ENDBRANCH   3   6
ENDBRANCH   2   3
ENDBRANCH   1   2
BRANCH   1  12
ATOM     12  C   UNL     1      37.113 -22.600 -15.916  0.00  0.00    +0.112 C 
BRANCH  12  13
ATOM     13  N   UNL     1      37.112 -24.002 -15.563  0.00  0.00    -0.344 N 
ATOM     14  N   UNL     1      37.409 -25.925 -14.145  0.00  0.00    -0.263 N 
ATOM     15  N   UNL     1      37.842 -23.706 -13.350  0.00  0.00    -0.237 NA
ATOM     16  C   UNL     1      37.470 -24.490 -14.316  0.00  0.00    +0.208 C 
ATOM     17  C   UNL     1      38.207 -24.271 -12.061  0.00  0.00    +0.155 C 
ATOM     18  H   UNL     1      36.839 -24.651 -16.252  0.00  0.00    +0.163 HD
ATOM     19  H   UNL     1      37.651 -26.336 -13.283  0.00  0.00    +0.181 HD
BRANCH  14  21
ATOM     20  N   UNL     1      36.673 -27.355 -16.064  0.00  0.00    -0.171 NA
ATOM     21  C   UNL     1      37.019 -26.692 -15.176  0.00  0.00    +0.184 C 
ENDBRANCH  14  21
ENDBRANCH  12  13
ENDBRANCH   1  12
TORSDOF 6
ENDMDL
MODEL 2
REMARK VINA RESULT:      -7.3      5.170     10.990
REMARK  Name = 2756
REMARK  6 active torsions:
REMARK  status: ('A' for Active; 'I' for Inactive)
REMARK    1  A    between atoms: C_1  and  S_2
REMARK    2  A    between atoms: C_1  and  C_12
REMARK    3  A    between atoms: S_2  and  C_3
REMARK    4  A    between atoms: C_3  and  C_6
REMARK    5  A    between atoms: C_12  and  N_13
REMARK    6  A    between atoms: N_14  and  C_21
REMARK                            x       y       z     vdW  Elec       q    Type
REMARK                         _______ _______ _______ _____ _____    ______ ____
ROOT
ATOM      1  C   UNL     1      35.039 -18.176 -24.062  0.00  0.00    +0.082 C 
ENDROOT
BRANCH   1   2
ATOM      2  S   UNL     1      35.148 -17.364 -22.437  0.00  0.00    -0.132 S 
BRANCH   2   3
ATOM      3  C   UNL     1      35.933 -18.714 -21.526  0.00  0.00    +0.099 C 
BRANCH   3   6
ATOM      4  N   UNL     1      33.890 -21.126 -19.767  0.00  0.00    -0.319 N 
ATOM      5  N   UNL     1      33.594 -19.336 -21.048  0.00  0.00    -0.318 N 
ATOM      6  C   UNL     1      34.919 -19.599 -20.878  0.00  0.00    +0.043 C 
ATOM      7  C   UNL     1      35.142 -20.691 -20.097  0.00  0.00    +0.033 C 
ATOM      8  C   UNL     1      36.362 -21.366 -19.628  0.00  0.00    +0.048 C 
ATOM      9  C   UNL     1      32.993 -20.282 -20.361  0.00  0.00    +0.181 C 
ATOM     10  H   UNL     1      33.673 -21.905 -19.205  0.00  0.00    +0.148 HD
ATOM     11  H   UNL     1      33.182 -18.606 -21.565  0.00  0.00    +0.148 HD
ENDBRANCH   3   6
ENDBRANCH   2   3
ENDBRANCH   1   2
BRANCH   1  12
ATOM     12  C   UNL     1      34.528 -17.235 -25.146  0.00  0.00    +0.112 C 
BRANCH  12  13
ATOM     13  N   UNL     1      33.891 -16.070 -24.575  0.00  0.00    -0.344 N 
ATOM     14  N   UNL     1      32.866 -13.891 -24.566  0.00  0.00    -0.263 N 
ATOM     15  N   UNL     1      33.656 -14.895 -26.595  0.00  0.00    -0.237 NA
ATOM     16  C   UNL     1      33.487 -14.966 -25.309  0.00  0.00    +0.208 C 
ATOM     17  C   UNL     1      33.213 -13.712 -27.317  0.00  0.00    +0.155 C 
ATOM     18  H   UNL     1      33.734 -16.061 -23.603  0.00  0.00    +0.163 HD
ATOM     19  H   UNL     1      32.557 -13.079 -25.029  0.00  0.00    +0.181 HD
BRANCH  14  21
ATOM     20  N   UNL     1      32.579 -14.123 -22.090  0.00  0.00    -0.171 NA
ATOM     21  C   UNL     1      32.717 -14.014 -23.238  0.00  0.00    +0.184 C 
ENDBRANCH  14  21
ENDBRANCH  12  13
ENDBRANCH   1  12
TORSDOF 6
ENDMDL
MODEL 3
REMARK VINA RESULT:      -7.2      3.615      4.890
REMARK  Name = 2756
REMARK  6 active torsions:
REMARK  status: ('A' for Active; 'I' for Inactive)
REMARK    1  A    between atoms: C_1  and  S_2
REMARK    2  A    between atoms: C_1  and  C_12
REMARK    3  A    between atoms: S_2  and  C_3
REMARK    4  A    between atoms: C_3  and  C_6
REMARK    5  A    between atoms: C_12  and  N_13
REMARK    6  A    between atoms: N_14  and  C_21
REMARK                            x       y       z     vdW  Elec       q    Type
REMARK                         _______ _______ _______ _____ _____    ______ ____
ROOT
ATOM      1  C   UNL     1      33.658 -20.860 -19.967  0.00  0.00    +0.082 C 
ENDROOT
BRANCH   1   2
ATOM      2  S   UNL     1      35.234 -20.217 -20.611  0.00  0.00    -0.132 S 
BRANCH   2   3
ATOM      3  C   UNL     1      34.604 -19.458 -22.125  0.00  0.00    +0.099 C 
BRANCH   3   6
ATOM      4  N   UNL     1      34.854 -15.871 -22.526  0.00  0.00    -0.319 N 
ATOM      5  N   UNL     1      34.726 -17.340 -20.865  0.00  0.00    -0.318 N 
ATOM      6  C   UNL     1      34.705 -17.968 -22.073  0.00  0.00    +0.043 C 
ATOM      7  C   UNL     1      34.782 -17.100 -23.118  0.00  0.00    +0.033 C 
ATOM      8  C   UNL     1      34.793 -17.275 -24.579  0.00  0.00    +0.048 C 
ATOM      9  C   UNL     1      34.818 -16.065 -21.173  0.00  0.00    +0.181 C 
ATOM     10  H   UNL     1      34.921 -15.004 -22.989  0.00  0.00    +0.148 HD
ATOM     11  H   UNL     1      34.682 -17.746 -19.969  0.00  0.00    +0.148 HD
ENDBRANCH   3   6
ENDBRANCH   2   3
ENDBRANCH   1   2
BRANCH   1  12
ATOM     12  C   UNL     1      33.796 -22.269 -19.402  0.00  0.00    +0.112 C 
BRANCH  12  13
ATOM     13  N   UNL     1      32.823 -22.516 -18.362  0.00  0.00    -0.344 N 
ATOM     14  N   UNL     1      32.018 -23.270 -16.221  0.00  0.00    -0.263 N 
ATOM     15  N   UNL     1      34.326 -23.480 -16.835  0.00  0.00    -0.237 NA
ATOM     16  C   UNL     1      33.122 -23.101 -17.141  0.00  0.00    +0.208 C 
ATOM     17  C   UNL     1      34.584 -24.089 -15.540  0.00  0.00    +0.155 C 
ATOM     18  H   UNL     1      31.890 -22.252 -18.530  0.00  0.00    +0.163 HD
ATOM     19  H   UNL     1      32.164 -23.680 -15.337  0.00  0.00    +0.181 HD
BRANCH  14  21
ATOM     20  N   UNL     1      29.732 -22.519 -16.910  0.00  0.00    -0.171 NA
ATOM     21  C   UNL     1      30.793 -22.863 -16.587  0.00  0.00    +0.184 C 
ENDBRANCH  14  21
ENDBRANCH  12  13
ENDBRANCH   1  12
TORSDOF 6
ENDMDL
MODEL 4
REMARK VINA RESULT:      -7.1      2.393      2.882
REMARK  Name = 2756
REMARK  6 active torsions:
REMARK  status: ('A' for Active; 'I' for Inactive)
REMARK    1  A    between atoms: C_1  and  S_2
REMARK    2  A    between atoms: C_1  and  C_12
REMARK    3  A    between atoms: S_2  and  C_3
REMARK    4  A    between atoms: C_3  and  C_6
REMARK    5  A    between atoms: C_12  and  N_13
REMARK    6  A    between atoms: N_14  and  C_21
REMARK                            x       y       z     vdW  Elec       q    Type
REMARK                         _______ _______ _______ _____ _____    ______ ____
ROOT
ATOM      1  C   UNL     1      32.913 -23.569 -15.521  0.00  0.00    +0.082 C 
ENDROOT
BRANCH   1   2
ATOM      2  S   UNL     1      32.184 -22.902 -17.050  0.00  0.00    -0.132 S 
BRANCH   2   3
ATOM      3  C   UNL     1      33.584 -23.200 -18.154  0.00  0.00    +0.099 C 
BRANCH   3   6
ATOM      4  N   UNL     1      34.593 -20.464 -20.295  0.00  0.00    -0.319 N 
ATOM      5  N   UNL     1      32.728 -21.554 -19.780  0.00  0.00    -0.318 N 
ATOM      6  C   UNL     1      33.791 -22.059 -19.095  0.00  0.00    +0.043 C 
ATOM      7  C   UNL     1      34.955 -21.416 -19.385  0.00  0.00    +0.033 C 
ATOM      8  C   UNL     1      36.342 -21.582 -18.923  0.00  0.00    +0.048 C 
ATOM      9  C   UNL     1      33.247 -20.585 -20.501  0.00  0.00    +0.181 C 
ATOM     10  H   UNL     1      35.192 -19.811 -20.724  0.00  0.00    +0.148 HD
ATOM     11  H   UNL     1      31.788 -21.846 -19.743  0.00  0.00    +0.148 HD
ENDBRANCH   3   6
ENDBRANCH   2   3
ENDBRANCH   1   2
BRANCH   1  12
ATOM     12  C   UNL     1      34.394 -23.232 -15.391  0.00  0.00    +0.112 C 
BRANCH  12  13
ATOM     13  N   UNL     1      35.190 -24.425 -15.207  0.00  0.00    -0.344 N 
ATOM     14  N   UNL     1      36.484 -26.054 -13.995  0.00  0.00    -0.263 N 
ATOM     15  N   UNL     1      35.515 -24.157 -12.896  0.00  0.00    -0.237 NA
ATOM     16  C   UNL     1      35.709 -24.833 -13.988  0.00  0.00    +0.208 C 
ATOM     17  C   UNL     1      36.084 -24.630 -11.644  0.00  0.00    +0.155 C 
ATOM     18  H   UNL     1      35.374 -24.983 -15.997  0.00  0.00    +0.163 HD
ATOM     19  H   UNL     1      36.881 -26.398 -13.162  0.00  0.00    +0.181 HD
BRANCH  14  21
ATOM     20  N   UNL     1      36.809 -27.276 -16.156  0.00  0.00    -0.171 NA
ATOM     21  C   UNL     1      36.657 -26.714 -15.152  0.00  0.00    +0.184 C 
ENDBRANCH  14  21
ENDBRANCH  12  13
ENDBRANCH   1  12
TORSDOF 6
ENDMDL
MODEL 5
REMARK VINA RESULT:      -7.1      9.513     12.448
REMARK  Name = 2756
REMARK  6 active torsions:
REMARK  status: ('A' for Active; 'I' for Inactive)
REMARK    1  A    between atoms: C_1  and  S_2
REMARK    2  A    between atoms: C_1  and  C_12
REMARK    3  A    between atoms: S_2  and  C_3
REMARK    4  A    between atoms: C_3  and  C_6
REMARK    5  A    between atoms: C_12  and  N_13
REMARK    6  A    between atoms: N_14  and  C_21
REMARK                            x       y       z     vdW  Elec       q    Type
REMARK                         _______ _______ _______ _____ _____    ______ ____
ROOT
ATOM      1  C   UNL     1      33.830 -11.684 -24.468  0.00  0.00    +0.082 C 
ENDROOT
BRANCH   1   2
ATOM      2  S   UNL     1      33.700  -9.984 -23.830  0.00  0.00    -0.132 S 
BRANCH   2   3
ATOM      3  C   UNL     1      32.228 -10.204 -22.805  0.00  0.00    +0.099 C 
BRANCH   3   6
ATOM      4  N   UNL     1      32.129  -8.547 -19.591  0.00  0.00    -0.319 N 
ATOM      5  N   UNL     1      32.821  -8.104 -21.655  0.00  0.00    -0.318 N 
ATOM      6  C   UNL     1      32.281  -9.352 -21.580  0.00  0.00    +0.043 C 
ATOM      7  C   UNL     1      31.844  -9.661 -20.328  0.00  0.00    +0.033 C 
ATOM      8  C   UNL     1      31.206 -10.852 -19.747  0.00  0.00    +0.048 C 
ATOM      9  C   UNL     1      32.714  -7.639 -20.430  0.00  0.00    +0.181 C 
ATOM     10  H   UNL     1      31.946  -8.421 -18.632  0.00  0.00    +0.148 HD
ATOM     11  H   UNL     1      33.203  -7.655 -22.443  0.00  0.00    +0.148 HD
ENDBRANCH   3   6
ENDBRANCH   2   3
ENDBRANCH   1   2
BRANCH   1  12
ATOM     12  C   UNL     1      33.292 -12.714 -23.483  0.00  0.00    +0.112 C 
BRANCH  12  13
ATOM     13  N   UNL     1      33.790 -14.038 -23.781  0.00  0.00    -0.344 N 
ATOM     14  N   UNL     1      34.687 -16.222 -23.306  0.00  0.00    -0.263 N 
ATOM     15  N   UNL     1      34.205 -14.659 -21.553  0.00  0.00    -0.237 NA
ATOM     16  C   UNL     1      34.219 -14.942 -22.821  0.00  0.00    +0.208 C 
ATOM     17  C   UNL     1      34.667 -15.644 -20.589  0.00  0.00    +0.155 C 
ATOM     18  H   UNL     1      33.826 -14.315 -24.725  0.00  0.00    +0.163 HD
ATOM     19  H   UNL     1      35.005 -16.908 -22.676  0.00  0.00    +0.181 HD
BRANCH  14  21
ATOM     20  N   UNL     1      34.668 -16.669 -25.769  0.00  0.00    -0.171 NA
ATOM     21  C   UNL     1      34.682 -16.464 -24.626  0.00  0.00    +0.184 C 
ENDBRANCH  14  21
ENDBRANCH  12  13
ENDBRANCH   1  12
TORSDOF 6
ENDMDL
MODEL 6
REMARK VINA RESULT:      -7.1      5.624     11.202
REMARK  Name = 2756
REMARK  6 active torsions:
REMARK  status: ('A' for Active; 'I' for Inactive)
REMARK    1  A    between atoms: C_1  and  S_2
REMARK    2  A    between atoms: C_1  and  C_12
REMARK    3  A    between atoms: S_2  and  C_3
REMARK    4  A    between atoms: C_3  and  C_6
REMARK    5  A    between atoms: C_12  and  N_13
REMARK    6  A    between atoms: N_14  and  C_21
REMARK                            x       y       z     vdW  Elec       q    Type
REMARK                         _______ _______ _______ _____ _____    ______ ____
ROOT
ATOM      1  C   UNL     1      32.848 -15.577 -21.242  0.00  0.00    +0.082 C 
ENDROOT
BRANCH   1   2
ATOM      2  S   UNL     1      34.588 -16.040 -20.974  0.00  0.00    -0.132 S 
BRANCH   2   3
ATOM      3  C   UNL     1      34.614 -17.540 -21.982  0.00  0.00    +0.099 C 
BRANCH   3   6
ATOM      4  N   UNL     1      35.196 -20.538 -20.044  0.00  0.00    -0.319 N 
ATOM      5  N   UNL     1      36.391 -18.888 -20.927  0.00  0.00    -0.318 N 
ATOM      6  C   UNL     1      35.065 -18.723 -21.189  0.00  0.00    +0.043 C 
ATOM      7  C   UNL     1      34.298 -19.717 -20.663  0.00  0.00    +0.033 C 
ATOM      8  C   UNL     1      32.852 -19.988 -20.670  0.00  0.00    +0.048 C 
ATOM      9  C   UNL     1      36.439 -20.001 -20.229  0.00  0.00    +0.181 C 
ATOM     10  H   UNL     1      34.987 -21.367 -19.553  0.00  0.00    +0.148 HD
ATOM     11  H   UNL     1      37.139 -18.309 -21.199  0.00  0.00    +0.148 HD
ENDBRANCH   3   6
ENDBRANCH   2   3
ENDBRANCH   1   2
BRANCH   1  12
ATOM     12  C   UNL     1      32.706 -14.206 -21.891  0.00  0.00    +0.112 C 
BRANCH  12  13
ATOM     13  N   UNL     1      32.884 -14.281 -23.324  0.00  0.00    -0.344 N 
ATOM     14  N   UNL     1      33.385 -13.470 -25.535  0.00  0.00    -0.263 N 
ATOM     15  N   UNL     1      33.475 -12.027 -23.623  0.00  0.00    -0.237 NA
ATOM     16  C   UNL     1      33.256 -13.207 -24.118  0.00  0.00    +0.208 C 
ATOM     17  C   UNL     1      33.862 -10.935 -24.502  0.00  0.00    +0.155 C 
ATOM     18  H   UNL     1      32.733 -15.149 -23.762  0.00  0.00    +0.163 HD
ATOM     19  H   UNL     1      33.645 -12.750 -26.154  0.00  0.00    +0.181 HD
BRANCH  14  21
ATOM     20  N   UNL     1      32.947 -15.779 -26.398  0.00  0.00    -0.171 NA
ATOM     21  C   UNL     1      33.145 -14.707 -25.996  0.00  0.00    +0.184 C 
ENDBRANCH  14  21
ENDBRANCH  12  13
ENDBRANCH   1  12
TORSDOF 6
ENDMDL
MODEL 7
REMARK VINA RESULT:      -7.1      8.855     12.321
REMARK  Name = 2756
REMARK  6 active torsions:
REMARK  status: ('A' for Active; 'I' for Inactive)
REMARK    1  A    between atoms: C_1  and  S_2
REMARK    2  A    between atoms: C_1  and  C_12
REMARK    3  A    between atoms: S_2  and  C_3
REMARK    4  A    between atoms: C_3  and  C_6
REMARK    5  A    between atoms: C_12  and  N_13
REMARK    6  A    between atoms: N_14  and  C_21
REMARK                            x       y       z     vdW  Elec       q    Type
REMARK                         _______ _______ _______ _____ _____    ______ ____
ROOT
ATOM      1  C   UNL     1      32.856 -12.225 -23.185  0.00  0.00    +0.082 C 
ENDROOT
BRANCH   1   2
ATOM      2  S   UNL     1      33.194 -10.488 -23.613  0.00  0.00    -0.132 S 
BRANCH   2   3
ATOM      3  C   UNL     1      31.739  -9.744 -22.840  0.00  0.00    +0.099 C 
BRANCH   3   6
ATOM      4  N   UNL     1      32.417  -8.633 -19.465  0.00  0.00    -0.319 N 
ATOM      5  N   UNL     1      32.564  -7.824 -21.528  0.00  0.00    -0.318 N 
ATOM      6  C   UNL     1      32.082  -9.098 -21.538  0.00  0.00    +0.043 C 
ATOM      7  C   UNL     1      31.978  -9.629 -20.289  0.00  0.00    +0.033 C 
ATOM      8  C   UNL     1      31.527 -10.934 -19.781  0.00  0.00    +0.048 C 
ATOM      9  C   UNL     1      32.758  -7.569 -20.253  0.00  0.00    +0.181 C 
ATOM     10  H   UNL     1      32.478  -8.673 -18.483  0.00  0.00    +0.148 HD
ATOM     11  H   UNL     1      32.728  -7.233 -22.298  0.00  0.00    +0.148 HD
ENDBRANCH   3   6
ENDBRANCH   2   3
ENDBRANCH   1   2
BRANCH   1  12
ATOM     12  C   UNL     1      33.813 -13.188 -23.875  0.00  0.00    +0.112 C 
BRANCH  12  13
ATOM     13  N   UNL     1      34.163 -14.293 -23.011  0.00  0.00    -0.344 N 
ATOM     14  N   UNL     1      34.746 -16.560 -22.446  0.00  0.00    -0.263 N 
ATOM     15  N   UNL     1      34.339 -15.901 -24.715  0.00  0.00    -0.237 NA
ATOM     16  C   UNL     1      34.409 -15.582 -23.458  0.00  0.00    +0.208 C 
ATOM     17  C   UNL     1      34.605 -17.269 -25.129  0.00  0.00    +0.155 C 
ATOM     18  H   UNL     1      34.233 -14.118 -22.045  0.00  0.00    +0.163 HD
ATOM     19  H   UNL     1      34.931 -17.494 -22.697  0.00  0.00    +0.181 HD
BRANCH  14  21
ATOM     20  N   UNL     1      34.860 -15.844 -20.050  0.00  0.00    -0.171 NA
ATOM     21  C   UNL     1      34.803 -16.179 -21.160  0.00  0.00    +0.184 C 
ENDBRANCH  14  21
ENDBRANCH  12  13
ENDBRANCH   1  12
TORSDOF 6
ENDMDL
MODEL 8
REMARK VINA RESULT:      -7.1      5.300     10.939
REMARK  Name = 2756
REMARK  6 active torsions:
REMARK  status: ('A' for Active; 'I' for Inactive)
REMARK    1  A    between atoms: C_1  and  S_2
REMARK    2  A    between atoms: C_1  and  C_12
REMARK    3  A    between atoms: S_2  and  C_3
REMARK    4  A    between atoms: C_3  and  C_6
REMARK    5  A    between atoms: C_12  and  N_13
REMARK    6  A    between atoms: N_14  and  C_21
REMARK                            x       y       z     vdW  Elec       q    Type
REMARK                         _______ _______ _______ _____ _____    ______ ____
ROOT
ATOM      1  C   UNL     1      34.632 -15.930 -21.478  0.00  0.00    +0.082 C 
ENDROOT
BRANCH   1   2
ATOM      2  S   UNL     1      34.930 -17.300 -22.639  0.00  0.00    -0.132 S 
BRANCH   2   3
ATOM      3  C   UNL     1      35.795 -18.412 -21.508  0.00  0.00    +0.099 C 
BRANCH   3   6
ATOM      4  N   UNL     1      33.980 -21.103 -19.911  0.00  0.00    -0.319 N 
ATOM      5  N   UNL     1      33.521 -19.241 -21.031  0.00  0.00    -0.318 N 
ATOM      6  C   UNL     1      34.866 -19.419 -20.913  0.00  0.00    +0.043 C 
ATOM      7  C   UNL     1      35.188 -20.552 -20.231  0.00  0.00    +0.033 C 
ATOM      8  C   UNL     1      36.466 -21.171 -19.847  0.00  0.00    +0.048 C 
ATOM      9  C   UNL     1      33.009 -20.282 -20.412  0.00  0.00    +0.181 C 
ATOM     10  H   UNL     1      33.835 -21.939 -19.410  0.00  0.00    +0.148 HD
ATOM     11  H   UNL     1      33.043 -18.504 -21.477  0.00  0.00    +0.148 HD
ENDBRANCH   3   6
ENDBRANCH   2   3
ENDBRANCH   1   2
BRANCH   1  12
ATOM     12  C   UNL     1      33.423 -15.090 -21.872  0.00  0.00    +0.112 C 
BRANCH  12  13
ATOM     13  N   UNL     1      33.312 -14.966 -23.308  0.00  0.00    -0.344 N 
ATOM     14  N   UNL     1      33.281 -13.836 -25.434  0.00  0.00    -0.263 N 
ATOM     15  N   UNL     1      33.627 -12.639 -23.386  0.00  0.00    -0.237 NA
ATOM     16  C   UNL     1      33.418 -13.767 -23.995  0.00  0.00    +0.208 C 
ATOM     17  C   UNL     1      33.729 -11.410 -24.156  0.00  0.00    +0.155 C 
ATOM     18  H   UNL     1      33.154 -15.786 -23.831  0.00  0.00    +0.163 HD
ATOM     19  H   UNL     1      33.345 -13.020 -25.981  0.00  0.00    +0.181 HD
BRANCH  14  21
ATOM     20  N   UNL     1      32.883 -16.055 -26.524  0.00  0.00    -0.171 NA
ATOM     21  C   UNL     1      33.063 -15.026 -26.015  0.00  0.00    +0.184 C 
ENDBRANCH  14  21
ENDBRANCH  12  13
ENDBRANCH   1  12
TORSDOF 6
ENDMDL
MODEL 9
REMARK VINA RESULT:      -7.0      2.458      3.546
REMARK  Name = 2756
REMARK  6 active torsions:
REMARK  status: ('A' for Active; 'I' for Inactive)
REMARK    1  A    between atoms: C_1  and  S_2
REMARK    2  A    between atoms: C_1  and  C_12
REMARK    3  A    between atoms: S_2  and  C_3
REMARK    4  A    between atoms: C_3  and  C_6
REMARK    5  A    between atoms: C_12  and  N_13
REMARK    6  A    between atoms: N_14  and  C_21
REMARK                            x       y       z     vdW  Elec       q    Type
REMARK                         _______ _______ _______ _____ _____    ______ ____
ROOT
ATOM      1  C   UNL     1      33.185 -23.660 -15.363  0.00  0.00    +0.082 C 
ENDROOT
BRANCH   1   2
ATOM      2  S   UNL     1      32.423 -22.998 -16.877  0.00  0.00    -0.132 S 
BRANCH   2   3
ATOM      3  C   UNL     1      33.837 -23.196 -17.985  0.00  0.00    +0.099 C 
BRANCH   3   6
ATOM      4  N   UNL     1      34.580 -20.476 -20.252  0.00  0.00    -0.319 N 
ATOM      5  N   UNL     1      32.798 -21.605 -19.559  0.00  0.00    -0.318 N 
ATOM      6  C   UNL     1      33.929 -22.068 -18.960  0.00  0.00    +0.043 C 
ATOM      7  C   UNL     1      35.046 -21.400 -19.360  0.00  0.00    +0.033 C 
ATOM      8  C   UNL     1      36.472 -21.519 -19.018  0.00  0.00    +0.048 C 
ATOM      9  C   UNL     1      33.225 -20.637 -20.338  0.00  0.00    +0.181 C 
ATOM     10  H   UNL     1      35.121 -19.815 -20.743  0.00  0.00    +0.148 HD
ATOM     11  H   UNL     1      31.874 -21.922 -19.436  0.00  0.00    +0.148 HD
ENDBRANCH   3   6
ENDBRANCH   2   3
ENDBRANCH   1   2
BRANCH   1  12
ATOM     12  C   UNL     1      34.603 -23.143 -15.155  0.00  0.00    +0.112 C 
BRANCH  12  13
ATOM     13  N   UNL     1      35.251 -23.813 -14.050  0.00  0.00    -0.344 N 
ATOM     14  N   UNL     1      36.532 -25.529 -12.949  0.00  0.00    -0.263 N 
ATOM     15  N   UNL     1      36.072 -25.625 -15.299  0.00  0.00    -0.237 NA
ATOM     16  C   UNL     1      35.948 -25.006 -14.165  0.00  0.00    +0.208 C 
ATOM     17  C   UNL     1      36.813 -26.874 -15.363  0.00  0.00    +0.155 C 
ATOM     18  H   UNL     1      35.195 -23.394 -13.161  0.00  0.00    +0.163 HD
ATOM     19  H   UNL     1      37.039 -26.373 -12.962  0.00  0.00    +0.181 HD
BRANCH  14  21
ATOM     20  N   UNL     1      36.236 -24.255 -10.814  0.00  0.00    -0.171 NA
ATOM     21  C   UNL     1      36.373 -24.851 -11.801  0.00  0.00    +0.184 C 
ENDBRANCH  14  21
ENDBRANCH  12  13
ENDBRANCH   1  12
TORSDOF 6
ENDMDL
