MODEL 1
REMARK VINA RESULT:      -6.9      0.000      0.000
REMARK  Name = 11963565
REMARK  13 active torsions:
REMARK  status: ('A' for Active; 'I' for Inactive)
REMARK    1  A    between atoms: C_1  and  O_2
REMARK    2  A    between atoms: C_1  and  C_5
REMARK    3  A    between atoms: C_1  and  C_13
REMARK    4  A    between atoms: O_2  and  C_4
REMARK    5  A    between atoms: C_5  and  O_6
REMARK    6  A    between atoms: O_6  and  C_8
REMARK    7  A    between atoms: C_8  and  C_9
REMARK    8  A    between atoms: C_9  and  C_10
REMARK    9  A    between atoms: C_10  and  C_11
REMARK   10  A    between atoms: C_13  and  O_14
REMARK   11  A    between atoms: O_14  and  P_15
REMARK   12  A    between atoms: P_15  and  O_17
REMARK   13  A    between atoms: P_15  and  O_19
REMARK                            x       y       z     vdW  Elec       q    Type
REMARK                         _______ _______ _______ _____ _____    ______ ____
ROOT
ATOM      1  C   UNL     1      37.426 -26.272 -14.000  0.00  0.00    +0.243 C 
ENDROOT
BRANCH   1   2
ATOM      2  O   UNL     1      38.632 -26.814 -14.545  0.00  0.00    -0.438 OA
BRANCH   2   4
ATOM      3  O   UNL     1      40.630 -26.009 -15.394  0.00  0.00    -0.238 OA
ATOM      4  C   UNL     1      39.669 -25.941 -14.644  0.00  0.00    +0.418 C 
ENDBRANCH   2   4
ENDBRANCH   1   2
BRANCH   1   5
ATOM      5  C   UNL     1      36.791 -25.382 -15.059  0.00  0.00    +0.254 C 
BRANCH   5   6
ATOM      6  O   UNL     1      36.851 -24.021 -14.621  0.00  0.00    -0.444 OA
BRANCH   6   8
ATOM      7  O   UNL     1      34.825 -22.975 -14.970  0.00  0.00    -0.250 OA
ATOM      8  C   UNL     1      36.000 -23.160 -15.254  0.00  0.00    +0.317 C 
BRANCH   8   9
ATOM      9  C   UNL     1      36.747 -22.466 -16.370  0.00  0.00    +0.110 C 
BRANCH   9  10
ATOM     10  C   UNL     1      35.837 -22.136 -17.551  0.00  0.00    +0.012 C 
BRANCH  10  11
ATOM     11  C   UNL     1      36.615 -21.470 -18.685  0.00  0.00    +0.001 C 
ATOM     12  C   UNL     1      35.776 -21.362 -19.948  0.00  0.00    +0.000 C 
ENDBRANCH  10  11
ENDBRANCH   9  10
ENDBRANCH   8   9
ENDBRANCH   6   8
ENDBRANCH   5   6
ENDBRANCH   1   5
BRANCH   1  13
ATOM     13  C   UNL     1      37.770 -25.483 -12.742  0.00  0.00    +0.201 C 
BRANCH  13  14
ATOM     14  O   UNL     1      36.796 -25.733 -11.734  0.00  0.00    -0.269 OA
BRANCH  14  15
ATOM     15  P   UNL     1      35.800 -24.531 -11.316  0.00  0.00    +0.473 P 
ATOM     16  O   UNL     1      35.371 -24.531  -9.877  0.00  0.00    -0.227 OA
BRANCH  15  17
ATOM     17  O   UNL     1      36.613 -23.216 -11.786  0.00  0.00    -0.303 OA
ATOM     18  H   UNL     1      36.760 -23.251 -12.745  0.00  0.00    +0.222 HD
ENDBRANCH  15  17
BRANCH  15  19
ATOM     19  O   UNL     1      34.599 -24.632 -12.395  0.00  0.00    -0.303 OA
ATOM     20  H   UNL     1      34.652 -23.882 -13.007  0.00  0.00    +0.222 HD
ENDBRANCH  15  19
ENDBRANCH  14  15
ENDBRANCH  13  14
ENDBRANCH   1  13
TORSDOF 13
ENDMDL
MODEL 2
REMARK VINA RESULT:      -6.7      2.753      4.729
REMARK  Name = 11963565
REMARK  13 active torsions:
REMARK  status: ('A' for Active; 'I' for Inactive)
REMARK    1  A    between atoms: C_1  and  O_2
REMARK    2  A    between atoms: C_1  and  C_5
REMARK    3  A    between atoms: C_1  and  C_13
REMARK    4  A    between atoms: O_2  and  C_4
REMARK    5  A    between atoms: C_5  and  O_6
REMARK    6  A    between atoms: O_6  and  C_8
REMARK    7  A    between atoms: C_8  and  C_9
REMARK    8  A    between atoms: C_9  and  C_10
REMARK    9  A    between atoms: C_10  and  C_11
REMARK   10  A    between atoms: C_13  and  O_14
REMARK   11  A    between atoms: O_14  and  P_15
REMARK   12  A    between atoms: P_15  and  O_17
REMARK   13  A    between atoms: P_15  and  O_19
REMARK                            x       y       z     vdW  Elec       q    Type
REMARK                         _______ _______ _______ _____ _____    ______ ____
ROOT
ATOM      1  C   UNL     1      37.688 -24.032 -12.263  0.00  0.00    +0.243 C 
ENDROOT
BRANCH   1   2
ATOM      2  O   UNL     1      37.215 -24.125 -10.917  0.00  0.00    -0.438 OA
BRANCH   2   4
ATOM      3  O   UNL     1      35.237 -25.141 -10.274  0.00  0.00    -0.238 OA
ATOM      4  C   UNL     1      35.867 -24.226 -10.780  0.00  0.00    +0.418 C 
ENDBRANCH   2   4
ENDBRANCH   1   2
BRANCH   1   5
ATOM      5  C   UNL     1      36.556 -23.485 -13.122  0.00  0.00    +0.254 C 
BRANCH   5   6
ATOM      6  O   UNL     1      36.284 -24.410 -14.179  0.00  0.00    -0.444 OA
BRANCH   6   8
ATOM      7  O   UNL     1      35.013 -24.254 -16.097  0.00  0.00    -0.250 OA
ATOM      8  C   UNL     1      35.136 -24.179 -14.884  0.00  0.00    +0.317 C 
BRANCH   8   9
ATOM      9  C   UNL     1      34.034 -23.814 -13.915  0.00  0.00    +0.110 C 
BRANCH   9  10
ATOM     10  C   UNL     1      32.666 -24.288 -14.400  0.00  0.00    +0.012 C 
BRANCH  10  11
ATOM     11  C   UNL     1      31.786 -23.111 -14.821  0.00  0.00    +0.001 C 
ATOM     12  C   UNL     1      31.505 -23.131 -16.315  0.00  0.00    +0.000 C 
ENDBRANCH  10  11
ENDBRANCH   9  10
ENDBRANCH   8   9
ENDBRANCH   6   8
ENDBRANCH   5   6
ENDBRANCH   1   5
BRANCH   1  13
ATOM     13  C   UNL     1      38.119 -25.418 -12.727  0.00  0.00    +0.201 C 
BRANCH  13  14
ATOM     14  O   UNL     1      39.403 -25.346 -13.338  0.00  0.00    -0.269 OA
BRANCH  14  15
ATOM     15  P   UNL     1      39.496 -25.498 -14.945  0.00  0.00    +0.473 P 
ATOM     16  O   UNL     1      40.778 -26.088 -15.455  0.00  0.00    -0.227 OA
BRANCH  15  17
ATOM     17  O   UNL     1      38.166 -26.346 -15.299  0.00  0.00    -0.303 OA
ATOM     18  H   UNL     1      37.869 -26.828 -14.511  0.00  0.00    +0.222 HD
ENDBRANCH  15  17
BRANCH  15  19
ATOM     19  O   UNL     1      39.150 -24.016 -15.493  0.00  0.00    -0.303 OA
ATOM     20  H   UNL     1      38.382 -23.667 -15.015  0.00  0.00    +0.222 HD
ENDBRANCH  15  19
ENDBRANCH  14  15
ENDBRANCH  13  14
ENDBRANCH   1  13
TORSDOF 13
ENDMDL
MODEL 3
REMARK VINA RESULT:      -6.7      1.925      2.848
REMARK  Name = 11963565
REMARK  13 active torsions:
REMARK  status: ('A' for Active; 'I' for Inactive)
REMARK    1  A    between atoms: C_1  and  O_2
REMARK    2  A    between atoms: C_1  and  C_5
REMARK    3  A    between atoms: C_1  and  C_13
REMARK    4  A    between atoms: O_2  and  C_4
REMARK    5  A    between atoms: C_5  and  O_6
REMARK    6  A    between atoms: O_6  and  C_8
REMARK    7  A    between atoms: C_8  and  C_9
REMARK    8  A    between atoms: C_9  and  C_10
REMARK    9  A    between atoms: C_10  and  C_11
REMARK   10  A    between atoms: C_13  and  O_14
REMARK   11  A    between atoms: O_14  and  P_15
REMARK   12  A    between atoms: P_15  and  O_17
REMARK   13  A    between atoms: P_15  and  O_19
REMARK                            x       y       z     vdW  Elec       q    Type
REMARK                         _______ _______ _______ _____ _____    ______ ____
ROOT
ATOM      1  C   UNL     1      35.465 -24.631 -15.064  0.00  0.00    +0.243 C 
ENDROOT
BRANCH   1   2
ATOM      2  O   UNL     1      36.770 -25.091 -15.424  0.00  0.00    -0.438 OA
BRANCH   2   4
ATOM      3  O   UNL     1      38.123 -26.840 -14.738  0.00  0.00    -0.238 OA
ATOM      4  C   UNL     1      37.048 -26.377 -15.084  0.00  0.00    +0.418 C 
ENDBRANCH   2   4
ENDBRANCH   1   2
BRANCH   1   5
ATOM      5  C   UNL     1      35.198 -23.338 -15.822  0.00  0.00    +0.254 C 
BRANCH   5   6
ATOM      6  O   UNL     1      36.387 -22.951 -16.518  0.00  0.00    -0.444 OA
BRANCH   6   8
ATOM      7  O   UNL     1      36.958 -21.072 -17.727  0.00  0.00    -0.250 OA
ATOM      8  C   UNL     1      36.218 -22.018 -17.501  0.00  0.00    +0.317 C 
BRANCH   8   9
ATOM      9  C   UNL     1      34.959 -22.345 -18.273  0.00  0.00    +0.110 C 
BRANCH   9  10
ATOM     10  C   UNL     1      34.833 -21.507 -19.544  0.00  0.00    +0.012 C 
BRANCH  10  11
ATOM     11  C   UNL     1      33.382 -21.101 -19.801  0.00  0.00    +0.001 C 
ATOM     12  C   UNL     1      33.295 -19.914 -20.747  0.00  0.00    +0.000 C 
ENDBRANCH  10  11
ENDBRANCH   9  10
ENDBRANCH   8   9
ENDBRANCH   6   8
ENDBRANCH   5   6
ENDBRANCH   1   5
BRANCH   1  13
ATOM     13  C   UNL     1      35.422 -24.412 -13.557  0.00  0.00    +0.201 C 
BRANCH  13  14
ATOM     14  O   UNL     1      36.255 -23.311 -13.205  0.00  0.00    -0.269 OA
BRANCH  14  15
ATOM     15  P   UNL     1      37.447 -23.563 -12.142  0.00  0.00    +0.473 P 
ATOM     16  O   UNL     1      37.061 -24.359 -10.930  0.00  0.00    -0.227 OA
BRANCH  15  17
ATOM     17  O   UNL     1      38.604 -24.226 -13.056  0.00  0.00    -0.303 OA
ATOM     18  H   UNL     1      38.426 -25.174 -13.166  0.00  0.00    +0.222 HD
ENDBRANCH  15  17
BRANCH  15  19
ATOM     19  O   UNL     1      38.015 -22.079 -11.841  0.00  0.00    -0.303 OA
ATOM     20  H   UNL     1      37.294 -21.435 -11.923  0.00  0.00    +0.222 HD
ENDBRANCH  15  19
ENDBRANCH  14  15
ENDBRANCH  13  14
ENDBRANCH   1  13
TORSDOF 13
ENDMDL
MODEL 4
REMARK VINA RESULT:      -6.6      2.003      2.635
REMARK  Name = 11963565
REMARK  13 active torsions:
REMARK  status: ('A' for Active; 'I' for Inactive)
REMARK    1  A    between atoms: C_1  and  O_2
REMARK    2  A    between atoms: C_1  and  C_5
REMARK    3  A    between atoms: C_1  and  C_13
REMARK    4  A    between atoms: O_2  and  C_4
REMARK    5  A    between atoms: C_5  and  O_6
REMARK    6  A    between atoms: O_6  and  C_8
REMARK    7  A    between atoms: C_8  and  C_9
REMARK    8  A    between atoms: C_9  and  C_10
REMARK    9  A    between atoms: C_10  and  C_11
REMARK   10  A    between atoms: C_13  and  O_14
REMARK   11  A    between atoms: O_14  and  P_15
REMARK   12  A    between atoms: P_15  and  O_17
REMARK   13  A    between atoms: P_15  and  O_19
REMARK                            x       y       z     vdW  Elec       q    Type
REMARK                         _______ _______ _______ _____ _____    ______ ____
ROOT
ATOM      1  C   UNL     1      37.585 -25.898 -14.012  0.00  0.00    +0.243 C 
ENDROOT
BRANCH   1   2
ATOM      2  O   UNL     1      38.744 -26.615 -14.444  0.00  0.00    -0.438 OA
BRANCH   2   4
ATOM      3  O   UNL     1      41.046 -26.434 -14.270  0.00  0.00    -0.238 OA
ATOM      4  C   UNL     1      39.924 -25.955 -14.301  0.00  0.00    +0.418 C 
ENDBRANCH   2   4
ENDBRANCH   1   2
BRANCH   1   5
ATOM      5  C   UNL     1      37.445 -24.661 -14.889  0.00  0.00    +0.254 C 
BRANCH   5   6
ATOM      6  O   UNL     1      36.167 -24.690 -15.533  0.00  0.00    -0.444 OA
BRANCH   6   8
ATOM      7  O   UNL     1      35.811 -22.491 -14.935  0.00  0.00    -0.250 OA
ATOM      8  C   UNL     1      35.448 -23.530 -15.467  0.00  0.00    +0.317 C 
BRANCH   8   9
ATOM      9  C   UNL     1      34.122 -23.737 -16.164  0.00  0.00    +0.110 C 
BRANCH   9  10
ATOM     10  C   UNL     1      32.950 -23.712 -15.184  0.00  0.00    +0.012 C 
BRANCH  10  11
ATOM     11  C   UNL     1      31.740 -22.997 -15.782  0.00  0.00    +0.001 C 
ATOM     12  C   UNL     1      30.492 -23.217 -14.942  0.00  0.00    +0.000 C 
ENDBRANCH  10  11
ENDBRANCH   9  10
ENDBRANCH   8   9
ENDBRANCH   6   8
ENDBRANCH   5   6
ENDBRANCH   1   5
BRANCH   1  13
ATOM     13  C   UNL     1      37.760 -25.524 -12.545  0.00  0.00    +0.201 C 
BRANCH  13  14
ATOM     14  O   UNL     1      36.505 -25.594 -11.876  0.00  0.00    -0.269 OA
BRANCH  14  15
ATOM     15  P   UNL     1      35.989 -24.285 -11.079  0.00  0.00    +0.473 P 
ATOM     16  O   UNL     1      35.423 -24.553  -9.715  0.00  0.00    -0.227 OA
BRANCH  15  17
ATOM     17  O   UNL     1      37.285 -23.320 -11.103  0.00  0.00    -0.303 OA
ATOM     18  H   UNL     1      37.191 -22.634 -10.423  0.00  0.00    +0.222 HD
ENDBRANCH  15  17
BRANCH  15  19
ATOM     19  O   UNL     1      34.976 -23.575 -12.120  0.00  0.00    -0.303 OA
ATOM     20  H   UNL     1      34.294 -23.091 -11.627  0.00  0.00    +0.222 HD
ENDBRANCH  15  19
ENDBRANCH  14  15
ENDBRANCH  13  14
ENDBRANCH   1  13
TORSDOF 13
ENDMDL
MODEL 5
REMARK VINA RESULT:      -6.5      8.821     12.272
REMARK  Name = 11963565
REMARK  13 active torsions:
REMARK  status: ('A' for Active; 'I' for Inactive)
REMARK    1  A    between atoms: C_1  and  O_2
REMARK    2  A    between atoms: C_1  and  C_5
REMARK    3  A    between atoms: C_1  and  C_13
REMARK    4  A    between atoms: O_2  and  C_4
REMARK    5  A    between atoms: C_5  and  O_6
REMARK    6  A    between atoms: O_6  and  C_8
REMARK    7  A    between atoms: C_8  and  C_9
REMARK    8  A    between atoms: C_9  and  C_10
REMARK    9  A    between atoms: C_10  and  C_11
REMARK   10  A    between atoms: C_13  and  O_14
REMARK   11  A    between atoms: O_14  and  P_15
REMARK   12  A    between atoms: P_15  and  O_17
REMARK   13  A    between atoms: P_15  and  O_19
REMARK                            x       y       z     vdW  Elec       q    Type
REMARK                         _______ _______ _______ _____ _____    ______ ____
ROOT
ATOM      1  C   UNL     1      34.793 -16.463 -24.415  0.00  0.00    +0.243 C 
ENDROOT
BRANCH   1   2
ATOM      2  O   UNL     1      34.399 -16.467 -25.789  0.00  0.00    -0.438 OA
BRANCH   2   4
ATOM      3  O   UNL     1      33.471 -14.759 -27.049  0.00  0.00    -0.238 OA
ATOM      4  C   UNL     1      33.447 -15.556 -26.124  0.00  0.00    +0.418 C 
ENDBRANCH   2   4
ENDBRANCH   1   2
BRANCH   1   5
ATOM      5  C   UNL     1      34.761 -17.900 -23.914  0.00  0.00    +0.254 C 
BRANCH   5   6
ATOM      6  O   UNL     1      35.801 -18.079 -22.947  0.00  0.00    -0.444 OA
BRANCH   6   8
ATOM      7  O   UNL     1      35.628 -17.851 -20.659  0.00  0.00    -0.250 OA
ATOM      8  C   UNL     1      35.387 -18.448 -21.698  0.00  0.00    +0.317 C 
BRANCH   8   9
ATOM      9  C   UNL     1      34.576 -19.719 -21.807  0.00  0.00    +0.110 C 
BRANCH   9  10
ATOM     10  C   UNL     1      33.354 -19.699 -20.892  0.00  0.00    +0.012 C 
BRANCH  10  11
ATOM     11  C   UNL     1      33.330 -20.916 -19.969  0.00  0.00    +0.001 C 
ATOM     12  C   UNL     1      34.735 -21.362 -19.598  0.00  0.00    +0.000 C 
ENDBRANCH  10  11
ENDBRANCH   9  10
ENDBRANCH   8   9
ENDBRANCH   6   8
ENDBRANCH   5   6
ENDBRANCH   1   5
BRANCH   1  13
ATOM     13  C   UNL     1      33.829 -15.579 -23.633  0.00  0.00    +0.201 C 
BRANCH  13  14
ATOM     14  O   UNL     1      34.519 -14.942 -22.561  0.00  0.00    -0.269 OA
BRANCH  14  15
ATOM     15  P   UNL     1      33.786 -14.856 -21.123  0.00  0.00    +0.473 P 
ATOM     16  O   UNL     1      32.946 -13.630 -20.909  0.00  0.00    -0.227 OA
BRANCH  15  17
ATOM     17  O   UNL     1      32.982 -16.257 -21.049  0.00  0.00    -0.303 OA
ATOM     18  H   UNL     1      33.196 -16.795 -21.828  0.00  0.00    +0.222 HD
ENDBRANCH  15  17
BRANCH  15  19
ATOM     19  O   UNL     1      34.991 -15.061 -20.064  0.00  0.00    -0.303 OA
ATOM     20  H   UNL     1      35.780 -15.378 -20.531  0.00  0.00    +0.222 HD
ENDBRANCH  15  19
ENDBRANCH  14  15
ENDBRANCH  13  14
ENDBRANCH   1  13
TORSDOF 13
ENDMDL
MODEL 6
REMARK VINA RESULT:      -6.4      2.356      4.344
REMARK  Name = 11963565
REMARK  13 active torsions:
REMARK  status: ('A' for Active; 'I' for Inactive)
REMARK    1  A    between atoms: C_1  and  O_2
REMARK    2  A    between atoms: C_1  and  C_5
REMARK    3  A    between atoms: C_1  and  C_13
REMARK    4  A    between atoms: O_2  and  C_4
REMARK    5  A    between atoms: C_5  and  O_6
REMARK    6  A    between atoms: O_6  and  C_8
REMARK    7  A    between atoms: C_8  and  C_9
REMARK    8  A    between atoms: C_9  and  C_10
REMARK    9  A    between atoms: C_10  and  C_11
REMARK   10  A    between atoms: C_13  and  O_14
REMARK   11  A    between atoms: O_14  and  P_15
REMARK   12  A    between atoms: P_15  and  O_17
REMARK   13  A    between atoms: P_15  and  O_19
REMARK                            x       y       z     vdW  Elec       q    Type
REMARK                         _______ _______ _______ _____ _____    ______ ____
ROOT
ATOM      1  C   UNL     1      35.083 -23.229 -14.852  0.00  0.00    +0.243 C 
ENDROOT
BRANCH   1   2
ATOM      2  O   UNL     1      34.183 -24.323 -14.659  0.00  0.00    -0.438 OA
BRANCH   2   4
ATOM      3  O   UNL     1      32.375 -24.915 -13.339  0.00  0.00    -0.238 OA
ATOM      4  C   UNL     1      33.300 -24.176 -13.636  0.00  0.00    +0.418 C 
ENDBRANCH   2   4
ENDBRANCH   1   2
BRANCH   1   5
ATOM      5  C   UNL     1      35.196 -22.972 -16.348  0.00  0.00    +0.254 C 
BRANCH   5   6
ATOM      6  O   UNL     1      34.186 -23.725 -17.027  0.00  0.00    -0.444 OA
BRANCH   6   8
ATOM      7  O   UNL     1      32.198 -22.669 -17.526  0.00  0.00    -0.250 OA
ATOM      8  C   UNL     1      33.339 -22.997 -17.815  0.00  0.00    +0.317 C 
BRANCH   8   9
ATOM      9  C   UNL     1      34.044 -22.660 -19.109  0.00  0.00    +0.110 C 
BRANCH   9  10
ATOM     10  C   UNL     1      33.744 -21.235 -19.570  0.00  0.00    +0.012 C 
BRANCH  10  11
ATOM     11  C   UNL     1      34.930 -20.632 -20.321  0.00  0.00    +0.001 C 
ATOM     12  C   UNL     1      36.252 -21.036 -19.691  0.00  0.00    +0.000 C 
ENDBRANCH  10  11
ENDBRANCH   9  10
ENDBRANCH   8   9
ENDBRANCH   6   8
ENDBRANCH   5   6
ENDBRANCH   1   5
BRANCH   1  13
ATOM     13  C   UNL     1      36.433 -23.594 -14.245  0.00  0.00    +0.201 C 
BRANCH  13  14
ATOM     14  O   UNL     1      37.095 -24.542 -15.076  0.00  0.00    -0.269 OA
BRANCH  14  15
ATOM     15  P   UNL     1      37.069 -26.097 -14.635  0.00  0.00    +0.473 P 
ATOM     16  O   UNL     1      38.397 -26.795 -14.684  0.00  0.00    -0.227 OA
BRANCH  15  17
ATOM     17  O   UNL     1      36.381 -26.040 -13.173  0.00  0.00    -0.303 OA
ATOM     18  H   UNL     1      36.742 -26.749 -12.617  0.00  0.00    +0.222 HD
ENDBRANCH  15  17
BRANCH  15  19
ATOM     19  O   UNL     1      35.914 -26.743 -15.565  0.00  0.00    -0.303 OA
ATOM     20  H   UNL     1      35.335 -27.299 -15.021  0.00  0.00    +0.222 HD
ENDBRANCH  15  19
ENDBRANCH  14  15
ENDBRANCH  13  14
ENDBRANCH   1  13
TORSDOF 13
ENDMDL
MODEL 7
REMARK VINA RESULT:      -6.3      2.755      4.011
REMARK  Name = 11963565
REMARK  13 active torsions:
REMARK  status: ('A' for Active; 'I' for Inactive)
REMARK    1  A    between atoms: C_1  and  O_2
REMARK    2  A    between atoms: C_1  and  C_5
REMARK    3  A    between atoms: C_1  and  C_13
REMARK    4  A    between atoms: O_2  and  C_4
REMARK    5  A    between atoms: C_5  and  O_6
REMARK    6  A    between atoms: O_6  and  C_8
REMARK    7  A    between atoms: C_8  and  C_9
REMARK    8  A    between atoms: C_9  and  C_10
REMARK    9  A    between atoms: C_10  and  C_11
REMARK   10  A    between atoms: C_13  and  O_14
REMARK   11  A    between atoms: O_14  and  P_15
REMARK   12  A    between atoms: P_15  and  O_17
REMARK   13  A    between atoms: P_15  and  O_19
REMARK                            x       y       z     vdW  Elec       q    Type
REMARK                         _______ _______ _______ _____ _____    ______ ____
ROOT
ATOM      1  C   UNL     1      35.458 -24.826 -14.950  0.00  0.00    +0.243 C 
ENDROOT
BRANCH   1   2
ATOM      2  O   UNL     1      36.765 -25.404 -14.900  0.00  0.00    -0.438 OA
BRANCH   2   4
ATOM      3  O   UNL     1      36.662 -27.298 -16.228  0.00  0.00    -0.238 OA
ATOM      4  C   UNL     1      36.821 -26.738 -15.155  0.00  0.00    +0.418 C 
ENDBRANCH   2   4
ENDBRANCH   1   2
BRANCH   1   5
ATOM      5  C   UNL     1      35.562 -23.492 -15.677  0.00  0.00    +0.254 C 
BRANCH   5   6
ATOM      6  O   UNL     1      34.252 -22.933 -15.813  0.00  0.00    -0.444 OA
BRANCH   6   8
ATOM      7  O   UNL     1      34.136 -23.503 -18.045  0.00  0.00    -0.250 OA
ATOM      8  C   UNL     1      33.604 -23.229 -16.979  0.00  0.00    +0.317 C 
BRANCH   8   9
ATOM      9  C   UNL     1      32.113 -23.164 -16.740  0.00  0.00    +0.110 C 
BRANCH   9  10
ATOM     10  C   UNL     1      31.768 -23.219 -15.253  0.00  0.00    +0.012 C 
BRANCH  10  11
ATOM     11  C   UNL     1      30.905 -24.436 -14.927  0.00  0.00    +0.001 C 
ATOM     12  C   UNL     1      30.832 -24.683 -13.428  0.00  0.00    +0.000 C 
ENDBRANCH  10  11
ENDBRANCH   9  10
ENDBRANCH   8   9
ENDBRANCH   6   8
ENDBRANCH   5   6
ENDBRANCH   1   5
BRANCH   1  13
ATOM     13  C   UNL     1      34.949 -24.646 -13.525  0.00  0.00    +0.201 C 
BRANCH  13  14
ATOM     14  O   UNL     1      35.725 -23.656 -12.856  0.00  0.00    -0.269 OA
BRANCH  14  15
ATOM     15  P   UNL     1      36.493 -24.076 -11.497  0.00  0.00    +0.473 P 
ATOM     16  O   UNL     1      37.178 -22.949 -10.780  0.00  0.00    -0.227 OA
BRANCH  15  17
ATOM     17  O   UNL     1      35.335 -24.822 -10.650  0.00  0.00    -0.303 OA
ATOM     18  H   UNL     1      35.400 -25.780 -10.787  0.00  0.00    +0.222 HD
ENDBRANCH  15  17
BRANCH  15  19
ATOM     19  O   UNL     1      37.458 -25.289 -11.958  0.00  0.00    -0.303 OA
ATOM     20  H   UNL     1      36.917 -26.060 -12.191  0.00  0.00    +0.222 HD
ENDBRANCH  15  19
ENDBRANCH  14  15
ENDBRANCH  13  14
ENDBRANCH   1  13
TORSDOF 13
ENDMDL
MODEL 8
REMARK VINA RESULT:      -6.2      3.873      5.378
REMARK  Name = 11963565
REMARK  13 active torsions:
REMARK  status: ('A' for Active; 'I' for Inactive)
REMARK    1  A    between atoms: C_1  and  O_2
REMARK    2  A    between atoms: C_1  and  C_5
REMARK    3  A    between atoms: C_1  and  C_13
REMARK    4  A    between atoms: O_2  and  C_4
REMARK    5  A    between atoms: C_5  and  O_6
REMARK    6  A    between atoms: O_6  and  C_8
REMARK    7  A    between atoms: C_8  and  C_9
REMARK    8  A    between atoms: C_9  and  C_10
REMARK    9  A    between atoms: C_10  and  C_11
REMARK   10  A    between atoms: C_13  and  O_14
REMARK   11  A    between atoms: O_14  and  P_15
REMARK   12  A    between atoms: P_15  and  O_17
REMARK   13  A    between atoms: P_15  and  O_19
REMARK                            x       y       z     vdW  Elec       q    Type
REMARK                         _______ _______ _______ _____ _____    ______ ____
ROOT
ATOM      1  C   UNL     1      35.043 -23.650 -13.826  0.00  0.00    +0.243 C 
ENDROOT
BRANCH   1   2
ATOM      2  O   UNL     1      34.776 -24.492 -12.703  0.00  0.00    -0.438 OA
BRANCH   2   4
ATOM      3  O   UNL     1      36.279 -25.614 -11.345  0.00  0.00    -0.238 OA
ATOM      4  C   UNL     1      35.786 -24.594 -11.799  0.00  0.00    +0.418 C 
ENDBRANCH   2   4
ENDBRANCH   1   2
BRANCH   1   5
ATOM      5  C   UNL     1      33.819 -23.674 -14.732  0.00  0.00    +0.254 C 
BRANCH   5   6
ATOM      6  O   UNL     1      32.787 -24.436 -14.099  0.00  0.00    -0.444 OA
BRANCH   6   8
ATOM      7  O   UNL     1      31.020 -23.745 -12.789  0.00  0.00    -0.250 OA
ATOM      8  C   UNL     1      31.625 -23.761 -13.850  0.00  0.00    +0.317 C 
BRANCH   8   9
ATOM      9  C   UNL     1      31.204 -23.033 -15.107  0.00  0.00    +0.110 C 
BRANCH   9  10
ATOM     10  C   UNL     1      29.707 -22.732 -15.120  0.00  0.00    +0.012 C 
BRANCH  10  11
ATOM     11  C   UNL     1      28.909 -23.904 -15.688  0.00  0.00    +0.001 C 
ATOM     12  C   UNL     1      28.216 -23.528 -16.988  0.00  0.00    +0.000 C 
ENDBRANCH  10  11
ENDBRANCH   9  10
ENDBRANCH   8   9
ENDBRANCH   6   8
ENDBRANCH   5   6
ENDBRANCH   1   5
BRANCH   1  13
ATOM     13  C   UNL     1      36.280 -24.173 -14.547  0.00  0.00    +0.201 C 
BRANCH  13  14
ATOM     14  O   UNL     1      35.932 -25.300 -15.347  0.00  0.00    -0.269 OA
BRANCH  14  15
ATOM     15  P   UNL     1      36.909 -26.587 -15.321  0.00  0.00    +0.473 P 
ATOM     16  O   UNL     1      36.662 -27.595 -16.406  0.00  0.00    -0.227 OA
BRANCH  15  17
ATOM     17  O   UNL     1      38.380 -25.918 -15.331  0.00  0.00    -0.303 OA
ATOM     18  H   UNL     1      38.393 -25.174 -15.954  0.00  0.00    +0.222 HD
ENDBRANCH  15  17
BRANCH  15  19
ATOM     19  O   UNL     1      36.766 -27.150 -13.811  0.00  0.00    -0.303 OA
ATOM     20  H   UNL     1      36.876 -28.113 -13.814  0.00  0.00    +0.222 HD
ENDBRANCH  15  19
ENDBRANCH  14  15
ENDBRANCH  13  14
ENDBRANCH   1  13
TORSDOF 13
ENDMDL
MODEL 9
REMARK VINA RESULT:      -6.2      2.364      3.582
REMARK  Name = 11963565
REMARK  13 active torsions:
REMARK  status: ('A' for Active; 'I' for Inactive)
REMARK    1  A    between atoms: C_1  and  O_2
REMARK    2  A    between atoms: C_1  and  C_5
REMARK    3  A    between atoms: C_1  and  C_13
REMARK    4  A    between atoms: O_2  and  C_4
REMARK    5  A    between atoms: C_5  and  O_6
REMARK    6  A    between atoms: O_6  and  C_8
REMARK    7  A    between atoms: C_8  and  C_9
REMARK    8  A    between atoms: C_9  and  C_10
REMARK    9  A    between atoms: C_10  and  C_11
REMARK   10  A    between atoms: C_13  and  O_14
REMARK   11  A    between atoms: O_14  and  P_15
REMARK   12  A    between atoms: P_15  and  O_17
REMARK   13  A    between atoms: P_15  and  O_19
REMARK                            x       y       z     vdW  Elec       q    Type
REMARK                         _______ _______ _______ _____ _____    ______ ____
ROOT
ATOM      1  C   UNL     1      35.243 -23.642 -15.558  0.00  0.00    +0.243 C 
ENDROOT
BRANCH   1   2
ATOM      2  O   UNL     1      36.077 -22.502 -15.338  0.00  0.00    -0.438 OA
BRANCH   2   4
ATOM      3  O   UNL     1      38.152 -23.513 -15.157  0.00  0.00    -0.238 OA
ATOM      4  C   UNL     1      37.393 -22.680 -15.626  0.00  0.00    +0.418 C 
ENDBRANCH   2   4
ENDBRANCH   1   2
BRANCH   1   5
ATOM      5  C   UNL     1      34.158 -23.246 -16.551  0.00  0.00    +0.254 C 
BRANCH   5   6
ATOM      6  O   UNL     1      34.777 -22.790 -17.758  0.00  0.00    -0.444 OA
BRANCH   6   8
ATOM      7  O   UNL     1      33.930 -23.972 -19.548  0.00  0.00    -0.250 OA
ATOM      8  C   UNL     1      34.034 -22.944 -18.895  0.00  0.00    +0.317 C 
BRANCH   8   9
ATOM      9  C   UNL     1      33.357 -21.632 -19.217  0.00  0.00    +0.110 C 
BRANCH   9  10
ATOM     10  C   UNL     1      34.248 -20.718 -20.056  0.00  0.00    +0.012 C 
BRANCH  10  11
ATOM     11  C   UNL     1      33.417 -19.760 -20.908  0.00  0.00    +0.001 C 
ATOM     12  C   UNL     1      34.300 -18.868 -21.766  0.00  0.00    +0.000 C 
ENDBRANCH  10  11
ENDBRANCH   9  10
ENDBRANCH   8   9
ENDBRANCH   6   8
ENDBRANCH   5   6
ENDBRANCH   1   5
BRANCH   1  13
ATOM     13  C   UNL     1      34.645 -24.075 -14.224  0.00  0.00    +0.201 C 
BRANCH  13  14
ATOM     14  O   UNL     1      35.528 -24.983 -13.572  0.00  0.00    -0.269 OA
BRANCH  14  15
ATOM     15  P   UNL     1      36.164 -24.545 -12.152  0.00  0.00    +0.473 P 
ATOM     16  O   UNL     1      37.514 -25.128 -11.852  0.00  0.00    -0.227 OA
BRANCH  15  17
ATOM     17  O   UNL     1      36.118 -22.931 -12.225  0.00  0.00    -0.303 OA
ATOM     18  H   UNL     1      36.930 -22.602 -12.643  0.00  0.00    +0.222 HD
ENDBRANCH  15  17
BRANCH  15  19
ATOM     19  O   UNL     1      35.004 -24.903 -11.083  0.00  0.00    -0.303 OA
ATOM     20  H   UNL     1      34.599 -25.752 -11.319  0.00  0.00    +0.222 HD
ENDBRANCH  15  19
ENDBRANCH  14  15
ENDBRANCH  13  14
ENDBRANCH   1  13
TORSDOF 13
ENDMDL
