MODEL 1
REMARK VINA RESULT:      -8.6      0.000      0.000
REMARK  Name = 444150
REMARK  9 active torsions:
REMARK  status: ('A' for Active; 'I' for Inactive)
REMARK    1  A    between atoms: C_1  and  C_3
REMARK    2  A    between atoms: C_1  and  O_12
REMARK    3  A    between atoms: C_1  and  C_14
REMARK    4  A    between atoms: C_14  and  O_15
REMARK    5  A    between atoms: C_14  and  C_17
REMARK    6  A    between atoms: C_17  and  O_18
REMARK    7  A    between atoms: O_18  and  P_19
REMARK    8  A    between atoms: P_19  and  O_21
REMARK    9  A    between atoms: P_19  and  O_23
REMARK                            x       y       z     vdW  Elec       q    Type
REMARK                         _______ _______ _______ _____ _____    ______ ____
ROOT
ATOM      1  C   UNL     1      37.262 -23.169 -15.189  0.00  0.00    +0.163 C 
ENDROOT
BRANCH   1   3
ATOM      2  N   UNL     1      33.932 -23.406 -16.667  0.00  0.00    -0.312 N 
ATOM      3  C   UNL     1      36.026 -23.108 -15.995  0.00  0.00    +0.023 C 
ATOM      4  C   UNL     1      35.860 -22.443 -17.242  0.00  0.00    +0.013 C 
ATOM      5  C   UNL     1      34.538 -22.646 -17.642  0.00  0.00    +0.048 C 
ATOM      6  C   UNL     1      34.824 -23.691 -15.669  0.00  0.00    +0.060 C 
ATOM      7  C   UNL     1      36.710 -21.685 -18.072  0.00  0.00    +0.001 C 
ATOM      8  C   UNL     1      34.020 -22.126 -18.834  0.00  0.00    +0.015 C 
ATOM      9  C   UNL     1      36.207 -21.160 -19.268  0.00  0.00    +0.000 C 
ATOM     10  C   UNL     1      34.882 -21.379 -19.641  0.00  0.00    +0.001 C 
ATOM     11  H   UNL     1      32.993 -23.704 -16.686  0.00  0.00    +0.152 HD
ENDBRANCH   1   3
BRANCH   1  12
ATOM     12  O   UNL     1      38.461 -23.293 -15.986  0.00  0.00    -0.377 OA
ATOM     13  H   UNL     1      38.994 -22.487 -15.896  0.00  0.00    +0.211 HD
ENDBRANCH   1  12
BRANCH   1  14
ATOM     14  C   UNL     1      37.337 -24.297 -14.122  0.00  0.00    +0.172 C 
BRANCH  14  15
ATOM     15  O   UNL     1      38.185 -23.871 -13.054  0.00  0.00    -0.379 OA
ATOM     16  H   UNL     1      37.713 -23.961 -12.211  0.00  0.00    +0.211 HD
ENDBRANCH  14  15
BRANCH  14  17
ATOM     17  C   UNL     1      37.864 -25.615 -14.684  0.00  0.00    +0.186 C 
BRANCH  17  18
ATOM     18  O   UNL     1      38.955 -26.052 -13.881  0.00  0.00    -0.271 OA
BRANCH  18  19
ATOM     19  P   UNL     1      40.446 -25.951 -14.494  0.00  0.00    +0.473 P 
ATOM     20  O   UNL     1      41.385 -27.041 -14.069  0.00  0.00    -0.227 OA
BRANCH  19  21
ATOM     21  O   UNL     1      40.916 -24.449 -14.122  0.00  0.00    -0.303 OA
ATOM     22  H   UNL     1      40.513 -24.183 -13.280  0.00  0.00    +0.222 HD
ENDBRANCH  19  21
BRANCH  19  23
ATOM     23  O   UNL     1      40.169 -25.869 -16.086  0.00  0.00    -0.303 OA
ATOM     24  H   UNL     1      40.100 -26.766 -16.448  0.00  0.00    +0.222 HD
ENDBRANCH  19  23
ENDBRANCH  18  19
ENDBRANCH  17  18
ENDBRANCH  14  17
ENDBRANCH   1  14
TORSDOF 9
ENDMDL
MODEL 2
REMARK VINA RESULT:      -8.5      2.126      2.994
REMARK  Name = 444150
REMARK  9 active torsions:
REMARK  status: ('A' for Active; 'I' for Inactive)
REMARK    1  A    between atoms: C_1  and  C_3
REMARK    2  A    between atoms: C_1  and  O_12
REMARK    3  A    between atoms: C_1  and  C_14
REMARK    4  A    between atoms: C_14  and  O_15
REMARK    5  A    between atoms: C_14  and  C_17
REMARK    6  A    between atoms: C_17  and  O_18
REMARK    7  A    between atoms: O_18  and  P_19
REMARK    8  A    between atoms: P_19  and  O_21
REMARK    9  A    between atoms: P_19  and  O_23
REMARK                            x       y       z     vdW  Elec       q    Type
REMARK                         _______ _______ _______ _____ _____    ______ ____
ROOT
ATOM      1  C   UNL     1      36.255 -24.276 -15.474  0.00  0.00    +0.163 C 
ENDROOT
BRANCH   1   3
ATOM      2  N   UNL     1      33.374 -23.677 -13.313  0.00  0.00    -0.312 N 
ATOM      3  C   UNL     1      34.955 -23.975 -14.842  0.00  0.00    +0.023 C 
ATOM      4  C   UNL     1      33.758 -23.589 -15.509  0.00  0.00    +0.013 C 
ATOM      5  C   UNL     1      32.782 -23.409 -14.526  0.00  0.00    +0.048 C 
ATOM      6  C   UNL     1      34.686 -24.021 -13.494  0.00  0.00    +0.060 C 
ATOM      7  C   UNL     1      33.410 -23.375 -16.857  0.00  0.00    +0.001 C 
ATOM      8  C   UNL     1      31.470 -23.022 -14.826  0.00  0.00    +0.015 C 
ATOM      9  C   UNL     1      32.102 -22.989 -17.172  0.00  0.00    +0.000 C 
ATOM     10  C   UNL     1      31.148 -22.816 -16.170  0.00  0.00    +0.001 C 
ATOM     11  H   UNL     1      32.919 -23.630 -12.440  0.00  0.00    +0.152 HD
ENDBRANCH   1   3
BRANCH   1  12
ATOM     12  O   UNL     1      36.522 -25.692 -15.592  0.00  0.00    -0.377 OA
ATOM     13  H   UNL     1      37.402 -25.824 -15.976  0.00  0.00    +0.211 HD
ENDBRANCH   1  12
BRANCH   1  14
ATOM     14  C   UNL     1      37.512 -23.657 -14.800  0.00  0.00    +0.172 C 
BRANCH  14  15
ATOM     15  O   UNL     1      38.475 -23.349 -15.809  0.00  0.00    -0.379 OA
ATOM     16  H   UNL     1      39.363 -23.567 -15.485  0.00  0.00    +0.211 HD
ENDBRANCH  14  15
BRANCH  14  17
ATOM     17  C   UNL     1      38.148 -24.581 -13.765  0.00  0.00    +0.186 C 
BRANCH  17  18
ATOM     18  O   UNL     1      39.541 -24.688 -14.042  0.00  0.00    -0.271 OA
BRANCH  18  19
ATOM     19  P   UNL     1      40.110 -26.104 -14.570  0.00  0.00    +0.473 P 
ATOM     20  O   UNL     1      41.263 -26.660 -13.787  0.00  0.00    -0.227 OA
BRANCH  19  21
ATOM     21  O   UNL     1      40.402 -25.842 -16.139  0.00  0.00    -0.303 OA
ATOM     22  H   UNL     1      40.151 -24.933 -16.367  0.00  0.00    +0.222 HD
ENDBRANCH  19  21
BRANCH  19  23
ATOM     23  O   UNL     1      38.786 -27.033 -14.589  0.00  0.00    -0.303 OA
ATOM     24  H   UNL     1      38.003 -26.477 -14.723  0.00  0.00    +0.222 HD
ENDBRANCH  19  23
ENDBRANCH  18  19
ENDBRANCH  17  18
ENDBRANCH  14  17
ENDBRANCH   1  14
TORSDOF 9
ENDMDL
MODEL 3
REMARK VINA RESULT:      -8.5      1.429      2.311
REMARK  Name = 444150
REMARK  9 active torsions:
REMARK  status: ('A' for Active; 'I' for Inactive)
REMARK    1  A    between atoms: C_1  and  C_3
REMARK    2  A    between atoms: C_1  and  O_12
REMARK    3  A    between atoms: C_1  and  C_14
REMARK    4  A    between atoms: C_14  and  O_15
REMARK    5  A    between atoms: C_14  and  C_17
REMARK    6  A    between atoms: C_17  and  O_18
REMARK    7  A    between atoms: O_18  and  P_19
REMARK    8  A    between atoms: P_19  and  O_21
REMARK    9  A    between atoms: P_19  and  O_23
REMARK                            x       y       z     vdW  Elec       q    Type
REMARK                         _______ _______ _______ _____ _____    ______ ____
ROOT
ATOM      1  C   UNL     1      36.675 -23.722 -14.628  0.00  0.00    +0.163 C 
ENDROOT
BRANCH   1   3
ATOM      2  N   UNL     1      36.991 -21.737 -17.676  0.00  0.00    -0.312 N 
ATOM      3  C   UNL     1      36.531 -22.989 -15.901  0.00  0.00    +0.023 C 
ATOM      4  C   UNL     1      35.357 -22.902 -16.702  0.00  0.00    +0.013 C 
ATOM      5  C   UNL     1      35.673 -22.111 -17.808  0.00  0.00    +0.048 C 
ATOM      6  C   UNL     1      37.517 -22.262 -16.526  0.00  0.00    +0.060 C 
ATOM      7  C   UNL     1      34.052 -23.421 -16.591  0.00  0.00    +0.001 C 
ATOM      8  C   UNL     1      34.747 -21.813 -18.814  0.00  0.00    +0.015 C 
ATOM      9  C   UNL     1      33.114 -23.132 -17.589  0.00  0.00    +0.000 C 
ATOM     10  C   UNL     1      33.458 -22.339 -18.683  0.00  0.00    +0.001 C 
ATOM     11  H   UNL     1      37.485 -21.173 -18.315  0.00  0.00    +0.152 HD
ENDBRANCH   1   3
BRANCH   1  12
ATOM     12  O   UNL     1      37.746 -23.222 -13.796  0.00  0.00    -0.377 OA
ATOM     13  H   UNL     1      38.487 -23.848 -13.813  0.00  0.00    +0.211 HD
ENDBRANCH   1  12
BRANCH   1  14
ATOM     14  C   UNL     1      36.893 -25.257 -14.734  0.00  0.00    +0.172 C 
BRANCH  14  15
ATOM     15  O   UNL     1      35.632 -25.915 -14.600  0.00  0.00    -0.379 OA
ATOM     16  H   UNL     1      35.202 -25.627 -13.778  0.00  0.00    +0.211 HD
ENDBRANCH  14  15
BRANCH  14  17
ATOM     17  C   UNL     1      37.853 -25.796 -13.677  0.00  0.00    +0.186 C 
BRANCH  17  18
ATOM     18  O   UNL     1      38.854 -26.575 -14.323  0.00  0.00    -0.271 OA
BRANCH  18  19
ATOM     19  P   UNL     1      40.299 -25.902 -14.584  0.00  0.00    +0.473 P 
ATOM     20  O   UNL     1      40.508 -24.567 -13.930  0.00  0.00    -0.227 OA
BRANCH  19  21
ATOM     21  O   UNL     1      40.445 -25.914 -16.194  0.00  0.00    -0.303 OA
ATOM     22  H   UNL     1      39.643 -25.544 -16.595  0.00  0.00    +0.222 HD
ENDBRANCH  19  21
BRANCH  19  23
ATOM     23  O   UNL     1      41.322 -27.062 -14.110  0.00  0.00    -0.303 OA
ATOM     24  H   UNL     1      41.517 -27.647 -14.858  0.00  0.00    +0.222 HD
ENDBRANCH  19  23
ENDBRANCH  18  19
ENDBRANCH  17  18
ENDBRANCH  14  17
ENDBRANCH   1  14
TORSDOF 9
ENDMDL
MODEL 4
REMARK VINA RESULT:      -8.3      1.469      2.035
REMARK  Name = 444150
REMARK  9 active torsions:
REMARK  status: ('A' for Active; 'I' for Inactive)
REMARK    1  A    between atoms: C_1  and  C_3
REMARK    2  A    between atoms: C_1  and  O_12
REMARK    3  A    between atoms: C_1  and  C_14
REMARK    4  A    between atoms: C_14  and  O_15
REMARK    5  A    between atoms: C_14  and  C_17
REMARK    6  A    between atoms: C_17  and  O_18
REMARK    7  A    between atoms: O_18  and  P_19
REMARK    8  A    between atoms: P_19  and  O_21
REMARK    9  A    between atoms: P_19  and  O_23
REMARK                            x       y       z     vdW  Elec       q    Type
REMARK                         _______ _______ _______ _____ _____    ______ ____
ROOT
ATOM      1  C   UNL     1      34.920 -23.824 -15.242  0.00  0.00    +0.163 C 
ENDROOT
BRANCH   1   3
ATOM      2  N   UNL     1      32.776 -22.837 -18.029  0.00  0.00    -0.312 N 
ATOM      3  C   UNL     1      34.288 -23.302 -16.471  0.00  0.00    +0.023 C 
ATOM      4  C   UNL     1      34.923 -22.548 -17.497  0.00  0.00    +0.013 C 
ATOM      5  C   UNL     1      33.953 -22.270 -18.462  0.00  0.00    +0.048 C 
ATOM      6  C   UNL     1      32.969 -23.464 -16.827  0.00  0.00    +0.060 C 
ATOM      7  C   UNL     1      36.235 -22.075 -17.698  0.00  0.00    +0.001 C 
ATOM      8  C   UNL     1      34.229 -21.538 -19.622  0.00  0.00    +0.015 C 
ATOM      9  C   UNL     1      36.526 -21.341 -18.854  0.00  0.00    +0.000 C 
ATOM     10  C   UNL     1      35.537 -21.079 -19.801  0.00  0.00    +0.001 C 
ATOM     11  H   UNL     1      31.919 -22.799 -18.513  0.00  0.00    +0.152 HD
ENDBRANCH   1   3
BRANCH   1  12
ATOM     12  O   UNL     1      35.302 -22.788 -14.309  0.00  0.00    -0.377 OA
ATOM     13  H   UNL     1      34.901 -22.967 -13.445  0.00  0.00    +0.211 HD
ENDBRANCH   1  12
BRANCH   1  14
ATOM     14  C   UNL     1      36.179 -24.714 -15.436  0.00  0.00    +0.172 C 
BRANCH  14  15
ATOM     15  O   UNL     1      35.796 -26.087 -15.343  0.00  0.00    -0.379 OA
ATOM     16  H   UNL     1      35.897 -26.389 -14.426  0.00  0.00    +0.211 HD
ENDBRANCH  14  15
BRANCH  14  17
ATOM     17  C   UNL     1      37.273 -24.428 -14.410  0.00  0.00    +0.186 C 
BRANCH  17  18
ATOM     18  O   UNL     1      38.520 -24.321 -15.088  0.00  0.00    -0.271 OA
BRANCH  18  19
ATOM     19  P   UNL     1      39.662 -25.418 -14.768  0.00  0.00    +0.473 P 
ATOM     20  O   UNL     1      40.684 -24.998 -13.753  0.00  0.00    -0.227 OA
BRANCH  19  21
ATOM     21  O   UNL     1      40.250 -25.799 -16.225  0.00  0.00    -0.303 OA
ATOM     22  H   UNL     1      41.013 -25.233 -16.424  0.00  0.00    +0.222 HD
ENDBRANCH  19  21
BRANCH  19  23
ATOM     23  O   UNL     1      38.795 -26.724 -14.365  0.00  0.00    -0.303 OA
ATOM     24  H   UNL     1      38.610 -27.247 -15.160  0.00  0.00    +0.222 HD
ENDBRANCH  19  23
ENDBRANCH  18  19
ENDBRANCH  17  18
ENDBRANCH  14  17
ENDBRANCH   1  14
TORSDOF 9
ENDMDL
MODEL 5
REMARK VINA RESULT:      -8.3      1.993      3.199
REMARK  Name = 444150
REMARK  9 active torsions:
REMARK  status: ('A' for Active; 'I' for Inactive)
REMARK    1  A    between atoms: C_1  and  C_3
REMARK    2  A    between atoms: C_1  and  O_12
REMARK    3  A    between atoms: C_1  and  C_14
REMARK    4  A    between atoms: C_14  and  O_15
REMARK    5  A    between atoms: C_14  and  C_17
REMARK    6  A    between atoms: C_17  and  O_18
REMARK    7  A    between atoms: O_18  and  P_19
REMARK    8  A    between atoms: P_19  and  O_21
REMARK    9  A    between atoms: P_19  and  O_23
REMARK                            x       y       z     vdW  Elec       q    Type
REMARK                         _______ _______ _______ _____ _____    ______ ____
ROOT
ATOM      1  C   UNL     1      36.691 -23.876 -13.263  0.00  0.00    +0.163 C 
ENDROOT
BRANCH   1   3
ATOM      2  N   UNL     1      35.359 -22.903 -16.521  0.00  0.00    -0.312 N 
ATOM      3  C   UNL     1      35.901 -23.550 -14.467  0.00  0.00    +0.023 C 
ATOM      4  C   UNL     1      34.489 -23.658 -14.610  0.00  0.00    +0.013 C 
ATOM      5  C   UNL     1      34.176 -23.246 -15.907  0.00  0.00    +0.048 C 
ATOM      6  C   UNL     1      36.407 -23.083 -15.658  0.00  0.00    +0.060 C 
ATOM      7  C   UNL     1      33.444 -24.068 -13.758  0.00  0.00    +0.001 C 
ATOM      8  C   UNL     1      32.864 -23.225 -16.397  0.00  0.00    +0.015 C 
ATOM      9  C   UNL     1      32.128 -24.051 -14.234  0.00  0.00    +0.000 C 
ATOM     10  C   UNL     1      31.845 -23.635 -15.533  0.00  0.00    +0.001 C 
ATOM     11  H   UNL     1      35.441 -22.576 -17.446  0.00  0.00    +0.152 HD
ENDBRANCH   1   3
BRANCH   1  12
ATOM     12  O   UNL     1      38.001 -23.265 -13.254  0.00  0.00    -0.377 OA
ATOM     13  H   UNL     1      37.993 -22.492 -12.668  0.00  0.00    +0.211 HD
ENDBRANCH   1  12
BRANCH   1  14
ATOM     14  C   UNL     1      36.919 -25.386 -12.972  0.00  0.00    +0.172 C 
BRANCH  14  15
ATOM     15  O   UNL     1      36.207 -25.743 -11.787  0.00  0.00    -0.379 OA
ATOM     16  H   UNL     1      35.355 -25.278 -11.769  0.00  0.00    +0.211 HD
ENDBRANCH  14  15
BRANCH  14  17
ATOM     17  C   UNL     1      38.393 -25.742 -12.798  0.00  0.00    +0.186 C 
BRANCH  17  18
ATOM     18  O   UNL     1      38.891 -26.248 -14.032  0.00  0.00    -0.271 OA
BRANCH  18  19
ATOM     19  P   UNL     1      40.359 -25.778 -14.515  0.00  0.00    +0.473 P 
ATOM     20  O   UNL     1      40.810 -24.449 -13.984  0.00  0.00    -0.227 OA
BRANCH  19  21
ATOM     21  O   UNL     1      40.290 -25.892 -16.126  0.00  0.00    -0.303 OA
ATOM     22  H   UNL     1      39.591 -25.309 -16.463  0.00  0.00    +0.222 HD
ENDBRANCH  19  21
BRANCH  19  23
ATOM     23  O   UNL     1      41.289 -27.033 -14.094  0.00  0.00    -0.303 OA
ATOM     24  H   UNL     1      40.736 -27.730 -13.709  0.00  0.00    +0.222 HD
ENDBRANCH  19  23
ENDBRANCH  18  19
ENDBRANCH  17  18
ENDBRANCH  14  17
ENDBRANCH   1  14
TORSDOF 9
ENDMDL
MODEL 6
REMARK VINA RESULT:      -8.1      2.558      3.841
REMARK  Name = 444150
REMARK  9 active torsions:
REMARK  status: ('A' for Active; 'I' for Inactive)
REMARK    1  A    between atoms: C_1  and  C_3
REMARK    2  A    between atoms: C_1  and  O_12
REMARK    3  A    between atoms: C_1  and  C_14
REMARK    4  A    between atoms: C_14  and  O_15
REMARK    5  A    between atoms: C_14  and  C_17
REMARK    6  A    between atoms: C_17  and  O_18
REMARK    7  A    between atoms: O_18  and  P_19
REMARK    8  A    between atoms: P_19  and  O_21
REMARK    9  A    between atoms: P_19  and  O_23
REMARK                            x       y       z     vdW  Elec       q    Type
REMARK                         _______ _______ _______ _____ _____    ______ ____
ROOT
ATOM      1  C   UNL     1      34.983 -24.099 -14.592  0.00  0.00    +0.163 C 
ENDROOT
BRANCH   1   3
ATOM      2  N   UNL     1      32.791 -23.067 -17.323  0.00  0.00    -0.312 N 
ATOM      3  C   UNL     1      33.891 -23.695 -15.500  0.00  0.00    +0.023 C 
ATOM      4  C   UNL     1      32.518 -23.541 -15.160  0.00  0.00    +0.013 C 
ATOM      5  C   UNL     1      31.850 -23.147 -16.321  0.00  0.00    +0.048 C 
ATOM      6  C   UNL     1      34.027 -23.396 -16.836  0.00  0.00    +0.060 C 
ATOM      7  C   UNL     1      31.777 -23.700 -13.973  0.00  0.00    +0.001 C 
ATOM      8  C   UNL     1      30.472 -22.904 -16.355  0.00  0.00    +0.015 C 
ATOM      9  C   UNL     1      30.398 -23.461 -13.991  0.00  0.00    +0.000 C 
ATOM     10  C   UNL     1      29.757 -23.068 -15.165  0.00  0.00    +0.001 C 
ATOM     11  H   UNL     1      32.602 -22.810 -18.255  0.00  0.00    +0.152 HD
ENDBRANCH   1   3
BRANCH   1  12
ATOM     12  O   UNL     1      35.244 -23.138 -13.545  0.00  0.00    -0.377 OA
ATOM     13  H   UNL     1      35.495 -23.605 -12.732  0.00  0.00    +0.211 HD
ENDBRANCH   1  12
BRANCH   1  14
ATOM     14  C   UNL     1      36.358 -24.400 -15.252  0.00  0.00    +0.172 C 
BRANCH  14  15
ATOM     15  O   UNL     1      36.375 -25.759 -15.690  0.00  0.00    -0.379 OA
ATOM     16  H   UNL     1      35.562 -25.950 -16.184  0.00  0.00    +0.211 HD
ENDBRANCH  14  15
BRANCH  14  17
ATOM     17  C   UNL     1      37.535 -24.161 -14.310  0.00  0.00    +0.186 C 
BRANCH  17  18
ATOM     18  O   UNL     1      38.736 -24.145 -15.073  0.00  0.00    -0.271 OA
BRANCH  18  19
ATOM     19  P   UNL     1      39.855 -25.269 -14.765  0.00  0.00    +0.473 P 
ATOM     20  O   UNL     1      41.013 -24.805 -13.931  0.00  0.00    -0.227 OA
BRANCH  19  21
ATOM     21  O   UNL     1      40.241 -25.841 -16.227  0.00  0.00    -0.303 OA
ATOM     22  H   UNL     1      39.933 -26.758 -16.308  0.00  0.00    +0.222 HD
ENDBRANCH  19  21
BRANCH  19  23
ATOM     23  O   UNL     1      38.983 -26.467 -14.115  0.00  0.00    -0.303 OA
ATOM     24  H   UNL     1      38.500 -26.134 -13.344  0.00  0.00    +0.222 HD
ENDBRANCH  19  23
ENDBRANCH  18  19
ENDBRANCH  17  18
ENDBRANCH  14  17
ENDBRANCH   1  14
TORSDOF 9
ENDMDL
MODEL 7
REMARK VINA RESULT:      -8.1      2.475      3.417
REMARK  Name = 444150
REMARK  9 active torsions:
REMARK  status: ('A' for Active; 'I' for Inactive)
REMARK    1  A    between atoms: C_1  and  C_3
REMARK    2  A    between atoms: C_1  and  O_12
REMARK    3  A    between atoms: C_1  and  C_14
REMARK    4  A    between atoms: C_14  and  O_15
REMARK    5  A    between atoms: C_14  and  C_17
REMARK    6  A    between atoms: C_17  and  O_18
REMARK    7  A    between atoms: O_18  and  P_19
REMARK    8  A    between atoms: P_19  and  O_21
REMARK    9  A    between atoms: P_19  and  O_23
REMARK                            x       y       z     vdW  Elec       q    Type
REMARK                         _______ _______ _______ _____ _____    ______ ____
ROOT
ATOM      1  C   UNL     1      34.829 -23.911 -15.998  0.00  0.00    +0.163 C 
ENDROOT
BRANCH   1   3
ATOM      2  N   UNL     1      32.271 -22.445 -18.152  0.00  0.00    -0.312 N 
ATOM      3  C   UNL     1      34.015 -23.202 -17.006  0.00  0.00    +0.023 C 
ATOM      4  C   UNL     1      34.499 -22.379 -18.061  0.00  0.00    +0.013 C 
ATOM      5  C   UNL     1      33.385 -21.917 -18.765  0.00  0.00    +0.048 C 
ATOM      6  C   UNL     1      32.642 -23.223 -17.089  0.00  0.00    +0.060 C 
ATOM      7  C   UNL     1      35.782 -21.981 -18.486  0.00  0.00    +0.001 C 
ATOM      8  C   UNL     1      33.490 -21.073 -19.877  0.00  0.00    +0.015 C 
ATOM      9  C   UNL     1      35.903 -21.137 -19.596  0.00  0.00    +0.000 C 
ATOM     10  C   UNL     1      34.773 -20.692 -20.280  0.00  0.00    +0.001 C 
ATOM     11  H   UNL     1      31.342 -22.287 -18.438  0.00  0.00    +0.152 HD
ENDBRANCH   1   3
BRANCH   1  12
ATOM     12  O   UNL     1      34.071 -24.335 -14.843  0.00  0.00    -0.377 OA
ATOM     13  H   UNL     1      34.649 -24.827 -14.240  0.00  0.00    +0.211 HD
ENDBRANCH   1  12
BRANCH   1  14
ATOM     14  C   UNL     1      36.065 -23.147 -15.445  0.00  0.00    +0.172 C 
BRANCH  14  15
ATOM     15  O   UNL     1      37.252 -23.749 -15.964  0.00  0.00    -0.379 OA
ATOM     16  H   UNL     1      37.835 -23.999 -15.229  0.00  0.00    +0.211 HD
ENDBRANCH  14  15
BRANCH  14  17
ATOM     17  C   UNL     1      36.129 -23.146 -13.920  0.00  0.00    +0.186 C 
BRANCH  17  18
ATOM     18  O   UNL     1      36.741 -24.356 -13.486  0.00  0.00    -0.271 OA
BRANCH  18  19
ATOM     19  P   UNL     1      36.402 -24.897 -12.003  0.00  0.00    +0.473 P 
ATOM     20  O   UNL     1      37.011 -24.108 -10.881  0.00  0.00    -0.227 OA
BRANCH  19  21
ATOM     21  O   UNL     1      36.820 -26.458 -12.056  0.00  0.00    -0.303 OA
ATOM     22  H   UNL     1      37.304 -26.636 -12.878  0.00  0.00    +0.222 HD
ENDBRANCH  19  21
BRANCH  19  23
ATOM     23  O   UNL     1      34.785 -24.945 -12.005  0.00  0.00    -0.303 OA
ATOM     24  H   UNL     1      34.437 -24.138 -11.595  0.00  0.00    +0.222 HD
ENDBRANCH  19  23
ENDBRANCH  18  19
ENDBRANCH  17  18
ENDBRANCH  14  17
ENDBRANCH   1  14
TORSDOF 9
ENDMDL
MODEL 8
REMARK VINA RESULT:      -8.1      8.492     10.936
REMARK  Name = 444150
REMARK  9 active torsions:
REMARK  status: ('A' for Active; 'I' for Inactive)
REMARK    1  A    between atoms: C_1  and  C_3
REMARK    2  A    between atoms: C_1  and  O_12
REMARK    3  A    between atoms: C_1  and  C_14
REMARK    4  A    between atoms: C_14  and  O_15
REMARK    5  A    between atoms: C_14  and  C_17
REMARK    6  A    between atoms: C_17  and  O_18
REMARK    7  A    between atoms: O_18  and  P_19
REMARK    8  A    between atoms: P_19  and  O_21
REMARK    9  A    between atoms: P_19  and  O_23
REMARK                            x       y       z     vdW  Elec       q    Type
REMARK                         _______ _______ _______ _____ _____    ______ ____
ROOT
ATOM      1  C   UNL     1      34.964 -17.664 -22.295  0.00  0.00    +0.163 C 
ENDROOT
BRANCH   1   3
ATOM      2  N   UNL     1      36.767 -20.107 -20.268  0.00  0.00    -0.312 N 
ATOM      3  C   UNL     1      35.435 -18.756 -21.420  0.00  0.00    +0.023 C 
ATOM      4  C   UNL     1      34.625 -19.723 -20.760  0.00  0.00    +0.013 C 
ATOM      5  C   UNL     1      35.486 -20.558 -20.045  0.00  0.00    +0.048 C 
ATOM      6  C   UNL     1      36.746 -19.018 -21.098  0.00  0.00    +0.060 C 
ATOM      7  C   UNL     1      33.239 -19.969 -20.703  0.00  0.00    +0.001 C 
ATOM      8  C   UNL     1      35.028 -21.631 -19.271  0.00  0.00    +0.015 C 
ATOM      9  C   UNL     1      32.766 -21.038 -19.933  0.00  0.00    +0.000 C 
ATOM     10  C   UNL     1      33.649 -21.856 -19.230  0.00  0.00    +0.001 C 
ATOM     11  H   UNL     1      37.581 -20.509 -19.886  0.00  0.00    +0.152 HD
ENDBRANCH   1   3
BRANCH   1  12
ATOM     12  O   UNL     1      35.682 -17.581 -23.547  0.00  0.00    -0.377 OA
ATOM     13  H   UNL     1      36.063 -16.694 -23.643  0.00  0.00    +0.211 HD
ENDBRANCH   1  12
BRANCH   1  14
ATOM     14  C   UNL     1      34.989 -16.232 -21.690  0.00  0.00    +0.172 C 
BRANCH  14  15
ATOM     15  O   UNL     1      34.949 -16.330 -20.265  0.00  0.00    -0.379 OA
ATOM     16  H   UNL     1      35.161 -15.466 -19.876  0.00  0.00    +0.211 HD
ENDBRANCH  14  15
BRANCH  14  17
ATOM     17  C   UNL     1      33.826 -15.365 -22.165  0.00  0.00    +0.186 C 
BRANCH  17  18
ATOM     18  O   UNL     1      34.010 -15.070 -23.546  0.00  0.00    -0.271 OA
BRANCH  18  19
ATOM     19  P   UNL     1      33.206 -13.817 -24.175  0.00  0.00    +0.473 P 
ATOM     20  O   UNL     1      32.712 -14.017 -25.578  0.00  0.00    -0.227 OA
BRANCH  19  21
ATOM     21  O   UNL     1      34.213 -12.569 -23.967  0.00  0.00    -0.303 OA
ATOM     22  H   UNL     1      35.092 -12.803 -24.304  0.00  0.00    +0.222 HD
ENDBRANCH  19  21
BRANCH  19  23
ATOM     23  O   UNL     1      32.051 -13.550 -23.075  0.00  0.00    -0.303 OA
ATOM     24  H   UNL     1      31.486 -14.335 -23.002  0.00  0.00    +0.222 HD
ENDBRANCH  19  23
ENDBRANCH  18  19
ENDBRANCH  17  18
ENDBRANCH  14  17
ENDBRANCH   1  14
TORSDOF 9
ENDMDL
MODEL 9
REMARK VINA RESULT:      -7.9      3.094      4.555
REMARK  Name = 444150
REMARK  9 active torsions:
REMARK  status: ('A' for Active; 'I' for Inactive)
REMARK    1  A    between atoms: C_1  and  C_3
REMARK    2  A    between atoms: C_1  and  O_12
REMARK    3  A    between atoms: C_1  and  C_14
REMARK    4  A    between atoms: C_14  and  O_15
REMARK    5  A    between atoms: C_14  and  C_17
REMARK    6  A    between atoms: C_17  and  O_18
REMARK    7  A    between atoms: O_18  and  P_19
REMARK    8  A    between atoms: P_19  and  O_21
REMARK    9  A    between atoms: P_19  and  O_23
REMARK                            x       y       z     vdW  Elec       q    Type
REMARK                         _______ _______ _______ _____ _____    ______ ____
ROOT
ATOM      1  C   UNL     1      35.184 -23.262 -15.194  0.00  0.00    +0.163 C 
ENDROOT
BRANCH   1   3
ATOM      2  N   UNL     1      32.519 -23.016 -17.678  0.00  0.00    -0.312 N 
ATOM      3  C   UNL     1      33.933 -23.176 -15.974  0.00  0.00    +0.023 C 
ATOM      4  C   UNL     1      32.608 -23.188 -15.456  0.00  0.00    +0.013 C 
ATOM      5  C   UNL     1      31.741 -23.087 -16.545  0.00  0.00    +0.048 C 
ATOM      6  C   UNL     1      33.845 -23.069 -17.343  0.00  0.00    +0.060 C 
ATOM      7  C   UNL     1      32.061 -23.276 -14.160  0.00  0.00    +0.001 C 
ATOM      8  C   UNL     1      30.348 -23.069 -16.404  0.00  0.00    +0.015 C 
ATOM      9  C   UNL     1      30.670 -23.260 -14.003  0.00  0.00    +0.000 C 
ATOM     10  C   UNL     1      29.829 -23.157 -15.109  0.00  0.00    +0.001 C 
ATOM     11  H   UNL     1      32.173 -22.938 -18.597  0.00  0.00    +0.152 HD
ENDBRANCH   1   3
BRANCH   1  12
ATOM     12  O   UNL     1      36.179 -22.294 -15.597  0.00  0.00    -0.377 OA
ATOM     13  H   UNL     1      36.192 -21.560 -14.963  0.00  0.00    +0.211 HD
ENDBRANCH   1  12
BRANCH   1  14
ATOM     14  C   UNL     1      35.903 -24.640 -15.188  0.00  0.00    +0.172 C 
BRANCH  14  15
ATOM     15  O   UNL     1      34.952 -25.658 -14.871  0.00  0.00    -0.379 OA
ATOM     16  H   UNL     1      34.632 -26.067 -15.691  0.00  0.00    +0.211 HD
ENDBRANCH  14  15
BRANCH  14  17
ATOM     17  C   UNL     1      37.057 -24.704 -14.190  0.00  0.00    +0.186 C 
BRANCH  17  18
ATOM     18  O   UNL     1      36.728 -23.905 -13.059  0.00  0.00    -0.271 OA
BRANCH  18  19
ATOM     19  P   UNL     1      36.285 -24.652 -11.696  0.00  0.00    +0.473 P 
ATOM     20  O   UNL     1      36.629 -23.924 -10.430  0.00  0.00    -0.227 OA
BRANCH  19  21
ATOM     21  O   UNL     1      36.925 -26.130 -11.841  0.00  0.00    -0.303 OA
ATOM     22  H   UNL     1      37.743 -26.181 -11.321  0.00  0.00    +0.222 HD
ENDBRANCH  19  21
BRANCH  19  23
ATOM     23  O   UNL     1      34.705 -24.907 -11.931  0.00  0.00    -0.303 OA
ATOM     24  H   UNL     1      34.209 -24.111 -11.685  0.00  0.00    +0.222 HD
ENDBRANCH  19  23
ENDBRANCH  18  19
ENDBRANCH  17  18
ENDBRANCH  14  17
ENDBRANCH   1  14
TORSDOF 9
ENDMDL
