MODEL 1
REMARK VINA RESULT:      -9.8      0.000      0.000
REMARK  Name = 6918305
REMARK  2 active torsions:
REMARK  status: ('A' for Active; 'I' for Inactive)
REMARK    1  A    between atoms: C_10  and  C_22
REMARK    2  A    between atoms: C_17  and  O_24
REMARK                            x       y       z     vdW  Elec       q    Type
REMARK                         _______ _______ _______ _____ _____    ______ ____
ROOT
ATOM      1  C   UNL     1      34.397 -24.565 -14.779  0.00  0.00    +0.000 C 
ATOM      2  C   UNL     1      33.964 -23.295 -15.581  0.00  0.00    +0.000 C 
ATOM      3  C   UNL     1      32.562 -23.533 -16.155  0.00  0.00    +0.000 C 
ATOM      4  C   UNL     1      35.853 -24.425 -14.198  0.00  0.00    +0.000 C 
ATOM      5  C   UNL     1      31.503 -23.806 -15.063  0.00  0.00    +0.007 C 
ATOM      6  C   UNL     1      36.806 -24.123 -15.397  0.00  0.00    +0.002 C 
ATOM      7  C   UNL     1      33.326 -24.986 -13.737  0.00  0.00    +0.000 C 
ATOM      8  C   UNL     1      31.909 -25.091 -14.327  0.00  0.00    +0.000 C 
ATOM      9  C   UNL     1      34.975 -22.963 -16.688  0.00  0.00    +0.000 C 
ATOM     10  C   UNL     1      30.252 -23.936 -15.958  0.00  0.00    +0.058 C 
ATOM     11  C   UNL     1      31.918 -22.449 -17.011  0.00  0.00    +0.000 C 
ATOM     12  C   UNL     1      36.403 -22.854 -16.158  0.00  0.00    +0.000 C 
ATOM     13  C   UNL     1      36.318 -25.761 -13.555  0.00  0.00    +0.002 C 
ATOM     14  C   UNL     1      30.425 -22.823 -17.014  0.00  0.00    +0.007 C 
ATOM     15  C   UNL     1      38.290 -24.083 -14.991  0.00  0.00    +0.027 C 
ATOM     16  C   UNL     1      35.909 -23.316 -13.116  0.00  0.00    +0.000 C 
ATOM     17  C   UNL     1      38.733 -25.389 -14.312  0.00  0.00    +0.088 C 
ATOM     18  C   UNL     1      31.339 -22.649 -14.043  0.00  0.00    +0.000 C 
ATOM     19  C   UNL     1      37.799 -25.769 -13.154  0.00  0.00    +0.027 C 
ATOM     20  C   UNL     1      40.179 -25.273 -13.825  0.00  0.00    +0.029 C 
ENDROOT
BRANCH  10  22
ATOM     21  O   UNL     1      28.565 -24.714 -14.463  0.00  0.00    -0.296 OA
ATOM     22  C   UNL     1      28.951 -23.829 -15.224  0.00  0.00    +0.151 C 
ATOM     23  C   UNL     1      28.141 -22.584 -15.464  0.00  0.00    +0.072 C 
ENDBRANCH  10  22
BRANCH  17  24
ATOM     24  O   UNL     1      38.689 -26.429 -15.296  0.00  0.00    -0.387 OA
ATOM     25  H   UNL     1      38.490 -27.274 -14.865  0.00  0.00    +0.210 HD
ENDBRANCH  17  24
TORSDOF 2
ENDMDL
MODEL 2
REMARK VINA RESULT:      -8.2      1.472      7.188
REMARK  Name = 6918305
REMARK  2 active torsions:
REMARK  status: ('A' for Active; 'I' for Inactive)
REMARK    1  A    between atoms: C_10  and  C_22
REMARK    2  A    between atoms: C_17  and  O_24
REMARK                            x       y       z     vdW  Elec       q    Type
REMARK                         _______ _______ _______ _____ _____    ______ ____
ROOT
ATOM      1  C   UNL     1      33.067 -23.589 -14.437  0.00  0.00    +0.000 C 
ATOM      2  C   UNL     1      34.135 -23.683 -15.576  0.00  0.00    +0.000 C 
ATOM      3  C   UNL     1      35.505 -23.321 -14.991  0.00  0.00    +0.000 C 
ATOM      4  C   UNL     1      31.617 -23.897 -14.967  0.00  0.00    +0.000 C 
ATOM      5  C   UNL     1      35.935 -24.256 -13.838  0.00  0.00    +0.007 C 
ATOM      6  C   UNL     1      31.329 -22.906 -16.139  0.00  0.00    +0.002 C 
ATOM      7  C   UNL     1      33.481 -24.406 -13.185  0.00  0.00    +0.000 C 
ATOM      8  C   UNL     1      34.912 -24.104 -12.704  0.00  0.00    +0.000 C 
ATOM      9  C   UNL     1      33.771 -22.776 -16.759  0.00  0.00    +0.000 C 
ATOM     10  C   UNL     1      37.329 -23.660 -13.542  0.00  0.00    +0.058 C 
ATOM     11  C   UNL     1      36.722 -23.306 -15.909  0.00  0.00    +0.000 C 
ATOM     12  C   UNL     1      32.355 -23.028 -17.272  0.00  0.00    +0.000 C 
ATOM     13  C   UNL     1      30.561 -23.630 -13.858  0.00  0.00    +0.002 C 
ATOM     14  C   UNL     1      37.915 -23.356 -14.937  0.00  0.00    +0.007 C 
ATOM     15  C   UNL     1      29.890 -23.011 -16.674  0.00  0.00    +0.027 C 
ATOM     16  C   UNL     1      31.496 -25.377 -15.412  0.00  0.00    +0.000 C 
ATOM     17  C   UNL     1      28.849 -22.794 -15.565  0.00  0.00    +0.088 C 
ATOM     18  C   UNL     1      36.045 -25.748 -14.248  0.00  0.00    +0.000 C 
ATOM     19  C   UNL     1      29.112 -23.705 -14.357  0.00  0.00    +0.027 C 
ATOM     20  C   UNL     1      27.436 -23.012 -16.109  0.00  0.00    +0.029 C 
ENDROOT
BRANCH  10  22
ATOM     21  O   UNL     1      38.052 -24.695 -11.520  0.00  0.00    -0.296 OA
ATOM     22  C   UNL     1      38.221 -24.545 -12.728  0.00  0.00    +0.151 C 
ATOM     23  C   UNL     1      39.333 -25.243 -13.463  0.00  0.00    +0.072 C 
ENDBRANCH  10  22
BRANCH  17  24
ATOM     24  O   UNL     1      28.943 -21.429 -15.138  0.00  0.00    -0.387 OA
ATOM     25  H   UNL     1      28.190 -20.929 -15.487  0.00  0.00    +0.210 HD
ENDBRANCH  17  24
TORSDOF 2
ENDMDL
MODEL 3
REMARK VINA RESULT:      -8.2     13.881     16.126
REMARK  Name = 6918305
REMARK  2 active torsions:
REMARK  status: ('A' for Active; 'I' for Inactive)
REMARK    1  A    between atoms: C_10  and  C_22
REMARK    2  A    between atoms: C_17  and  O_24
REMARK                            x       y       z     vdW  Elec       q    Type
REMARK                         _______ _______ _______ _____ _____    ______ ____
ROOT
ATOM      1  C   UNL     1      33.166 -11.135 -22.544  0.00  0.00    +0.000 C 
ATOM      2  C   UNL     1      32.075 -10.307 -21.789  0.00  0.00    +0.000 C 
ATOM      3  C   UNL     1      32.460  -8.824 -21.849  0.00  0.00    +0.000 C 
ATOM      4  C   UNL     1      32.873 -12.681 -22.484  0.00  0.00    +0.000 C 
ATOM      5  C   UNL     1      32.569  -8.288 -23.294  0.00  0.00    +0.007 C 
ATOM      6  C   UNL     1      32.759 -13.077 -20.978  0.00  0.00    +0.002 C 
ATOM      7  C   UNL     1      33.429 -10.584 -23.970  0.00  0.00    +0.000 C 
ATOM      8  C   UNL     1      33.686  -9.068 -24.001  0.00  0.00    +0.000 C 
ATOM      9  C   UNL     1      31.912 -10.788 -20.340  0.00  0.00    +0.000 C 
ATOM     10  C   UNL     1      32.900  -6.811 -22.986  0.00  0.00    +0.058 C 
ATOM     11  C   UNL     1      31.569  -7.799 -21.156  0.00  0.00    +0.000 C 
ATOM     12  C   UNL     1      31.661 -12.291 -20.250  0.00  0.00    +0.000 C 
ATOM     13  C   UNL     1      34.056 -13.486 -23.092  0.00  0.00    +0.002 C 
ATOM     14  C   UNL     1      31.989  -6.461 -21.790  0.00  0.00    +0.007 C 
ATOM     15  C   UNL     1      32.596 -14.592 -20.766  0.00  0.00    +0.027 C 
ATOM     16  C   UNL     1      31.587 -13.028 -23.278  0.00  0.00    +0.000 C 
ATOM     17  C   UNL     1      33.744 -15.387 -21.409  0.00  0.00    +0.088 C 
ATOM     18  C   UNL     1      31.254  -8.404 -24.108  0.00  0.00    +0.000 C 
ATOM     19  C   UNL     1      33.942 -15.002 -22.882  0.00  0.00    +0.027 C 
ATOM     20  C   UNL     1      33.493 -16.890 -21.273  0.00  0.00    +0.029 C 
ENDROOT
BRANCH  10  22
ATOM     21  O   UNL     1      33.444  -5.911 -25.126  0.00  0.00    -0.296 OA
ATOM     22  C   UNL     1      32.707  -5.879 -24.141  0.00  0.00    +0.151 C 
ATOM     23  C   UNL     1      31.567  -4.902 -24.040  0.00  0.00    +0.072 C 
ENDBRANCH  10  22
BRANCH  17  24
ATOM     24  O   UNL     1      34.944 -15.081 -20.690  0.00  0.00    -0.387 OA
ATOM     25  H   UNL     1      35.492 -15.877 -20.622  0.00  0.00    +0.210 HD
ENDBRANCH  17  24
TORSDOF 2
ENDMDL
MODEL 4
REMARK VINA RESULT:      -7.6     19.557     21.897
REMARK  Name = 6918305
REMARK  2 active torsions:
REMARK  status: ('A' for Active; 'I' for Inactive)
REMARK    1  A    between atoms: C_10  and  C_22
REMARK    2  A    between atoms: C_17  and  O_24
REMARK                            x       y       z     vdW  Elec       q    Type
REMARK                         _______ _______ _______ _____ _____    ______ ____
ROOT
ATOM      1  C   UNL     1      33.166  -5.689 -24.401  0.00  0.00    +0.000 C 
ATOM      2  C   UNL     1      32.155  -4.569 -24.814  0.00  0.00    +0.000 C 
ATOM      3  C   UNL     1      32.895  -3.538 -25.675  0.00  0.00    +0.000 C 
ATOM      4  C   UNL     1      32.497  -6.766 -23.468  0.00  0.00    +0.000 C 
ATOM      5  C   UNL     1      33.502  -4.147 -26.958  0.00  0.00    +0.007 C 
ATOM      6  C   UNL     1      31.905  -6.013 -22.236  0.00  0.00    +0.002 C 
ATOM      7  C   UNL     1      33.915  -6.275 -25.627  0.00  0.00    +0.000 C 
ATOM      8  C   UNL     1      34.536  -5.199 -26.535  0.00  0.00    +0.000 C 
ATOM      9  C   UNL     1      31.512  -3.917 -23.583  0.00  0.00    +0.000 C 
ATOM     10  C   UNL     1      34.094  -2.866 -27.585  0.00  0.00    +0.058 C 
ATOM     11  C   UNL     1      32.136  -2.318 -26.185  0.00  0.00    +0.000 C 
ATOM     12  C   UNL     1      30.885  -4.942 -22.642  0.00  0.00    +0.000 C 
ATOM     13  C   UNL     1      33.562  -7.768 -22.938  0.00  0.00    +0.002 C 
ATOM     14  C   UNL     1      33.021  -1.788 -27.327  0.00  0.00    +0.007 C 
ATOM     15  C   UNL     1      31.326  -6.962 -21.172  0.00  0.00    +0.027 C 
ATOM     16  C   UNL     1      31.415  -7.566 -24.238  0.00  0.00    +0.000 C 
ATOM     17  C   UNL     1      32.368  -7.981 -20.685  0.00  0.00    +0.088 C 
ATOM     18  C   UNL     1      32.454  -4.795 -27.902  0.00  0.00    +0.000 C 
ATOM     19  C   UNL     1      33.028  -8.719 -21.859  0.00  0.00    +0.027 C 
ATOM     20  C   UNL     1      31.729  -8.974 -19.712  0.00  0.00    +0.029 C 
ENDROOT
BRANCH  10  22
ATOM     21  O   UNL     1      35.356  -3.717 -29.421  0.00  0.00    -0.296 OA
ATOM     22  C   UNL     1      34.442  -2.991 -29.036  0.00  0.00    +0.151 C 
ATOM     23  C   UNL     1      33.616  -2.183 -30.000  0.00  0.00    +0.072 C 
ENDBRANCH  10  22
BRANCH  17  24
ATOM     24  O   UNL     1      33.380  -7.262 -19.969  0.00  0.00    -0.387 OA
ATOM     25  H   UNL     1      33.979  -7.891 -19.539  0.00  0.00    +0.210 HD
ENDBRANCH  17  24
TORSDOF 2
ENDMDL
MODEL 5
REMARK VINA RESULT:      -7.6      3.780      6.873
REMARK  Name = 6918305
REMARK  2 active torsions:
REMARK  status: ('A' for Active; 'I' for Inactive)
REMARK    1  A    between atoms: C_10  and  C_22
REMARK    2  A    between atoms: C_17  and  O_24
REMARK                            x       y       z     vdW  Elec       q    Type
REMARK                         _______ _______ _______ _____ _____    ______ ____
ROOT
ATOM      1  C   UNL     1      34.654 -21.892 -17.590  0.00  0.00    +0.000 C 
ATOM      2  C   UNL     1      36.092 -22.403 -17.247  0.00  0.00    +0.000 C 
ATOM      3  C   UNL     1      36.220 -22.514 -15.724  0.00  0.00    +0.000 C 
ATOM      4  C   UNL     1      34.454 -21.698 -19.139  0.00  0.00    +0.000 C 
ATOM      5  C   UNL     1      35.194 -23.488 -15.102  0.00  0.00    +0.007 C 
ATOM      6  C   UNL     1      35.568 -20.723 -19.635  0.00  0.00    +0.002 C 
ATOM      7  C   UNL     1      33.556 -22.745 -16.901  0.00  0.00    +0.000 C 
ATOM      8  C   UNL     1      33.790 -22.938 -15.392  0.00  0.00    +0.000 C 
ATOM      9  C   UNL     1      37.167 -21.478 -17.836  0.00  0.00    +0.000 C 
ATOM     10  C   UNL     1      35.634 -23.401 -13.624  0.00  0.00    +0.058 C 
ATOM     11  C   UNL     1      37.547 -22.965 -15.123  0.00  0.00    +0.000 C 
ATOM     12  C   UNL     1      36.977 -21.245 -19.333  0.00  0.00    +0.000 C 
ATOM     13  C   UNL     1      33.081 -21.032 -19.435  0.00  0.00    +0.002 C 
ATOM     14  C   UNL     1      37.176 -23.384 -13.689  0.00  0.00    +0.007 C 
ATOM     15  C   UNL     1      35.418 -20.344 -21.119  0.00  0.00    +0.027 C 
ATOM     16  C   UNL     1      34.504 -23.062 -19.875  0.00  0.00    +0.000 C 
ATOM     17  C   UNL     1      34.041 -19.728 -21.416  0.00  0.00    +0.088 C 
ATOM     18  C   UNL     1      35.307 -24.942 -15.631  0.00  0.00    +0.000 C 
ATOM     19  C   UNL     1      32.901 -20.619 -20.902  0.00  0.00    +0.027 C 
ATOM     20  C   UNL     1      33.887 -19.465 -22.915  0.00  0.00    +0.029 C 
ENDROOT
BRANCH  10  22
ATOM     21  O   UNL     1      33.906 -24.698 -12.614  0.00  0.00    -0.296 OA
ATOM     22  C   UNL     1      35.112 -24.504 -12.757  0.00  0.00    +0.151 C 
ATOM     23  C   UNL     1      36.136 -25.366 -12.069  0.00  0.00    +0.072 C 
ENDBRANCH  10  22
BRANCH  17  24
ATOM     24  O   UNL     1      33.973 -18.465 -20.745  0.00  0.00    -0.387 OA
ATOM     25  H   UNL     1      34.825 -18.009 -20.829  0.00  0.00    +0.210 HD
ENDBRANCH  17  24
TORSDOF 2
ENDMDL
MODEL 6
REMARK VINA RESULT:      -7.3     16.865     19.135
REMARK  Name = 6918305
REMARK  2 active torsions:
REMARK  status: ('A' for Active; 'I' for Inactive)
REMARK    1  A    between atoms: C_10  and  C_22
REMARK    2  A    between atoms: C_17  and  O_24
REMARK                            x       y       z     vdW  Elec       q    Type
REMARK                         _______ _______ _______ _____ _____    ______ ____
ROOT
ATOM      1  C   UNL     1      31.807  -8.264 -23.652  0.00  0.00    +0.000 C 
ATOM      2  C   UNL     1      33.108  -7.506 -24.073  0.00  0.00    +0.000 C 
ATOM      3  C   UNL     1      32.727  -6.388 -25.052  0.00  0.00    +0.000 C 
ATOM      4  C   UNL     1      32.116  -9.466 -22.684  0.00  0.00    +0.000 C 
ATOM      5  C   UNL     1      31.739  -5.366 -24.444  0.00  0.00    +0.007 C 
ATOM      6  C   UNL     1      33.141 -10.395 -23.408  0.00  0.00    +0.002 C 
ATOM      7  C   UNL     1      30.709  -7.293 -23.141  0.00  0.00    +0.000 C 
ATOM      8  C   UNL     1      30.445  -6.114 -24.095  0.00  0.00    +0.000 C 
ATOM      9  C   UNL     1      34.138  -8.464 -24.688  0.00  0.00    +0.000 C 
ATOM     10  C   UNL     1      31.627  -4.392 -25.637  0.00  0.00    +0.058 C 
ATOM     11  C   UNL     1      33.827  -5.513 -25.641  0.00  0.00    +0.000 C 
ATOM     12  C   UNL     1      34.432  -9.659 -23.784  0.00  0.00    +0.000 C 
ATOM     13  C   UNL     1      30.832 -10.301 -22.419  0.00  0.00    +0.002 C 
ATOM     14  C   UNL     1      33.069  -4.283 -26.175  0.00  0.00    +0.007 C 
ATOM     15  C   UNL     1      33.441 -11.685 -22.623  0.00  0.00    +0.027 C 
ATOM     16  C   UNL     1      32.655  -8.953 -21.323  0.00  0.00    +0.000 C 
ATOM     17  C   UNL     1      32.163 -12.483 -22.322  0.00  0.00    +0.088 C 
ATOM     18  C   UNL     1      32.281  -4.642 -23.184  0.00  0.00    +0.000 C 
ATOM     19  C   UNL     1      31.093 -11.606 -21.656  0.00  0.00    +0.027 C 
ATOM     20  C   UNL     1      32.486 -13.698 -21.450  0.00  0.00    +0.029 C 
ENDROOT
BRANCH  10  22
ATOM     21  O   UNL     1      29.847  -2.917 -25.051  0.00  0.00    -0.296 OA
ATOM     22  C   UNL     1      31.044  -3.056 -25.293  0.00  0.00    +0.151 C 
ATOM     23  C   UNL     1      31.997  -1.892 -25.256  0.00  0.00    +0.072 C 
ENDBRANCH  10  22
BRANCH  17  24
ATOM     24  O   UNL     1      31.648 -12.968 -23.568  0.00  0.00    -0.387 OA
ATOM     25  H   UNL     1      30.691 -12.817 -23.603  0.00  0.00    +0.210 HD
ENDBRANCH  17  24
TORSDOF 2
ENDMDL
MODEL 7
REMARK VINA RESULT:      -7.2     14.697     17.477
REMARK  Name = 6918305
REMARK  2 active torsions:
REMARK  status: ('A' for Active; 'I' for Inactive)
REMARK    1  A    between atoms: C_10  and  C_22
REMARK    2  A    between atoms: C_17  and  O_24
REMARK                            x       y       z     vdW  Elec       q    Type
REMARK                         _______ _______ _______ _____ _____    ______ ____
ROOT
ATOM      1  C   UNL     1      32.447  -9.539 -23.409  0.00  0.00    +0.000 C 
ATOM      2  C   UNL     1      32.552 -10.323 -22.060  0.00  0.00    +0.000 C 
ATOM      3  C   UNL     1      32.192 -11.790 -22.319  0.00  0.00    +0.000 C 
ATOM      4  C   UNL     1      32.752  -8.006 -23.222  0.00  0.00    +0.000 C 
ATOM      5  C   UNL     1      33.122 -12.466 -23.351  0.00  0.00    +0.007 C 
ATOM      6  C   UNL     1      31.767  -7.464 -22.139  0.00  0.00    +0.002 C 
ATOM      7  C   UNL     1      33.259 -10.222 -24.542  0.00  0.00    +0.000 C 
ATOM      8  C   UNL     1      32.960 -11.725 -24.686  0.00  0.00    +0.000 C 
ATOM      9  C   UNL     1      31.650  -9.704 -20.984  0.00  0.00    +0.000 C 
ATOM     10  C   UNL     1      32.530 -13.892 -23.323  0.00  0.00    +0.058 C 
ATOM     11  C   UNL     1      32.188 -12.769 -21.150  0.00  0.00    +0.000 C 
ATOM     12  C   UNL     1      31.900  -8.208 -20.804  0.00  0.00    +0.000 C 
ATOM     13  C   UNL     1      32.475  -7.227 -24.539  0.00  0.00    +0.002 C 
ATOM     14  C   UNL     1      32.237 -14.150 -21.829  0.00  0.00    +0.007 C 
ATOM     15  C   UNL     1      31.868  -5.941 -21.942  0.00  0.00    +0.027 C 
ATOM     16  C   UNL     1      34.234  -7.784 -22.825  0.00  0.00    +0.000 C 
ATOM     17  C   UNL     1      31.641  -5.177 -23.256  0.00  0.00    +0.088 C 
ATOM     18  C   UNL     1      34.617 -12.477 -22.938  0.00  0.00    +0.000 C 
ATOM     19  C   UNL     1      32.546  -5.703 -24.379  0.00  0.00    +0.027 C 
ATOM     20  C   UNL     1      31.856  -3.677 -23.045  0.00  0.00    +0.029 C 
ENDROOT
BRANCH  10  22
ATOM     21  O   UNL     1      33.538 -15.066 -25.137  0.00  0.00    -0.296 OA
ATOM     22  C   UNL     1      33.414 -14.942 -23.920  0.00  0.00    +0.151 C 
ATOM     23  C   UNL     1      34.145 -15.839 -22.957  0.00  0.00    +0.072 C 
ENDBRANCH  10  22
BRANCH  17  24
ATOM     24  O   UNL     1      30.274  -5.369 -23.641  0.00  0.00    -0.387 OA
ATOM     25  H   UNL     1      29.774  -5.723 -22.890  0.00  0.00    +0.210 HD
ENDBRANCH  17  24
TORSDOF 2
ENDMDL
MODEL 8
REMARK VINA RESULT:      -7.2     13.044     15.314
REMARK  Name = 6918305
REMARK  2 active torsions:
REMARK  status: ('A' for Active; 'I' for Inactive)
REMARK    1  A    between atoms: C_10  and  C_22
REMARK    2  A    between atoms: C_17  and  O_24
REMARK                            x       y       z     vdW  Elec       q    Type
REMARK                         _______ _______ _______ _____ _____    ______ ____
ROOT
ATOM      1  C   UNL     1      33.403 -12.111 -23.014  0.00  0.00    +0.000 C 
ATOM      2  C   UNL     1      32.353 -11.787 -21.902  0.00  0.00    +0.000 C 
ATOM      3  C   UNL     1      32.603 -10.361 -21.396  0.00  0.00    +0.000 C 
ATOM      4  C   UNL     1      33.250 -13.582 -23.554  0.00  0.00    +0.000 C 
ATOM      5  C   UNL     1      32.482  -9.296 -22.509  0.00  0.00    +0.007 C 
ATOM      6  C   UNL     1      33.363 -14.543 -22.328  0.00  0.00    +0.002 C 
ATOM      7  C   UNL     1      33.435 -11.021 -24.118  0.00  0.00    +0.000 C 
ATOM      8  C   UNL     1      33.560  -9.592 -23.561  0.00  0.00    +0.000 C 
ATOM      9  C   UNL     1      32.418 -12.809 -20.758  0.00  0.00    +0.000 C 
ATOM     10  C   UNL     1      32.726  -8.026 -21.665  0.00  0.00    +0.058 C 
ATOM     11  C   UNL     1      31.727  -9.808 -20.278  0.00  0.00    +0.000 C 
ATOM     12  C   UNL     1      32.306 -14.247 -21.256  0.00  0.00    +0.000 C 
ATOM     13  C   UNL     1      34.408 -13.931 -24.531  0.00  0.00    +0.002 C 
ATOM     14  C   UNL     1      31.950  -8.287 -20.356  0.00  0.00    +0.007 C 
ATOM     15  C   UNL     1      33.354 -16.029 -22.727  0.00  0.00    +0.027 C 
ATOM     16  C   UNL     1      31.906 -13.754 -24.308  0.00  0.00    +0.000 C 
ATOM     17  C   UNL     1      34.472 -16.359 -23.729  0.00  0.00    +0.088 C 
ATOM     18  C   UNL     1      31.087  -9.253 -23.187  0.00  0.00    +0.000 C 
ATOM     19  C   UNL     1      34.447 -15.410 -24.936  0.00  0.00    +0.027 C 
ATOM     20  C   UNL     1      34.366 -17.816 -24.185  0.00  0.00    +0.029 C 
ENDROOT
BRANCH  10  22
ATOM     21  O   UNL     1      32.819  -6.379 -23.387  0.00  0.00    -0.296 OA
ATOM     22  C   UNL     1      32.311  -6.751 -22.331  0.00  0.00    +0.151 C 
ATOM     23  C   UNL     1      31.239  -5.948 -21.644  0.00  0.00    +0.072 C 
ENDBRANCH  10  22
BRANCH  17  24
ATOM     24  O   UNL     1      35.725 -16.207 -23.052  0.00  0.00    -0.387 OA
ATOM     25  H   UNL     1      35.880 -16.976 -22.484  0.00  0.00    +0.210 HD
ENDBRANCH  17  24
TORSDOF 2
ENDMDL
