MODEL 1
REMARK VINA RESULT:      -9.2      0.000      0.000
REMARK  Name = 448725
REMARK  4 active torsions:
REMARK  status: ('A' for Active; 'I' for Inactive)
REMARK    1  A    between atoms: C_4  and  C_14
REMARK    2  A    between atoms: C_5  and  O_17
REMARK    3  A    between atoms: O_17  and  C_19
REMARK    4  A    between atoms: C_18  and  C_20
REMARK                            x       y       z     vdW  Elec       q    Type
REMARK                         _______ _______ _______ _____ _____    ______ ____
ROOT
ATOM      1  F   UNL     1      33.373 -11.812 -24.941  0.00  0.00    -0.204 F 
ATOM      2  O   UNL     1      34.766 -19.216 -23.868  0.00  0.00    -0.267 OA
ATOM      3  N   UNL     1      34.122 -17.280 -24.903  0.00  0.00    -0.321 N 
ATOM      4  C   UNL     1      34.820 -17.233 -22.557  0.00  0.00    +0.069 A 
ATOM      5  C   UNL     1      34.610 -15.904 -22.518  0.00  0.00    +0.160 A 
ATOM      6  C   UNL     1      34.158 -15.164 -23.713  0.00  0.00    +0.053 A 
ATOM      7  C   UNL     1      33.912 -15.893 -24.886  0.00  0.00    +0.062 A 
ATOM      8  C   UNL     1      34.574 -18.001 -23.821  0.00  0.00    +0.257 A 
ATOM      9  C   UNL     1      33.978 -13.773 -23.756  0.00  0.00    +0.034 C 
ATOM     10  C   UNL     1      33.475 -15.265 -26.057  0.00  0.00    +0.019 C 
ATOM     11  C   UNL     1      33.543 -13.141 -24.926  0.00  0.00    +0.140 C 
ATOM     12  C   UNL     1      33.287 -13.886 -26.074  0.00  0.00    +0.031 C 
ATOM     13  H   UNL     1      33.933 -17.767 -25.738  0.00  0.00    +0.169 HD
ENDROOT
BRANCH   4  14
ATOM     14  C   UNL     1      35.283 -18.046 -21.381  0.00  0.00    +0.030 C 
ATOM     15  C   UNL     1      34.236 -19.095 -21.023  0.00  0.00    +0.005 C 
ATOM     16  C   UNL     1      36.632 -18.695 -21.673  0.00  0.00    +0.005 C 
ENDBRANCH   4  14
BRANCH   5  17
ATOM     17  O   UNL     1      34.802 -15.203 -21.341  0.00  0.00    -0.405 OA
BRANCH  17  19
ATOM     18  C   UNL     1      32.774 -13.790 -20.851  0.00  0.00    -0.050 C 
ATOM     19  C   UNL     1      33.740 -14.464 -21.086  0.00  0.00    +0.118 C 
BRANCH  18  20
ATOM     20  C   UNL     1      31.615 -12.980 -20.572  0.00  0.00    +0.067 C 
ATOM     21  C   UNL     1      31.812 -11.645 -19.924  0.00  0.00    +0.014 C 
ATOM     22  C   UNL     1      31.405 -11.729 -21.366  0.00  0.00    +0.014 C 
ENDBRANCH  18  20
ENDBRANCH  17  19
ENDBRANCH   5  17
TORSDOF 4
ENDMDL
MODEL 2
REMARK VINA RESULT:      -9.0      2.023      4.577
REMARK  Name = 448725
REMARK  4 active torsions:
REMARK  status: ('A' for Active; 'I' for Inactive)
REMARK    1  A    between atoms: C_4  and  C_14
REMARK    2  A    between atoms: C_5  and  O_17
REMARK    3  A    between atoms: O_17  and  C_19
REMARK    4  A    between atoms: C_18  and  C_20
REMARK                            x       y       z     vdW  Elec       q    Type
REMARK                         _______ _______ _______ _____ _____    ______ ____
ROOT
ATOM      1  F   UNL     1      32.243 -13.038 -19.648  0.00  0.00    -0.204 F 
ATOM      2  O   UNL     1      34.687 -16.703 -25.853  0.00  0.00    -0.267 OA
ATOM      3  N   UNL     1      33.571 -15.185 -24.557  0.00  0.00    -0.321 N 
ATOM      4  C   UNL     1      34.884 -16.960 -23.497  0.00  0.00    +0.069 A 
ATOM      5  C   UNL     1      34.547 -16.488 -22.282  0.00  0.00    +0.160 A 
ATOM      6  C   UNL     1      33.703 -15.285 -22.134  0.00  0.00    +0.053 A 
ATOM      7  C   UNL     1      33.223 -14.668 -23.299  0.00  0.00    +0.062 A 
ATOM      8  C   UNL     1      34.383 -16.282 -24.738  0.00  0.00    +0.257 A 
ATOM      9  C   UNL     1      33.366 -14.708 -20.901  0.00  0.00    +0.034 C 
ATOM     10  C   UNL     1      32.411 -13.531 -23.240  0.00  0.00    +0.019 C 
ATOM     11  C   UNL     1      32.555 -13.569 -20.838  0.00  0.00    +0.140 C 
ATOM     12  C   UNL     1      32.075 -12.984 -22.006  0.00  0.00    +0.031 C 
ATOM     13  H   UNL     1      33.213 -14.737 -25.356  0.00  0.00    +0.169 HD
ENDROOT
BRANCH   4  14
ATOM     14  C   UNL     1      35.742 -18.173 -23.720  0.00  0.00    +0.030 C 
ATOM     15  C   UNL     1      36.685 -18.374 -22.540  0.00  0.00    +0.005 C 
ATOM     16  C   UNL     1      34.878 -19.408 -23.949  0.00  0.00    +0.005 C 
ENDBRANCH   4  14
BRANCH   5  17
ATOM     17  O   UNL     1      34.981 -17.135 -21.140  0.00  0.00    -0.405 OA
BRANCH  17  19
ATOM     18  C   UNL     1      33.673 -19.268 -20.828  0.00  0.00    -0.050 C 
ATOM     19  C   UNL     1      34.296 -18.252 -20.976  0.00  0.00    +0.118 C 
BRANCH  18  20
ATOM     20  C   UNL     1      32.927 -20.487 -20.651  0.00  0.00    +0.067 C 
ATOM     21  C   UNL     1      33.596 -21.648 -19.984  0.00  0.00    +0.014 C 
ATOM     22  C   UNL     1      32.522 -20.886 -19.266  0.00  0.00    +0.014 C 
ENDBRANCH  18  20
ENDBRANCH  17  19
ENDBRANCH   5  17
TORSDOF 4
ENDMDL
MODEL 3
REMARK VINA RESULT:      -8.9      7.354      9.909
REMARK  Name = 448725
REMARK  4 active torsions:
REMARK  status: ('A' for Active; 'I' for Inactive)
REMARK    1  A    between atoms: C_4  and  C_14
REMARK    2  A    between atoms: C_5  and  O_17
REMARK    3  A    between atoms: O_17  and  C_19
REMARK    4  A    between atoms: C_18  and  C_20
REMARK                            x       y       z     vdW  Elec       q    Type
REMARK                         _______ _______ _______ _____ _____    ______ ____
ROOT
ATOM      1  F   UNL     1      34.078 -20.502 -21.343  0.00  0.00    -0.204 F 
ATOM      2  O   UNL     1      37.720 -22.855 -15.089  0.00  0.00    -0.267 OA
ATOM      3  N   UNL     1      37.310 -21.737 -17.042  0.00  0.00    -0.321 N 
ATOM      4  C   UNL     1      35.685 -23.367 -16.207  0.00  0.00    +0.069 A 
ATOM      5  C   UNL     1      34.890 -23.121 -17.264  0.00  0.00    +0.160 A 
ATOM      6  C   UNL     1      35.259 -22.118 -18.284  0.00  0.00    +0.053 A 
ATOM      7  C   UNL     1      36.487 -21.455 -18.143  0.00  0.00    +0.062 A 
ATOM      8  C   UNL     1      36.987 -22.640 -16.053  0.00  0.00    +0.257 A 
ATOM      9  C   UNL     1      34.449 -21.772 -19.375  0.00  0.00    +0.034 C 
ATOM     10  C   UNL     1      36.910 -20.499 -19.071  0.00  0.00    +0.019 C 
ATOM     11  C   UNL     1      34.867 -20.814 -20.305  0.00  0.00    +0.140 C 
ATOM     12  C   UNL     1      36.098 -20.180 -20.156  0.00  0.00    +0.031 C 
ATOM     13  H   UNL     1      38.170 -21.263 -16.973  0.00  0.00    +0.169 HD
ENDROOT
BRANCH   4  14
ATOM     14  C   UNL     1      35.370 -24.369 -15.132  0.00  0.00    +0.030 C 
ATOM     15  C   UNL     1      36.400 -25.493 -15.142  0.00  0.00    +0.005 C 
ATOM     16  C   UNL     1      35.310 -23.693 -13.767  0.00  0.00    +0.005 C 
ENDBRANCH   4  14
BRANCH   5  17
ATOM     17  O   UNL     1      33.707 -23.820 -17.423  0.00  0.00    -0.405 OA
BRANCH  17  19
ATOM     18  C   UNL     1      32.042 -23.080 -15.681  0.00  0.00    -0.050 C 
ATOM     19  C   UNL     1      32.836 -23.431 -16.511  0.00  0.00    +0.118 C 
BRANCH  18  20
ATOM     20  C   UNL     1      31.091 -22.659 -14.685  0.00  0.00    +0.067 C 
ATOM     21  C   UNL     1      29.631 -22.836 -14.966  0.00  0.00    +0.014 C 
ATOM     22  C   UNL     1      30.312 -23.704 -13.949  0.00  0.00    +0.014 C 
ENDBRANCH  18  20
ENDBRANCH  17  19
ENDBRANCH   5  17
TORSDOF 4
ENDMDL
MODEL 4
REMARK VINA RESULT:      -8.9      7.844     10.902
REMARK  Name = 448725
REMARK  4 active torsions:
REMARK  status: ('A' for Active; 'I' for Inactive)
REMARK    1  A    between atoms: C_4  and  C_14
REMARK    2  A    between atoms: C_5  and  O_17
REMARK    3  A    between atoms: O_17  and  C_19
REMARK    4  A    between atoms: C_18  and  C_20
REMARK                            x       y       z     vdW  Elec       q    Type
REMARK                         _______ _______ _______ _____ _____    ______ ____
ROOT
ATOM      1  F   UNL     1      28.762 -23.034 -17.251  0.00  0.00    -0.204 F 
ATOM      2  O   UNL     1      35.216 -23.491 -13.244  0.00  0.00    -0.267 OA
ATOM      3  N   UNL     1      33.006 -23.146 -13.723  0.00  0.00    -0.321 N 
ATOM      4  C   UNL     1      34.574 -23.679 -15.526  0.00  0.00    +0.069 A 
ATOM      5  C   UNL     1      33.570 -23.620 -16.421  0.00  0.00    +0.160 A 
ATOM      6  C   UNL     1      32.183 -23.341 -15.999  0.00  0.00    +0.053 A 
ATOM      7  C   UNL     1      31.943 -23.097 -14.638  0.00  0.00    +0.062 A 
ATOM      8  C   UNL     1      34.306 -23.436 -14.071  0.00  0.00    +0.257 A 
ATOM      9  C   UNL     1      31.084 -23.325 -16.870  0.00  0.00    +0.034 C 
ATOM     10  C   UNL     1      30.659 -22.817 -14.163  0.00  0.00    +0.019 C 
ATOM     11  C   UNL     1      29.796 -23.048 -16.398  0.00  0.00    +0.140 C 
ATOM     12  C   UNL     1      29.584 -22.791 -15.047  0.00  0.00    +0.031 C 
ATOM     13  H   UNL     1      32.810 -22.962 -12.776  0.00  0.00    +0.169 HD
ENDROOT
BRANCH   4  14
ATOM     14  C   UNL     1      36.005 -23.962 -15.885  0.00  0.00    +0.030 C 
ATOM     15  C   UNL     1      36.840 -22.693 -15.759  0.00  0.00    +0.005 C 
ATOM     16  C   UNL     1      36.569 -25.078 -15.012  0.00  0.00    +0.005 C 
ENDBRANCH   4  14
BRANCH   5  17
ATOM     17  O   UNL     1      33.826 -23.809 -17.767  0.00  0.00    -0.405 OA
BRANCH  17  19
ATOM     18  C   UNL     1      33.602 -21.615 -18.989  0.00  0.00    -0.050 C 
ATOM     19  C   UNL     1      33.710 -22.660 -18.406  0.00  0.00    +0.118 C 
BRANCH  18  20
ATOM     20  C   UNL     1      33.473 -20.362 -19.687  0.00  0.00    +0.067 C 
ATOM     21  C   UNL     1      34.211 -20.178 -20.976  0.00  0.00    +0.014 C 
ATOM     22  C   UNL     1      32.719 -20.335 -20.980  0.00  0.00    +0.014 C 
ENDBRANCH  18  20
ENDBRANCH  17  19
ENDBRANCH   5  17
TORSDOF 4
ENDMDL
MODEL 5
REMARK VINA RESULT:      -8.7      8.076     11.353
REMARK  Name = 448725
REMARK  4 active torsions:
REMARK  status: ('A' for Active; 'I' for Inactive)
REMARK    1  A    between atoms: C_4  and  C_14
REMARK    2  A    between atoms: C_5  and  O_17
REMARK    3  A    between atoms: O_17  and  C_19
REMARK    4  A    between atoms: C_18  and  C_20
REMARK                            x       y       z     vdW  Elec       q    Type
REMARK                         _______ _______ _______ _____ _____    ______ ____
ROOT
ATOM      1  F   UNL     1      38.447 -23.394 -15.934  0.00  0.00    -0.204 F 
ATOM      2  O   UNL     1      31.198 -23.361 -13.619  0.00  0.00    -0.267 OA
ATOM      3  N   UNL     1      33.483 -23.325 -13.522  0.00  0.00    -0.321 N 
ATOM      4  C   UNL     1      32.360 -23.618 -15.678  0.00  0.00    +0.069 A 
ATOM      5  C   UNL     1      33.554 -23.680 -16.295  0.00  0.00    +0.160 A 
ATOM      6  C   UNL     1      34.815 -23.534 -15.541  0.00  0.00    +0.053 A 
ATOM      7  C   UNL     1      34.737 -23.370 -14.150  0.00  0.00    +0.062 A 
ATOM      8  C   UNL     1      32.284 -23.422 -14.193  0.00  0.00    +0.257 A 
ATOM      9  C   UNL     1      36.088 -23.529 -16.130  0.00  0.00    +0.034 C 
ATOM     10  C   UNL     1      35.887 -23.234 -13.365  0.00  0.00    +0.019 C 
ATOM     11  C   UNL     1      37.241 -23.391 -15.349  0.00  0.00    +0.140 C 
ATOM     12  C   UNL     1      37.141 -23.247 -13.968  0.00  0.00    +0.031 C 
ATOM     13  H   UNL     1      33.458 -23.217 -12.544  0.00  0.00    +0.169 HD
ENDROOT
BRANCH   4  14
ATOM     14  C   UNL     1      31.040 -23.753 -16.383  0.00  0.00    +0.030 C 
ATOM     15  C   UNL     1      30.224 -24.879 -15.759  0.00  0.00    +0.005 C 
ATOM     16  C   UNL     1      30.273 -22.436 -16.350  0.00  0.00    +0.005 C 
ENDBRANCH   4  14
BRANCH   5  17
ATOM     17  O   UNL     1      33.622 -23.897 -17.659  0.00  0.00    -0.405 OA
BRANCH  17  19
ATOM     18  C   UNL     1      33.360 -21.708 -18.881  0.00  0.00    -0.050 C 
ATOM     19  C   UNL     1      33.484 -22.751 -18.299  0.00  0.00    +0.118 C 
BRANCH  18  20
ATOM     20  C   UNL     1      33.211 -20.457 -19.580  0.00  0.00    +0.067 C 
ATOM     21  C   UNL     1      34.165 -20.136 -20.688  0.00  0.00    +0.014 C 
ATOM     22  C   UNL     1      32.739 -20.480 -21.000  0.00  0.00    +0.014 C 
ENDBRANCH  18  20
ENDBRANCH  17  19
ENDBRANCH   5  17
TORSDOF 4
ENDMDL
MODEL 6
REMARK VINA RESULT:      -8.7      5.791      8.945
REMARK  Name = 448725
REMARK  4 active torsions:
REMARK  status: ('A' for Active; 'I' for Inactive)
REMARK    1  A    between atoms: C_4  and  C_14
REMARK    2  A    between atoms: C_5  and  O_17
REMARK    3  A    between atoms: O_17  and  C_19
REMARK    4  A    between atoms: C_18  and  C_20
REMARK                            x       y       z     vdW  Elec       q    Type
REMARK                         _______ _______ _______ _____ _____    ______ ____
ROOT
ATOM      1  F   UNL     1      31.466 -13.375 -21.182  0.00  0.00    -0.204 F 
ATOM      2  O   UNL     1      32.412  -5.898 -20.129  0.00  0.00    -0.267 OA
ATOM      3  N   UNL     1      32.119  -8.114 -19.645  0.00  0.00    -0.321 N 
ATOM      4  C   UNL     1      32.094  -7.363 -21.975  0.00  0.00    +0.069 A 
ATOM      5  C   UNL     1      31.894  -8.630 -22.385  0.00  0.00    +0.160 A 
ATOM      6  C   UNL     1      31.822  -9.745 -21.419  0.00  0.00    +0.053 A 
ATOM      7  C   UNL     1      31.927  -9.443 -20.053  0.00  0.00    +0.062 A 
ATOM      8  C   UNL     1      32.225  -7.052 -20.514  0.00  0.00    +0.257 A 
ATOM      9  C   UNL     1      31.676 -11.092 -21.783  0.00  0.00    +0.034 C 
ATOM     10  C   UNL     1      31.860 -10.443 -19.078  0.00  0.00    +0.019 C 
ATOM     11  C   UNL     1      31.611 -12.096 -20.811  0.00  0.00    +0.140 C 
ATOM     12  C   UNL     1      31.699 -11.772 -19.460  0.00  0.00    +0.031 C 
ATOM     13  H   UNL     1      32.181  -7.931 -18.680  0.00  0.00    +0.169 HD
ENDROOT
BRANCH   4  14
ATOM     14  C   UNL     1      32.182  -6.184 -22.902  0.00  0.00    +0.030 C 
ATOM     15  C   UNL     1      33.342  -6.363 -23.874  0.00  0.00    +0.005 C 
ATOM     16  C   UNL     1      30.867  -5.986 -23.648  0.00  0.00    +0.005 C 
ENDBRANCH   4  14
BRANCH   5  17
ATOM     17  O   UNL     1      31.737  -8.909 -23.730  0.00  0.00    -0.405 OA
BRANCH  17  19
ATOM     18  C   UNL     1      33.775 -10.116 -24.591  0.00  0.00    -0.050 C 
ATOM     19  C   UNL     1      32.805  -9.541 -24.180  0.00  0.00    +0.118 C 
BRANCH  18  20
ATOM     20  C   UNL     1      34.940 -10.805 -25.085  0.00  0.00    +0.067 C 
ATOM     21  C   UNL     1      34.903 -11.378 -26.467  0.00  0.00    +0.014 C 
ATOM     22  C   UNL     1      35.741 -10.168 -26.178  0.00  0.00    +0.014 C 
ENDBRANCH  18  20
ENDBRANCH  17  19
ENDBRANCH   5  17
TORSDOF 4
ENDMDL
MODEL 7
REMARK VINA RESULT:      -8.6      5.686      8.369
REMARK  Name = 448725
REMARK  4 active torsions:
REMARK  status: ('A' for Active; 'I' for Inactive)
REMARK    1  A    between atoms: C_4  and  C_14
REMARK    2  A    between atoms: C_5  and  O_17
REMARK    3  A    between atoms: O_17  and  C_19
REMARK    4  A    between atoms: C_18  and  C_20
REMARK                            x       y       z     vdW  Elec       q    Type
REMARK                         _______ _______ _______ _____ _____    ______ ____
ROOT
ATOM      1  F   UNL     1      35.890 -10.908 -26.839  0.00  0.00    -0.204 F 
ATOM      2  O   UNL     1      31.404  -9.435 -20.871  0.00  0.00    -0.267 OA
ATOM      3  N   UNL     1      32.359 -10.574 -22.610  0.00  0.00    -0.321 N 
ATOM      4  C   UNL     1      32.955  -8.232 -22.215  0.00  0.00    +0.069 A 
ATOM      5  C   UNL     1      33.795  -8.265 -23.265  0.00  0.00    +0.160 A 
ATOM      6  C   UNL     1      33.991  -9.500 -24.051  0.00  0.00    +0.053 A 
ATOM      7  C   UNL     1      33.243 -10.632 -23.698  0.00  0.00    +0.062 A 
ATOM      8  C   UNL     1      32.173  -9.453 -21.832  0.00  0.00    +0.257 A 
ATOM      9  C   UNL     1      34.895  -9.618 -25.118  0.00  0.00    +0.034 C 
ATOM     10  C   UNL     1      33.367 -11.836 -24.399  0.00  0.00    +0.019 C 
ATOM     11  C   UNL     1      35.024 -10.821 -25.821  0.00  0.00    +0.140 C 
ATOM     12  C   UNL     1      34.258 -11.927 -25.465  0.00  0.00    +0.031 C 
ATOM     13  H   UNL     1      31.841 -11.381 -22.390  0.00  0.00    +0.169 HD
ENDROOT
BRANCH   4  14
ATOM     14  C   UNL     1      32.711  -7.013 -21.370  0.00  0.00    +0.030 C 
ATOM     15  C   UNL     1      31.380  -6.371 -21.745  0.00  0.00    +0.005 C 
ATOM     16  C   UNL     1      32.749  -7.368 -19.888  0.00  0.00    +0.005 C 
ENDBRANCH   4  14
BRANCH   5  17
ATOM     17  O   UNL     1      34.487  -7.127 -23.639  0.00  0.00    -0.405 OA
BRANCH  17  19
ATOM     18  C   UNL     1      33.042  -5.711 -25.143  0.00  0.00    -0.050 C 
ATOM     19  C   UNL     1      33.731  -6.386 -24.427  0.00  0.00    +0.118 C 
BRANCH  18  20
ATOM     20  C   UNL     1      32.217  -4.900 -26.001  0.00  0.00    +0.067 C 
ATOM     21  C   UNL     1      31.310  -3.887 -25.377  0.00  0.00    +0.014 C 
ATOM     22  C   UNL     1      32.529  -3.442 -26.128  0.00  0.00    +0.014 C 
ENDBRANCH  18  20
ENDBRANCH  17  19
ENDBRANCH   5  17
TORSDOF 4
ENDMDL
MODEL 8
REMARK VINA RESULT:      -8.5      9.072     11.302
REMARK  Name = 448725
REMARK  4 active torsions:
REMARK  status: ('A' for Active; 'I' for Inactive)
REMARK    1  A    between atoms: C_4  and  C_14
REMARK    2  A    between atoms: C_5  and  O_17
REMARK    3  A    between atoms: O_17  and  C_19
REMARK    4  A    between atoms: C_18  and  C_20
REMARK                            x       y       z     vdW  Elec       q    Type
REMARK                         _______ _______ _______ _____ _____    ______ ____
ROOT
ATOM      1  F   UNL     1      33.544 -22.370 -19.558  0.00  0.00    -0.204 F 
ATOM      2  O   UNL     1      37.927 -23.058 -13.375  0.00  0.00    -0.267 OA
ATOM      3  N   UNL     1      37.244 -22.418 -15.462  0.00  0.00    -0.321 N 
ATOM      4  C   UNL     1      35.857 -23.943 -14.140  0.00  0.00    +0.069 A 
ATOM      5  C   UNL     1      34.952 -23.986 -15.135  0.00  0.00    +0.160 A 
ATOM      6  C   UNL     1      35.135 -23.202 -16.374  0.00  0.00    +0.053 A 
ATOM      7  C   UNL     1      36.304 -22.439 -16.504  0.00  0.00    +0.062 A 
ATOM      8  C   UNL     1      37.095 -23.108 -14.280  0.00  0.00    +0.257 A 
ATOM      9  C   UNL     1      34.203 -23.157 -17.421  0.00  0.00    +0.034 C 
ATOM     10  C   UNL     1      36.553 -21.676 -17.650  0.00  0.00    +0.019 C 
ATOM     11  C   UNL     1      34.447 -22.394 -18.568  0.00  0.00    +0.140 C 
ATOM     12  C   UNL     1      35.622 -21.657 -18.684  0.00  0.00    +0.031 C 
ATOM     13  H   UNL     1      38.060 -21.880 -15.585  0.00  0.00    +0.169 HD
ENDROOT
BRANCH   4  14
ATOM     14  C   UNL     1      35.731 -24.710 -12.855  0.00  0.00    +0.030 C 
ATOM     15  C   UNL     1      36.898 -25.679 -12.705  0.00  0.00    +0.005 C 
ATOM     16  C   UNL     1      35.654 -23.759 -11.665  0.00  0.00    +0.005 C 
ENDBRANCH   4  14
BRANCH   5  17
ATOM     17  O   UNL     1      33.829 -24.785 -15.020  0.00  0.00    -0.405 OA
BRANCH  17  19
ATOM     18  C   UNL     1      31.759 -23.347 -15.020  0.00  0.00    -0.050 C 
ATOM     19  C   UNL     1      32.745 -24.032 -15.019  0.00  0.00    +0.118 C 
BRANCH  18  20
ATOM     20  C   UNL     1      30.575 -22.527 -15.020  0.00  0.00    +0.067 C 
ATOM     21  C   UNL     1      29.740 -22.471 -16.260  0.00  0.00    +0.014 C 
ATOM     22  C   UNL     1      29.237 -23.198 -15.048  0.00  0.00    +0.014 C 
ENDBRANCH  18  20
ENDBRANCH  17  19
ENDBRANCH   5  17
TORSDOF 4
ENDMDL
MODEL 9
REMARK VINA RESULT:      -8.5      8.378     11.416
REMARK  Name = 448725
REMARK  4 active torsions:
REMARK  status: ('A' for Active; 'I' for Inactive)
REMARK    1  A    between atoms: C_4  and  C_14
REMARK    2  A    between atoms: C_5  and  O_17
REMARK    3  A    between atoms: O_17  and  C_19
REMARK    4  A    between atoms: C_18  and  C_20
REMARK                            x       y       z     vdW  Elec       q    Type
REMARK                         _______ _______ _______ _____ _____    ______ ____
ROOT
ATOM      1  F   UNL     1      37.133 -21.451 -19.507  0.00  0.00    -0.204 F 
ATOM      2  O   UNL     1      30.657 -23.625 -16.155  0.00  0.00    -0.267 OA
ATOM      3  N   UNL     1      32.092 -22.881 -17.773  0.00  0.00    -0.321 N 
ATOM      4  C   UNL     1      32.911 -23.251 -15.495  0.00  0.00    +0.069 A 
ATOM      5  C   UNL     1      34.145 -22.869 -15.873  0.00  0.00    +0.160 A 
ATOM      6  C   UNL     1      34.435 -22.488 -17.270  0.00  0.00    +0.053 A 
ATOM      7  C   UNL     1      33.376 -22.495 -18.190  0.00  0.00    +0.062 A 
ATOM      8  C   UNL     1      31.788 -23.274 -16.489  0.00  0.00    +0.257 A 
ATOM      9  C   UNL     1      35.709 -22.139 -17.742  0.00  0.00    +0.034 C 
ATOM     10  C   UNL     1      33.569 -22.140 -19.528  0.00  0.00    +0.019 C 
ATOM     11  C   UNL     1      35.908 -21.785 -19.081  0.00  0.00    +0.140 C 
ATOM     12  C   UNL     1      34.839 -21.782 -19.972  0.00  0.00    +0.031 C 
ATOM     13  H   UNL     1      31.366 -22.868 -18.438  0.00  0.00    +0.169 HD
ENDROOT
BRANCH   4  14
ATOM     14  C   UNL     1      32.547 -23.654 -14.094  0.00  0.00    +0.030 C 
ATOM     15  C   UNL     1      31.422 -22.770 -13.568  0.00  0.00    +0.005 C 
ATOM     16  C   UNL     1      32.157 -25.127 -14.041  0.00  0.00    +0.005 C 
ENDBRANCH   4  14
BRANCH   5  17
ATOM     17  O   UNL     1      35.170 -22.812 -14.947  0.00  0.00    -0.405 OA
BRANCH  17  19
ATOM     18  C   UNL     1      36.460 -24.977 -14.973  0.00  0.00    -0.050 C 
ATOM     19  C   UNL     1      35.845 -23.946 -14.961  0.00  0.00    +0.118 C 
BRANCH  18  20
ATOM     20  C   UNL     1      37.198 -26.215 -14.986  0.00  0.00    +0.067 C 
ATOM     21  C   UNL     1      38.546 -26.254 -14.337  0.00  0.00    +0.014 C 
ATOM     22  C   UNL     1      37.383 -26.954 -13.698  0.00  0.00    +0.014 C 
ENDBRANCH  18  20
ENDBRANCH  17  19
ENDBRANCH   5  17
TORSDOF 4
ENDMDL
