MODEL 1
REMARK VINA RESULT:     -11.7      0.000      0.000
REMARK  Name = 24780598
REMARK  5 active torsions:
REMARK  status: ('A' for Active; 'I' for Inactive)
REMARK    1  A    between atoms: C_2  and  S_22
REMARK    2  A    between atoms: C_3  and  O_33
REMARK    3  A    between atoms: C_5  and  N_9
REMARK    4  A    between atoms: N_10  and  C_15
REMARK    5  A    between atoms: S_22  and  C_26
REMARK                            x       y       z     vdW  Elec       q    Type
REMARK                         _______ _______ _______ _____ _____    ______ ____
ROOT
ATOM      1 CL   UNL     1      34.946 -20.049 -24.092  0.00  0.00    -0.081 Cl
ATOM      2  C   UNL     1      35.089 -17.518 -23.063  0.00  0.00    +0.151 C 
ATOM      3  C   UNL     1      34.893 -16.139 -23.140  0.00  0.00    +0.165 C 
ATOM      4  C   UNL     1      34.723 -18.336 -24.132  0.00  0.00    +0.078 C 
ATOM      5  C   UNL     1      34.331 -15.579 -24.287  0.00  0.00    +0.087 C 
ATOM      6  C   UNL     1      34.162 -17.776 -25.279  0.00  0.00    +0.014 C 
ATOM      7  C   UNL     1      33.965 -16.396 -25.356  0.00  0.00    +0.019 C 
ENDROOT
BRANCH   5   9
ATOM      8  O   UNL     1      33.134 -13.672 -22.324  0.00  0.00    -0.252 OA
ATOM      9  N   UNL     1      34.124 -14.200 -24.381  0.00  0.00    -0.266 N 
ATOM     10  N   UNL     1      33.533 -12.016 -23.926  0.00  0.00    -0.268 N 
ATOM     11  C   UNL     1      33.551 -13.327 -23.425  0.00  0.00    +0.308 C 
ATOM     12  H   UNL     1      34.415 -13.780 -25.222  0.00  0.00    +0.157 HD
ATOM     13  H   UNL     1      33.905 -11.893 -24.830  0.00  0.00    +0.156 HD
BRANCH  10  15
ATOM     14  F   UNL     1      33.777  -7.290 -23.019  0.00  0.00    -0.204 F 
ATOM     15  C   UNL     1      33.046 -10.848 -23.293  0.00  0.00    +0.050 C 
ATOM     16  C   UNL     1      33.676  -9.617 -23.478  0.00  0.00    +0.019 C 
ATOM     17  C   UNL     1      31.921 -10.940 -22.473  0.00  0.00    +0.015 C 
ATOM     18  C   UNL     1      33.179  -8.478 -22.845  0.00  0.00    +0.137 C 
ATOM     19  C   UNL     1      34.883  -9.494 -24.351  0.00  0.00    +0.035 C 
ATOM     20  C   UNL     1      31.425  -9.800 -21.840  0.00  0.00    +0.004 C 
ATOM     21  C   UNL     1      32.054  -8.569 -22.026  0.00  0.00    +0.029 C 
ENDBRANCH  10  15
ENDBRANCH   5   9
BRANCH   2  22
ATOM     22  S   UNL     1      35.808 -18.198 -21.600  0.00  0.00    +0.009 S 
ATOM     23  O   UNL     1      37.156 -18.613 -21.938  0.00  0.00    -0.169 OA
ATOM     24  O   UNL     1      35.574 -17.270 -20.510  0.00  0.00    -0.169 OA
BRANCH  22  26
ATOM     25  N   UNL     1      32.594 -20.441 -20.590  0.00  0.00    +0.385 N 
ATOM     26  C   UNL     1      34.837 -19.647 -21.285  0.00  0.00    +0.113 C 
ATOM     27  C   UNL     1      35.495 -20.508 -20.209  0.00  0.00    +0.020 C 
ATOM     28  C   UNL     1      33.411 -19.263 -20.888  0.00  0.00    -0.057 C 
ATOM     29  C   UNL     1      34.601 -21.692 -19.847  0.00  0.00    -0.022 C 
ATOM     30  C   UNL     1      33.185 -21.229 -19.506  0.00  0.00    -0.082 C 
ATOM     31  H   UNL     1      32.528 -21.021 -21.428  0.00  0.00    -0.084 HD
ATOM     32  H   UNL     1      31.667 -20.131 -20.299  0.00  0.00    -0.084 HD
ENDBRANCH  22  26
ENDBRANCH   2  22
BRANCH   3  33
ATOM     33  O   UNL     1      35.250 -15.332 -22.099  0.00  0.00    -0.503 OA
ATOM     34  H   UNL     1      36.032 -14.817 -22.152  0.00  0.00    +0.292 HD
ENDBRANCH   3  33
TORSDOF 5
ENDMDL
MODEL 2
REMARK VINA RESULT:     -11.3      5.359      8.420
REMARK  Name = 24780598
REMARK  5 active torsions:
REMARK  status: ('A' for Active; 'I' for Inactive)
REMARK    1  A    between atoms: C_2  and  S_22
REMARK    2  A    between atoms: C_3  and  O_33
REMARK    3  A    between atoms: C_5  and  N_9
REMARK    4  A    between atoms: N_10  and  C_15
REMARK    5  A    between atoms: S_22  and  C_26
REMARK                            x       y       z     vdW  Elec       q    Type
REMARK                         _______ _______ _______ _____ _____    ______ ____
ROOT
ATOM      1 CL   UNL     1      33.279 -24.054 -15.150  0.00  0.00    -0.081 Cl
ATOM      2  C   UNL     1      35.188 -22.692 -16.559  0.00  0.00    +0.151 C 
ATOM      3  C   UNL     1      35.640 -22.013 -17.691  0.00  0.00    +0.165 C 
ATOM      4  C   UNL     1      33.891 -23.203 -16.524  0.00  0.00    +0.078 C 
ATOM      5  C   UNL     1      34.794 -21.846 -18.787  0.00  0.00    +0.087 C 
ATOM      6  C   UNL     1      33.045 -23.036 -17.620  0.00  0.00    +0.014 C 
ATOM      7  C   UNL     1      33.497 -22.357 -18.752  0.00  0.00    +0.019 C 
ENDROOT
BRANCH   5   9
ATOM      8  O   UNL     1      33.399 -19.803 -20.462  0.00  0.00    -0.252 OA
ATOM      9  N   UNL     1      35.229 -21.166 -19.928  0.00  0.00    -0.266 N 
ATOM     10  N   UNL     1      35.342 -19.771 -21.763  0.00  0.00    -0.268 N 
ATOM     11  C   UNL     1      34.536 -20.201 -20.698  0.00  0.00    +0.308 C 
ATOM     12  H   UNL     1      36.137 -21.387 -20.237  0.00  0.00    +0.157 HD
ATOM     13  H   UNL     1      36.235 -20.183 -21.823  0.00  0.00    +0.156 HD
BRANCH  10  15
ATOM     14  F   UNL     1      34.554 -15.232 -23.176  0.00  0.00    -0.204 F 
ATOM     15  C   UNL     1      35.029 -18.820 -22.763  0.00  0.00    +0.050 C 
ATOM     16  C   UNL     1      34.945 -17.462 -22.459  0.00  0.00    +0.019 C 
ATOM     17  C   UNL     1      34.804 -19.258 -24.069  0.00  0.00    +0.015 C 
ATOM     18  C   UNL     1      34.636 -16.540 -23.460  0.00  0.00    +0.137 C 
ATOM     19  C   UNL     1      35.182 -16.970 -21.067  0.00  0.00    +0.035 C 
ATOM     20  C   UNL     1      34.496 -18.336 -25.069  0.00  0.00    +0.004 C 
ATOM     21  C   UNL     1      34.411 -16.977 -24.765  0.00  0.00    +0.029 C 
ENDBRANCH  10  15
ENDBRANCH   5   9
BRANCH   2  22
ATOM     22  S   UNL     1      36.284 -22.891 -15.188  0.00  0.00    +0.009 S 
ATOM     23  O   UNL     1      37.370 -21.947 -15.367  0.00  0.00    -0.169 OA
ATOM     24  O   UNL     1      35.492 -22.882 -13.973  0.00  0.00    -0.169 OA
BRANCH  22  26
ATOM     25  N   UNL     1      36.399 -26.936 -15.114  0.00  0.00    +0.385 N 
ATOM     26  C   UNL     1      36.926 -24.531 -15.394  0.00  0.00    +0.113 C 
ATOM     27  C   UNL     1      38.218 -24.702 -14.599  0.00  0.00    +0.020 C 
ATOM     28  C   UNL     1      35.883 -25.571 -14.984  0.00  0.00    -0.057 C 
ATOM     29  C   UNL     1      38.707 -26.147 -14.675  0.00  0.00    -0.022 C 
ATOM     30  C   UNL     1      37.596 -27.125 -14.293  0.00  0.00    -0.082 C 
ATOM     31  H   UNL     1      36.632 -27.113 -16.092  0.00  0.00    -0.084 HD
ATOM     32  H   UNL     1      35.681 -27.588 -14.798  0.00  0.00    -0.084 HD
ENDBRANCH  22  26
ENDBRANCH   2  22
BRANCH   3  33
ATOM     33  O   UNL     1      36.909 -21.511 -17.734  0.00  0.00    -0.503 OA
ATOM     34  H   UNL     1      37.246 -21.156 -18.533  0.00  0.00    +0.292 HD
ENDBRANCH   3  33
TORSDOF 5
ENDMDL
MODEL 3
REMARK VINA RESULT:     -11.2      1.482      1.982
REMARK  Name = 24780598
REMARK  5 active torsions:
REMARK  status: ('A' for Active; 'I' for Inactive)
REMARK    1  A    between atoms: C_2  and  S_22
REMARK    2  A    between atoms: C_3  and  O_33
REMARK    3  A    between atoms: C_5  and  N_9
REMARK    4  A    between atoms: N_10  and  C_15
REMARK    5  A    between atoms: S_22  and  C_26
REMARK                            x       y       z     vdW  Elec       q    Type
REMARK                         _______ _______ _______ _____ _____    ______ ____
ROOT
ATOM      1 CL   UNL     1      35.252 -18.369 -24.704  0.00  0.00    -0.081 Cl
ATOM      2  C   UNL     1      34.558 -16.567 -22.766  0.00  0.00    +0.151 C 
ATOM      3  C   UNL     1      33.925 -15.403 -22.329  0.00  0.00    +0.165 C 
ATOM      4  C   UNL     1      34.485 -16.940 -24.108  0.00  0.00    +0.078 C 
ATOM      5  C   UNL     1      33.219 -14.613 -23.236  0.00  0.00    +0.087 C 
ATOM      6  C   UNL     1      33.779 -16.149 -25.014  0.00  0.00    +0.014 C 
ATOM      7  C   UNL     1      33.145 -14.985 -24.578  0.00  0.00    +0.019 C 
ENDROOT
BRANCH   5   9
ATOM      8  O   UNL     1      33.949 -11.748 -23.666  0.00  0.00    -0.252 OA
ATOM      9  N   UNL     1      32.575 -13.445 -22.816  0.00  0.00    -0.266 N 
ATOM     10  N   UNL     1      32.023 -11.236 -22.442  0.00  0.00    -0.268 N 
ATOM     11  C   UNL     1      32.954 -12.100 -23.040  0.00  0.00    +0.308 C 
ATOM     12  H   UNL     1      31.750 -13.576 -22.296  0.00  0.00    +0.157 HD
ATOM     13  H   UNL     1      31.272 -11.667 -21.973  0.00  0.00    +0.156 HD
BRANCH  10  15
ATOM     14  F   UNL     1      32.050  -7.033 -20.085  0.00  0.00    -0.204 F 
ATOM     15  C   UNL     1      32.031  -9.821 -22.430  0.00  0.00    +0.050 C 
ATOM     16  C   UNL     1      32.036  -9.115 -21.227  0.00  0.00    +0.019 C 
ATOM     17  C   UNL     1      32.033  -9.132 -23.643  0.00  0.00    +0.015 C 
ATOM     18  C   UNL     1      32.044  -7.720 -21.237  0.00  0.00    +0.137 C 
ATOM     19  C   UNL     1      32.033  -9.832 -19.915  0.00  0.00    +0.035 C 
ATOM     20  C   UNL     1      32.042  -7.737 -23.652  0.00  0.00    +0.004 C 
ATOM     21  C   UNL     1      32.047  -7.031 -22.449  0.00  0.00    +0.029 C 
ENDBRANCH  10  15
ENDBRANCH   5   9
BRANCH   2  22
ATOM     22  S   UNL     1      35.448 -17.545 -21.595  0.00  0.00    +0.009 S 
ATOM     23  O   UNL     1      36.703 -17.921 -22.218  0.00  0.00    -0.169 OA
ATOM     24  O   UNL     1      35.437 -16.848 -20.323  0.00  0.00    -0.169 OA
BRANCH  22  26
ATOM     25  N   UNL     1      32.265 -19.842 -20.608  0.00  0.00    +0.385 N 
ATOM     26  C   UNL     1      34.453 -19.001 -21.414  0.00  0.00    +0.113 C 
ATOM     27  C   UNL     1      35.185 -20.048 -20.578  0.00  0.00    +0.020 C 
ATOM     28  C   UNL     1      33.098 -18.652 -20.799  0.00  0.00    -0.057 C 
ATOM     29  C   UNL     1      34.283 -21.252 -20.317  0.00  0.00    -0.022 C 
ATOM     30  C   UNL     1      32.934 -20.817 -19.744  0.00  0.00    -0.082 C 
ATOM     31  H   UNL     1      32.083 -20.270 -21.516  0.00  0.00    -0.084 HD
ATOM     32  H   UNL     1      31.391 -19.561 -20.165  0.00  0.00    -0.084 HD
ENDBRANCH  22  26
ENDBRANCH   2  22
BRANCH   3  33
ATOM     33  O   UNL     1      33.993 -15.031 -21.018  0.00  0.00    -0.503 OA
ATOM     34  H   UNL     1      33.410 -14.376 -20.685  0.00  0.00    +0.292 HD
ENDBRANCH   3  33
TORSDOF 5
ENDMDL
MODEL 4
REMARK VINA RESULT:     -11.0      4.206      9.401
REMARK  Name = 24780598
REMARK  5 active torsions:
REMARK  status: ('A' for Active; 'I' for Inactive)
REMARK    1  A    between atoms: C_2  and  S_22
REMARK    2  A    between atoms: C_3  and  O_33
REMARK    3  A    between atoms: C_5  and  N_9
REMARK    4  A    between atoms: N_10  and  C_15
REMARK    5  A    between atoms: S_22  and  C_26
REMARK                            x       y       z     vdW  Elec       q    Type
REMARK                         _______ _______ _______ _____ _____    ______ ____
ROOT
ATOM      1 CL   UNL     1      32.918  -9.962 -23.883  0.00  0.00    -0.081 Cl
ATOM      2  C   UNL     1      32.444 -12.256 -22.470  0.00  0.00    +0.151 C 
ATOM      3  C   UNL     1      32.603 -13.623 -22.241  0.00  0.00    +0.165 C 
ATOM      4  C   UNL     1      33.082 -11.650 -23.551  0.00  0.00    +0.078 C 
ATOM      5  C   UNL     1      33.402 -14.383 -23.096  0.00  0.00    +0.087 C 
ATOM      6  C   UNL     1      33.881 -12.410 -24.406  0.00  0.00    +0.014 C 
ATOM      7  C   UNL     1      34.040 -13.778 -24.178  0.00  0.00    +0.019 C 
ENDROOT
BRANCH   5   9
ATOM      8  O   UNL     1      35.110 -15.821 -21.111  0.00  0.00    -0.252 OA
ATOM      9  N   UNL     1      33.576 -15.753 -22.881  0.00  0.00    -0.266 N 
ATOM     10  N   UNL     1      34.275 -17.791 -22.054  0.00  0.00    -0.268 N 
ATOM     11  C   UNL     1      34.398 -16.399 -21.926  0.00  0.00    +0.308 C 
ATOM     12  H   UNL     1      33.058 -16.348 -23.470  0.00  0.00    +0.157 HD
ATOM     13  H   UNL     1      33.662 -18.108 -22.757  0.00  0.00    +0.156 HD
BRANCH  10  15
ATOM     14  F   UNL     1      34.157 -21.765 -19.331  0.00  0.00    -0.204 F 
ATOM     15  C   UNL     1      34.923 -18.796 -21.297  0.00  0.00    +0.050 C 
ATOM     16  C   UNL     1      34.192 -19.807 -20.674  0.00  0.00    +0.019 C 
ATOM     17  C   UNL     1      36.313 -18.765 -21.180  0.00  0.00    +0.015 C 
ATOM     18  C   UNL     1      34.852 -20.788 -19.933  0.00  0.00    +0.137 C 
ATOM     19  C   UNL     1      32.703 -19.860 -20.785  0.00  0.00    +0.035 C 
ATOM     20  C   UNL     1      36.972 -19.747 -20.439  0.00  0.00    +0.004 C 
ATOM     21  C   UNL     1      36.241 -20.758 -19.815  0.00  0.00    +0.029 C 
ENDBRANCH  10  15
ENDBRANCH   5   9
BRANCH   2  22
ATOM     22  S   UNL     1      31.422 -11.321 -21.373  0.00  0.00    +0.009 S 
ATOM     23  O   UNL     1      30.129 -11.174 -22.014  0.00  0.00    -0.169 OA
ATOM     24  O   UNL     1      31.527 -11.906 -20.050  0.00  0.00    -0.169 OA
BRANCH  22  26
ATOM     25  N   UNL     1      33.007  -7.947 -19.795  0.00  0.00    +0.385 N 
ATOM     26  C   UNL     1      32.205  -9.731 -21.318  0.00  0.00    +0.113 C 
ATOM     27  C   UNL     1      31.400  -8.710 -22.120  0.00  0.00    +0.020 C 
ATOM     28  C   UNL     1      32.390  -9.274 -19.871  0.00  0.00    -0.057 C 
ATOM     29  C   UNL     1      32.003  -7.316 -21.972  0.00  0.00    -0.022 C 
ATOM     30  C   UNL     1      32.197  -6.952 -20.501  0.00  0.00    -0.082 C 
ATOM     31  H   UNL     1      33.934  -7.986 -20.220  0.00  0.00    -0.084 HD
ATOM     32  H   UNL     1      33.076  -7.675 -18.815  0.00  0.00    -0.084 HD
ENDBRANCH  22  26
ENDBRANCH   2  22
BRANCH   3  33
ATOM     33  O   UNL     1      31.980 -14.224 -21.186  0.00  0.00    -0.503 OA
ATOM     34  H   UNL     1      32.342 -14.151 -20.324  0.00  0.00    +0.292 HD
ENDBRANCH   3  33
TORSDOF 5
ENDMDL
MODEL 5
REMARK VINA RESULT:     -11.0      4.638     10.012
REMARK  Name = 24780598
REMARK  5 active torsions:
REMARK  status: ('A' for Active; 'I' for Inactive)
REMARK    1  A    between atoms: C_2  and  S_22
REMARK    2  A    between atoms: C_3  and  O_33
REMARK    3  A    between atoms: C_5  and  N_9
REMARK    4  A    between atoms: N_10  and  C_15
REMARK    5  A    between atoms: S_22  and  C_26
REMARK                            x       y       z     vdW  Elec       q    Type
REMARK                         _______ _______ _______ _____ _____    ______ ____
ROOT
ATOM      1 CL   UNL     1      34.351  -7.314 -23.895  0.00  0.00    -0.081 Cl
ATOM      2  C   UNL     1      33.126  -9.660 -23.207  0.00  0.00    +0.151 C 
ATOM      3  C   UNL     1      32.974 -11.045 -23.285  0.00  0.00    +0.165 C 
ATOM      4  C   UNL     1      34.120  -9.025 -23.950  0.00  0.00    +0.078 C 
ATOM      5  C   UNL     1      33.817 -11.793 -24.106  0.00  0.00    +0.087 C 
ATOM      6  C   UNL     1      34.963  -9.773 -24.772  0.00  0.00    +0.014 C 
ATOM      7  C   UNL     1      34.811 -11.158 -24.850  0.00  0.00    +0.019 C 
ENDROOT
BRANCH   5   9
ATOM      8  O   UNL     1      34.872 -13.949 -22.327  0.00  0.00    -0.252 OA
ATOM      9  N   UNL     1      33.681 -13.181 -24.193  0.00  0.00    -0.266 N 
ATOM     10  N   UNL     1      33.825 -15.448 -23.784  0.00  0.00    -0.268 N 
ATOM     11  C   UNL     1      34.198 -14.175 -23.328  0.00  0.00    +0.308 C 
ATOM     12  H   UNL     1      33.157 -13.513 -24.958  0.00  0.00    +0.157 HD
ATOM     13  H   UNL     1      33.281 -15.471 -24.605  0.00  0.00    +0.156 HD
BRANCH  10  15
ATOM     14  F   UNL     1      35.152 -20.063 -24.190  0.00  0.00    -0.204 F 
ATOM     15  C   UNL     1      34.135 -16.704 -23.212  0.00  0.00    +0.050 C 
ATOM     16  C   UNL     1      34.499 -17.787 -24.013  0.00  0.00    +0.019 C 
ATOM     17  C   UNL     1      34.074 -16.852 -21.825  0.00  0.00    +0.015 C 
ATOM     18  C   UNL     1      34.801 -19.017 -23.428  0.00  0.00    +0.137 C 
ATOM     19  C   UNL     1      34.571 -17.653 -25.500  0.00  0.00    +0.035 C 
ATOM     20  C   UNL     1      34.376 -18.082 -21.241  0.00  0.00    +0.004 C 
ATOM     21  C   UNL     1      34.740 -19.165 -22.042  0.00  0.00    +0.029 C 
ENDBRANCH  10  15
ENDBRANCH   5   9
BRANCH   2  22
ATOM     22  S   UNL     1      32.040  -8.739 -22.162  0.00  0.00    +0.009 S 
ATOM     23  O   UNL     1      30.706  -9.279 -22.348  0.00  0.00    -0.169 OA
ATOM     24  O   UNL     1      32.632  -8.678 -20.839  0.00  0.00    -0.169 OA
BRANCH  22  26
ATOM     25  N   UNL     1      31.873  -4.697 -22.285  0.00  0.00    +0.385 N 
ATOM     26  C   UNL     1      32.084  -7.103 -22.842  0.00  0.00    +0.113 C 
ATOM     27  C   UNL     1      31.042  -6.957 -23.950  0.00  0.00    +0.020 C 
ATOM     28  C   UNL     1      31.873  -6.059 -21.746  0.00  0.00    -0.057 C 
ATOM     29  C   UNL     1      30.992  -5.516 -24.453  0.00  0.00    -0.022 C 
ATOM     30  C   UNL     1      30.825  -4.533 -23.294  0.00  0.00    -0.082 C 
ATOM     31  H   UNL     1      32.781  -4.508 -22.712  0.00  0.00    -0.084 HD
ATOM     32  H   UNL     1      31.696  -4.044 -21.522  0.00  0.00    -0.084 HD
ENDBRANCH  22  26
ENDBRANCH   2  22
BRANCH   3  33
ATOM     33  O   UNL     1      32.002 -11.674 -22.562  0.00  0.00    -0.503 OA
ATOM     34  H   UNL     1      31.452 -12.314 -22.971  0.00  0.00    +0.292 HD
ENDBRANCH   3  33
TORSDOF 5
ENDMDL
MODEL 6
REMARK VINA RESULT:     -10.0      6.074     11.412
REMARK  Name = 24780598
REMARK  5 active torsions:
REMARK  status: ('A' for Active; 'I' for Inactive)
REMARK    1  A    between atoms: C_2  and  S_22
REMARK    2  A    between atoms: C_3  and  O_33
REMARK    3  A    between atoms: C_5  and  N_9
REMARK    4  A    between atoms: N_10  and  C_15
REMARK    5  A    between atoms: S_22  and  C_26
REMARK                            x       y       z     vdW  Elec       q    Type
REMARK                         _______ _______ _______ _____ _____    ______ ____
ROOT
ATOM      1 CL   UNL     1      32.414 -19.780 -21.697  0.00  0.00    -0.081 Cl
ATOM      2  C   UNL     1      34.967 -20.089 -20.764  0.00  0.00    +0.151 C 
ATOM      3  C   UNL     1      35.903 -20.620 -19.876  0.00  0.00    +0.165 C 
ATOM      4  C   UNL     1      33.617 -20.410 -20.628  0.00  0.00    +0.078 C 
ATOM      5  C   UNL     1      35.487 -21.471 -18.851  0.00  0.00    +0.087 C 
ATOM      6  C   UNL     1      33.201 -21.261 -19.604  0.00  0.00    +0.014 C 
ATOM      7  C   UNL     1      34.137 -21.791 -18.715  0.00  0.00    +0.019 C 
ENDROOT
BRANCH   5   9
ATOM      8  O   UNL     1      35.069 -22.698 -16.160  0.00  0.00    -0.252 OA
ATOM      9  N   UNL     1      36.411 -22.014 -17.955  0.00  0.00    -0.266 N 
ATOM     10  N   UNL     1      37.386 -23.012 -16.116  0.00  0.00    -0.268 N 
ATOM     11  C   UNL     1      36.174 -22.589 -16.683  0.00  0.00    +0.308 C 
ATOM     12  H   UNL     1      37.351 -21.995 -18.246  0.00  0.00    +0.157 HD
ATOM     13  H   UNL     1      38.194 -22.857 -16.658  0.00  0.00    +0.156 HD
BRANCH  10  15
ATOM     14  F   UNL     1      39.830 -26.000 -13.233  0.00  0.00    -0.204 F 
ATOM     15  C   UNL     1      37.591 -23.633 -14.862  0.00  0.00    +0.050 C 
ATOM     16  C   UNL     1      38.639 -24.533 -14.671  0.00  0.00    +0.019 C 
ATOM     17  C   UNL     1      36.727 -23.334 -13.807  0.00  0.00    +0.015 C 
ATOM     18  C   UNL     1      38.824 -25.135 -13.426  0.00  0.00    +0.137 C 
ATOM     19  C   UNL     1      39.577 -24.869 -15.785  0.00  0.00    +0.035 C 
ATOM     20  C   UNL     1      36.912 -23.936 -12.563  0.00  0.00    +0.004 C 
ATOM     21  C   UNL     1      37.961 -24.836 -12.372  0.00  0.00    +0.029 C 
ENDBRANCH  10  15
ENDBRANCH   5   9
BRANCH   2  22
ATOM     22  S   UNL     1      35.523 -19.011 -22.047  0.00  0.00    +0.009 S 
ATOM     23  O   UNL     1      36.902 -18.671 -21.753  0.00  0.00    -0.169 OA
ATOM     24  O   UNL     1      35.167 -19.606 -23.322  0.00  0.00    -0.169 OA
BRANCH  22  26
ATOM     25  N   UNL     1      33.728 -15.503 -22.971  0.00  0.00    +0.385 N 
ATOM     26  C   UNL     1      34.529 -17.558 -21.840  0.00  0.00    +0.113 C 
ATOM     27  C   UNL     1      35.030 -16.733 -20.656  0.00  0.00    +0.020 C 
ATOM     28  C   UNL     1      34.516 -16.728 -23.124  0.00  0.00    -0.057 C 
ATOM     29  C   UNL     1      34.255 -15.422 -20.550  0.00  0.00    -0.022 C 
ATOM     30  C   UNL     1      34.252 -14.674 -21.883  0.00  0.00    -0.082 C 
ATOM     31  H   UNL     1      32.760 -15.754 -22.764  0.00  0.00    -0.084 HD
ATOM     32  H   UNL     1      33.779 -14.971 -23.839  0.00  0.00    -0.084 HD
ENDBRANCH  22  26
ENDBRANCH   2  22
BRANCH   3  33
ATOM     33  O   UNL     1      37.226 -20.310 -20.001  0.00  0.00    -0.503 OA
ATOM     34  H   UNL     1      37.731 -20.090 -19.242  0.00  0.00    +0.292 HD
ENDBRANCH   3  33
TORSDOF 5
ENDMDL
MODEL 7
REMARK VINA RESULT:     -10.0      5.707      8.795
REMARK  Name = 24780598
REMARK  5 active torsions:
REMARK  status: ('A' for Active; 'I' for Inactive)
REMARK    1  A    between atoms: C_2  and  S_22
REMARK    2  A    between atoms: C_3  and  O_33
REMARK    3  A    between atoms: C_5  and  N_9
REMARK    4  A    between atoms: N_10  and  C_15
REMARK    5  A    between atoms: S_22  and  C_26
REMARK                            x       y       z     vdW  Elec       q    Type
REMARK                         _______ _______ _______ _____ _____    ______ ____
ROOT
ATOM      1 CL   UNL     1      33.675 -24.641 -15.119  0.00  0.00    -0.081 Cl
ATOM      2  C   UNL     1      35.606 -23.250 -16.468  0.00  0.00    +0.151 C 
ATOM      3  C   UNL     1      36.029 -22.381 -17.474  0.00  0.00    +0.165 C 
ATOM      4  C   UNL     1      34.254 -23.569 -16.344  0.00  0.00    +0.078 C 
ATOM      5  C   UNL     1      35.099 -21.832 -18.356  0.00  0.00    +0.087 C 
ATOM      6  C   UNL     1      33.324 -23.019 -17.226  0.00  0.00    +0.014 C 
ATOM      7  C   UNL     1      33.747 -22.150 -18.232  0.00  0.00    +0.019 C 
ENDROOT
BRANCH   5   9
ATOM      8  O   UNL     1      33.515 -20.538 -20.534  0.00  0.00    -0.252 OA
ATOM      9  N   UNL     1      35.504 -20.957 -19.367  0.00  0.00    -0.266 N 
ATOM     10  N   UNL     1      35.527 -19.547 -21.195  0.00  0.00    -0.268 N 
ATOM     11  C   UNL     1      34.721 -20.362 -20.386  0.00  0.00    +0.308 C 
ATOM     12  H   UNL     1      36.460 -20.722 -19.372  0.00  0.00    +0.157 HD
ATOM     13  H   UNL     1      36.481 -19.504 -20.951  0.00  0.00    +0.156 HD
BRANCH  10  15
ATOM     14  F   UNL     1      34.227 -15.365 -23.205  0.00  0.00    -0.204 F 
ATOM     15  C   UNL     1      35.140 -18.778 -22.318  0.00  0.00    +0.050 C 
ATOM     16  C   UNL     1      34.869 -17.415 -22.194  0.00  0.00    +0.019 C 
ATOM     17  C   UNL     1      35.032 -19.401 -23.561  0.00  0.00    +0.015 C 
ATOM     18  C   UNL     1      34.488 -16.676 -23.314  0.00  0.00    +0.137 C 
ATOM     19  C   UNL     1      34.978 -16.727 -20.872  0.00  0.00    +0.035 C 
ATOM     20  C   UNL     1      34.652 -18.661 -24.681  0.00  0.00    +0.004 C 
ATOM     21  C   UNL     1      34.380 -17.298 -24.557  0.00  0.00    +0.029 C 
ENDBRANCH  10  15
ENDBRANCH   5   9
BRANCH   2  22
ATOM     22  S   UNL     1      36.808 -23.934 -15.369  0.00  0.00    +0.009 S 
ATOM     23  O   UNL     1      36.739 -25.377 -15.503  0.00  0.00    -0.169 OA
ATOM     24  O   UNL     1      38.061 -23.234 -15.579  0.00  0.00    -0.169 OA
BRANCH  22  26
ATOM     25  N   UNL     1      36.899 -22.645 -11.534  0.00  0.00    +0.385 N 
ATOM     26  C   UNL     1      36.212 -23.491 -13.760  0.00  0.00    +0.113 C 
ATOM     27  C   UNL     1      35.497 -24.674 -13.110  0.00  0.00    +0.020 C 
ATOM     28  C   UNL     1      37.359 -22.989 -12.881  0.00  0.00    -0.057 C 
ATOM     29  C   UNL     1      35.092 -24.334 -11.678  0.00  0.00    -0.022 C 
ATOM     30  C   UNL     1      36.280 -23.800 -10.880  0.00  0.00    -0.082 C 
ATOM     31  H   UNL     1      36.216 -21.890 -11.597  0.00  0.00    -0.084 HD
ATOM     32  H   UNL     1      37.704 -22.350 -10.980  0.00  0.00    -0.084 HD
ENDBRANCH  22  26
ENDBRANCH   2  22
BRANCH   3  33
ATOM     33  O   UNL     1      37.351 -22.066 -17.603  0.00  0.00    -0.503 OA
ATOM     34  H   UNL     1      37.867 -21.888 -16.840  0.00  0.00    +0.292 HD
ENDBRANCH   3  33
TORSDOF 5
ENDMDL
MODEL 8
REMARK VINA RESULT:      -9.9      4.395      9.772
REMARK  Name = 24780598
REMARK  5 active torsions:
REMARK  status: ('A' for Active; 'I' for Inactive)
REMARK    1  A    between atoms: C_2  and  S_22
REMARK    2  A    between atoms: C_3  and  O_33
REMARK    3  A    between atoms: C_5  and  N_9
REMARK    4  A    between atoms: N_10  and  C_15
REMARK    5  A    between atoms: S_22  and  C_26
REMARK                            x       y       z     vdW  Elec       q    Type
REMARK                         _______ _______ _______ _____ _____    ______ ____
ROOT
ATOM      1 CL   UNL     1      31.610  -9.680 -21.429  0.00  0.00    -0.081 Cl
ATOM      2  C   UNL     1      32.934 -11.671 -22.757  0.00  0.00    +0.151 C 
ATOM      3  C   UNL     1      33.324 -13.001 -22.921  0.00  0.00    +0.165 C 
ATOM      4  C   UNL     1      32.121 -11.311 -21.682  0.00  0.00    +0.078 C 
ATOM      5  C   UNL     1      32.902 -13.968 -22.010  0.00  0.00    +0.087 C 
ATOM      6  C   UNL     1      31.699 -12.278 -20.771  0.00  0.00    +0.014 C 
ATOM      7  C   UNL     1      32.090 -13.608 -20.935  0.00  0.00    +0.019 C 
ENDROOT
BRANCH   5   9
ATOM      8  O   UNL     1      34.555 -15.715 -20.237  0.00  0.00    -0.252 OA
ATOM      9  N   UNL     1      33.281 -15.305 -22.160  0.00  0.00    -0.266 N 
ATOM     10  N   UNL     1      34.206 -17.393 -21.828  0.00  0.00    -0.268 N 
ATOM     11  C   UNL     1      34.068 -16.102 -21.295  0.00  0.00    +0.308 C 
ATOM     12  H   UNL     1      32.957 -15.752 -22.976  0.00  0.00    +0.157 HD
ATOM     13  H   UNL     1      33.756 -17.555 -22.690  0.00  0.00    +0.156 HD
BRANCH  10  15
ATOM     14  F   UNL     1      34.303 -21.704 -19.677  0.00  0.00    -0.204 F 
ATOM     15  C   UNL     1      34.912 -18.490 -21.281  0.00  0.00    +0.050 C 
ATOM     16  C   UNL     1      34.233 -19.580 -20.736  0.00  0.00    +0.019 C 
ATOM     17  C   UNL     1      36.308 -18.473 -21.293  0.00  0.00    +0.015 C 
ATOM     18  C   UNL     1      34.948 -20.652 -20.202  0.00  0.00    +0.137 C 
ATOM     19  C   UNL     1      32.739 -19.620 -20.712  0.00  0.00    +0.035 C 
ATOM     20  C   UNL     1      37.022 -19.545 -20.759  0.00  0.00    +0.004 C 
ATOM     21  C   UNL     1      36.343 -20.635 -20.213  0.00  0.00    +0.029 C 
ENDBRANCH  10  15
ENDBRANCH   5   9
BRANCH   2  22
ATOM     22  S   UNL     1      33.488 -10.468 -23.925  0.00  0.00    +0.009 S 
ATOM     23  O   UNL     1      34.924 -10.340 -23.759  0.00  0.00    -0.169 OA
ATOM     24  O   UNL     1      32.922 -10.801 -25.219  0.00  0.00    -0.169 OA
BRANCH  22  26
ATOM     25  N   UNL     1      30.987  -7.286 -23.935  0.00  0.00    +0.385 N 
ATOM     26  C   UNL     1      32.723  -8.964 -23.379  0.00  0.00    +0.113 C 
ATOM     27  C   UNL     1      33.767  -7.860 -23.223  0.00  0.00    +0.020 C 
ATOM     28  C   UNL     1      31.616  -8.543 -24.345  0.00  0.00    -0.057 C 
ATOM     29  C   UNL     1      33.097  -6.534 -22.873  0.00  0.00    -0.022 C 
ATOM     30  C   UNL     1      31.975  -6.207 -23.857  0.00  0.00    -0.082 C 
ATOM     31  H   UNL     1      30.556  -7.411 -23.019  0.00  0.00    -0.084 HD
ATOM     32  H   UNL     1      30.282  -7.032 -24.627  0.00  0.00    -0.084 HD
ENDBRANCH  22  26
ENDBRANCH   2  22
BRANCH   3  33
ATOM     33  O   UNL     1      34.121 -13.361 -23.970  0.00  0.00    -0.503 OA
ATOM     34  H   UNL     1      33.850 -13.178 -24.849  0.00  0.00    +0.292 HD
ENDBRANCH   3  33
TORSDOF 5
ENDMDL
MODEL 9
REMARK VINA RESULT:      -9.8      2.318      3.425
REMARK  Name = 24780598
REMARK  5 active torsions:
REMARK  status: ('A' for Active; 'I' for Inactive)
REMARK    1  A    between atoms: C_2  and  S_22
REMARK    2  A    between atoms: C_3  and  O_33
REMARK    3  A    between atoms: C_5  and  N_9
REMARK    4  A    between atoms: N_10  and  C_15
REMARK    5  A    between atoms: S_22  and  C_26
REMARK                            x       y       z     vdW  Elec       q    Type
REMARK                         _______ _______ _______ _____ _____    ______ ____
ROOT
ATOM      1 CL   UNL     1      34.709 -16.754 -23.687  0.00  0.00    -0.081 Cl
ATOM      2  C   UNL     1      33.460 -14.852 -22.169  0.00  0.00    +0.151 C 
ATOM      3  C   UNL     1      32.799 -13.633 -22.011  0.00  0.00    +0.165 C 
ATOM      4  C   UNL     1      33.884 -15.257 -23.434  0.00  0.00    +0.078 C 
ATOM      5  C   UNL     1      32.563 -12.821 -23.120  0.00  0.00    +0.087 C 
ATOM      6  C   UNL     1      33.648 -14.445 -24.543  0.00  0.00    +0.014 C 
ATOM      7  C   UNL     1      32.986 -13.226 -24.386  0.00  0.00    +0.019 C 
ENDROOT
BRANCH   5   9
ATOM      8  O   UNL     1      33.538 -10.035 -23.582  0.00  0.00    -0.252 OA
ATOM      9  N   UNL     1      31.899 -11.599 -22.982  0.00  0.00    -0.266 N 
ATOM     10  N   UNL     1      31.394  -9.347 -22.951  0.00  0.00    -0.268 N 
ATOM     11  C   UNL     1      32.397 -10.293 -23.211  0.00  0.00    +0.308 C 
ATOM     12  H   UNL     1      30.962 -11.652 -22.687  0.00  0.00    +0.157 HD
ATOM     13  H   UNL     1      30.524  -9.708 -22.660  0.00  0.00    +0.156 HD
BRANCH  10  15
ATOM     14  F   UNL     1      32.371  -5.023 -21.063  0.00  0.00    -0.204 F 
ATOM     15  C   UNL     1      31.477  -7.939 -23.055  0.00  0.00    +0.050 C 
ATOM     16  C   UNL     1      31.894  -7.163 -21.973  0.00  0.00    +0.019 C 
ATOM     17  C   UNL     1      31.135  -7.326 -24.262  0.00  0.00    +0.015 C 
ATOM     18  C   UNL     1      31.969  -5.776 -22.097  0.00  0.00    +0.137 C 
ATOM     19  C   UNL     1      32.265  -7.797 -20.671  0.00  0.00    +0.035 C 
ATOM     20  C   UNL     1      31.211  -5.939 -24.385  0.00  0.00    +0.004 C 
ATOM     21  C   UNL     1      31.628  -5.164 -23.303  0.00  0.00    +0.029 C 
ENDBRANCH  10  15
ENDBRANCH   5   9
BRANCH   2  22
ATOM     22  S   UNL     1      33.750 -15.856 -20.745  0.00  0.00    +0.009 S 
ATOM     23  O   UNL     1      34.878 -15.281 -20.037  0.00  0.00    -0.169 OA
ATOM     24  O   UNL     1      32.481 -16.058 -20.070  0.00  0.00    -0.169 OA
BRANCH  22  26
ATOM     25  N   UNL     1      33.663 -19.822 -21.548  0.00  0.00    +0.385 N 
ATOM     26  C   UNL     1      34.248 -17.417 -21.422  0.00  0.00    +0.113 C 
ATOM     27  C   UNL     1      35.665 -17.766 -20.973  0.00  0.00    +0.020 C 
ATOM     28  C   UNL     1      33.258 -18.514 -21.028  0.00  0.00    -0.057 C 
ATOM     29  C   UNL     1      36.051 -19.164 -21.452  0.00  0.00    -0.022 C 
ATOM     30  C   UNL     1      34.992 -20.193 -21.058  0.00  0.00    -0.082 C 
ATOM     31  H   UNL     1      33.681 -19.784 -22.568  0.00  0.00    -0.084 HD
ATOM     32  H   UNL     1      32.992 -20.521 -21.230  0.00  0.00    -0.084 HD
ENDBRANCH  22  26
ENDBRANCH   2  22
BRANCH   3  33
ATOM     33  O   UNL     1      32.383 -13.228 -20.776  0.00  0.00    -0.503 OA
ATOM     34  H   UNL     1      32.543 -13.769 -20.027  0.00  0.00    +0.292 HD
ENDBRANCH   3  33
TORSDOF 5
ENDMDL
