MODEL 1
REMARK VINA RESULT:      -8.1      0.000      0.000
REMARK  Name = 11065133
REMARK  4 active torsions:
REMARK  status: ('A' for Active; 'I' for Inactive)
REMARK    1  A    between atoms: C_3  and  O_17
REMARK    2  A    between atoms: C_4  and  N_9
REMARK    3  A    between atoms: C_6  and  C_19
REMARK    4  A    between atoms: C_19  and  O_20
REMARK                            x       y       z     vdW  Elec       q    Type
REMARK                         _______ _______ _______ _____ _____    ______ ____
ROOT
ATOM      1  F   UNL     1      35.431 -21.988 -15.028  0.00  0.00    -0.230 F 
ATOM      2  O   UNL     1      34.973 -24.938 -14.694  0.00  0.00    -0.332 OA
ATOM      3  C   UNL     1      36.990 -23.674 -14.629  0.00  0.00    +0.177 C 
ATOM      4  C   UNL     1      35.044 -24.146 -15.887  0.00  0.00    +0.235 C 
ATOM      5  C   UNL     1      36.050 -23.042 -15.626  0.00  0.00    +0.237 C 
ATOM      6  C   UNL     1      36.080 -24.606 -13.834  0.00  0.00    +0.176 C 
ENDROOT
BRANCH   4   9
ATOM      7  O   UNL     1      34.252 -23.166 -18.444  0.00  0.00    -0.252 OA
ATOM      8  O   UNL     1      29.971 -22.326 -16.991  0.00  0.00    -0.270 OA
ATOM      9  N   UNL     1      33.738 -23.663 -16.222  0.00  0.00    -0.217 N 
ATOM     10  N   UNL     1      32.121 -22.751 -17.707  0.00  0.00    -0.236 N 
ATOM     11  C   UNL     1      32.755 -23.660 -15.236  0.00  0.00    +0.071 C 
ATOM     12  C   UNL     1      33.435 -23.194 -17.521  0.00  0.00    +0.315 C 
ATOM     13  C   UNL     1      31.497 -23.236 -15.416  0.00  0.00    +0.047 C 
ATOM     14  C   UNL     1      31.108 -22.729 -16.759  0.00  0.00    +0.250 C 
ATOM     15  C   UNL     1      30.460 -23.243 -14.339  0.00  0.00    +0.037 C 
ATOM     16  H   UNL     1      31.891 -22.421 -18.604  0.00  0.00    +0.159 HD
ENDBRANCH   4   9
BRANCH   3  17
ATOM     17  O   UNL     1      37.987 -24.423 -15.315  0.00  0.00    -0.379 OA
ATOM     18  H   UNL     1      37.736 -25.360 -15.329  0.00  0.00    +0.211 HD
ENDBRANCH   3  17
BRANCH   6  19
ATOM     19  C   UNL     1      35.514 -23.959 -12.577  0.00  0.00    +0.169 C 
BRANCH  19  20
ATOM     20  O   UNL     1      34.832 -24.948 -11.826  0.00  0.00    -0.379 OA
ATOM     21  H   UNL     1      34.679 -25.728 -12.382  0.00  0.00    +0.211 HD
ENDBRANCH  19  20
ENDBRANCH   6  19
TORSDOF 4
ENDMDL
MODEL 2
REMARK VINA RESULT:      -7.6      2.408      4.139
REMARK  Name = 11065133
REMARK  4 active torsions:
REMARK  status: ('A' for Active; 'I' for Inactive)
REMARK    1  A    between atoms: C_3  and  O_17
REMARK    2  A    between atoms: C_4  and  N_9
REMARK    3  A    between atoms: C_6  and  C_19
REMARK    4  A    between atoms: C_19  and  O_20
REMARK                            x       y       z     vdW  Elec       q    Type
REMARK                         _______ _______ _______ _____ _____    ______ ____
ROOT
ATOM      1  F   UNL     1      36.720 -26.240 -15.145  0.00  0.00    -0.230 F 
ATOM      2  O   UNL     1      37.919 -23.736 -13.997  0.00  0.00    -0.332 OA
ATOM      3  C   UNL     1      37.955 -25.975 -13.187  0.00  0.00    +0.177 C 
ATOM      4  C   UNL     1      36.569 -24.217 -13.949  0.00  0.00    +0.235 C 
ATOM      5  C   UNL     1      36.641 -25.731 -13.886  0.00  0.00    +0.237 C 
ATOM      6  C   UNL     1      38.819 -24.806 -13.650  0.00  0.00    +0.176 C 
ENDROOT
BRANCH   4   9
ATOM      7  O   UNL     1      33.798 -24.660 -14.451  0.00  0.00    -0.252 OA
ATOM      8  O   UNL     1      33.942 -22.244 -18.361  0.00  0.00    -0.270 OA
ATOM      9  N   UNL     1      35.843 -23.725 -15.081  0.00  0.00    -0.217 N 
ATOM     10  N   UNL     1      33.884 -23.453 -16.399  0.00  0.00    -0.236 N 
ATOM     11  C   UNL     1      36.521 -22.966 -16.030  0.00  0.00    +0.071 C 
ATOM     12  C   UNL     1      34.465 -23.996 -15.248  0.00  0.00    +0.315 C 
ATOM     13  C   UNL     1      35.962 -22.447 -17.131  0.00  0.00    +0.047 C 
ATOM     14  C   UNL     1      34.515 -22.691 -17.371  0.00  0.00    +0.250 C 
ATOM     15  C   UNL     1      36.715 -21.634 -18.136  0.00  0.00    +0.037 C 
ATOM     16  H   UNL     1      32.926 -23.630 -16.534  0.00  0.00    +0.159 HD
ENDBRANCH   4   9
BRANCH   3  17
ATOM     17  O   UNL     1      37.768 -25.924 -11.777  0.00  0.00    -0.379 OA
ATOM     18  H   UNL     1      37.794 -26.823 -11.414  0.00  0.00    +0.211 HD
ENDBRANCH   3  17
BRANCH   6  19
ATOM     19  C   UNL     1      39.652 -25.130 -14.883  0.00  0.00    +0.169 C 
BRANCH  19  20
ATOM     20  O   UNL     1      41.016 -24.885 -14.587  0.00  0.00    -0.379 OA
ATOM     21  H   UNL     1      41.516 -24.804 -15.414  0.00  0.00    +0.211 HD
ENDBRANCH  19  20
ENDBRANCH   6  19
TORSDOF 4
ENDMDL
MODEL 3
REMARK VINA RESULT:      -7.5      2.268      3.187
REMARK  Name = 11065133
REMARK  4 active torsions:
REMARK  status: ('A' for Active; 'I' for Inactive)
REMARK    1  A    between atoms: C_3  and  O_17
REMARK    2  A    between atoms: C_4  and  N_9
REMARK    3  A    between atoms: C_6  and  C_19
REMARK    4  A    between atoms: C_19  and  O_20
REMARK                            x       y       z     vdW  Elec       q    Type
REMARK                         _______ _______ _______ _____ _____    ______ ____
ROOT
ATOM      1  F   UNL     1      37.380 -23.375 -14.841  0.00  0.00    -0.230 F 
ATOM      2  O   UNL     1      36.661 -25.570 -12.919  0.00  0.00    -0.332 OA
ATOM      3  C   UNL     1      38.649 -25.215 -14.181  0.00  0.00    +0.177 C 
ATOM      4  C   UNL     1      36.293 -25.392 -14.293  0.00  0.00    +0.235 C 
ATOM      5  C   UNL     1      37.469 -24.725 -14.983  0.00  0.00    +0.237 C 
ATOM      6  C   UNL     1      38.079 -25.359 -12.773  0.00  0.00    +0.176 C 
ENDROOT
BRANCH   4   9
ATOM      7  O   UNL     1      34.721 -24.560 -12.066  0.00  0.00    -0.252 OA
ATOM      8  O   UNL     1      31.649 -22.486 -14.787  0.00  0.00    -0.270 OA
ATOM      9  N   UNL     1      35.080 -24.636 -14.372  0.00  0.00    -0.217 N 
ATOM     10  N   UNL     1      33.196 -23.530 -13.434  0.00  0.00    -0.236 N 
ATOM     11  C   UNL     1      34.605 -24.263 -15.626  0.00  0.00    +0.071 C 
ATOM     12  C   UNL     1      34.364 -24.267 -13.209  0.00  0.00    +0.315 C 
ATOM     13  C   UNL     1      33.487 -23.558 -15.839  0.00  0.00    +0.047 C 
ATOM     14  C   UNL     1      32.683 -23.135 -14.661  0.00  0.00    +0.250 C 
ATOM     15  C   UNL     1      32.999 -23.171 -17.199  0.00  0.00    +0.037 C 
ATOM     16  H   UNL     1      32.684 -23.264 -12.638  0.00  0.00    +0.159 HD
ENDBRANCH   4   9
BRANCH   3  17
ATOM     17  O   UNL     1      39.075 -26.480 -14.674  0.00  0.00    -0.379 OA
ATOM     18  H   UNL     1      39.995 -26.637 -14.410  0.00  0.00    +0.211 HD
ENDBRANCH   3  17
BRANCH   6  19
ATOM     19  C   UNL     1      38.278 -24.115 -11.917  0.00  0.00    +0.169 C 
BRANCH  19  20
ATOM     20  O   UNL     1      37.287 -24.098 -10.904  0.00  0.00    -0.379 OA
ATOM     21  H   UNL     1      37.288 -23.233 -10.467  0.00  0.00    +0.211 HD
ENDBRANCH  19  20
ENDBRANCH   6  19
TORSDOF 4
ENDMDL
MODEL 4
REMARK VINA RESULT:      -7.5      2.775      4.051
REMARK  Name = 11065133
REMARK  4 active torsions:
REMARK  status: ('A' for Active; 'I' for Inactive)
REMARK    1  A    between atoms: C_3  and  O_17
REMARK    2  A    between atoms: C_4  and  N_9
REMARK    3  A    between atoms: C_6  and  C_19
REMARK    4  A    between atoms: C_19  and  O_20
REMARK                            x       y       z     vdW  Elec       q    Type
REMARK                         _______ _______ _______ _____ _____    ______ ____
ROOT
ATOM      1  F   UNL     1      36.696 -26.191 -15.361  0.00  0.00    -0.230 F 
ATOM      2  O   UNL     1      38.033 -24.001 -13.797  0.00  0.00    -0.332 OA
ATOM      3  C   UNL     1      37.486 -26.232 -13.169  0.00  0.00    +0.177 C 
ATOM      4  C   UNL     1      36.643 -24.217 -14.076  0.00  0.00    +0.235 C 
ATOM      5  C   UNL     1      36.428 -25.718 -14.113  0.00  0.00    +0.237 C 
ATOM      6  C   UNL     1      38.627 -25.234 -13.345  0.00  0.00    +0.176 C 
ENDROOT
BRANCH   4   9
ATOM      7  O   UNL     1      38.441 -22.765 -15.745  0.00  0.00    -0.252 OA
ATOM      8  O   UNL     1      35.108 -21.744 -18.744  0.00  0.00    -0.270 OA
ATOM      9  N   UNL     1      36.291 -23.558 -15.298  0.00  0.00    -0.217 N 
ATOM     10  N   UNL     1      36.769 -22.262 -17.233  0.00  0.00    -0.236 N 
ATOM     11  C   UNL     1      34.969 -23.614 -15.729  0.00  0.00    +0.071 C 
ATOM     12  C   UNL     1      37.253 -22.858 -16.063  0.00  0.00    +0.315 C 
ATOM     13  C   UNL     1      34.508 -23.043 -16.850  0.00  0.00    +0.047 C 
ATOM     14  C   UNL     1      35.465 -22.291 -17.704  0.00  0.00    +0.250 C 
ATOM     15  C   UNL     1      33.081 -23.119 -17.290  0.00  0.00    +0.037 C 
ATOM     16  H   UNL     1      37.423 -21.771 -17.778  0.00  0.00    +0.159 HD
ENDBRANCH   4   9
BRANCH   3  17
ATOM     17  O   UNL     1      36.998 -26.193 -11.832  0.00  0.00    -0.379 OA
ATOM     18  H   UNL     1      36.083 -26.512 -11.812  0.00  0.00    +0.211 HD
ENDBRANCH   3  17
BRANCH   6  19
ATOM     19  C   UNL     1      39.644 -25.669 -14.392  0.00  0.00    +0.169 C 
BRANCH  19  20
ATOM     20  O   UNL     1      40.639 -24.666 -14.502  0.00  0.00    -0.379 OA
ATOM     21  H   UNL     1      40.349 -23.871 -14.028  0.00  0.00    +0.211 HD
ENDBRANCH  19  20
ENDBRANCH   6  19
TORSDOF 4
ENDMDL
MODEL 5
REMARK VINA RESULT:      -7.3      2.027      5.057
REMARK  Name = 11065133
REMARK  4 active torsions:
REMARK  status: ('A' for Active; 'I' for Inactive)
REMARK    1  A    between atoms: C_3  and  O_17
REMARK    2  A    between atoms: C_4  and  N_9
REMARK    3  A    between atoms: C_6  and  C_19
REMARK    4  A    between atoms: C_19  and  O_20
REMARK                            x       y       z     vdW  Elec       q    Type
REMARK                         _______ _______ _______ _____ _____    ______ ____
ROOT
ATOM      1  F   UNL     1      32.038 -22.000 -14.130  0.00  0.00    -0.230 F 
ATOM      2  O   UNL     1      31.146 -24.343 -15.786  0.00  0.00    -0.332 OA
ATOM      3  C   UNL     1      30.514 -23.678 -13.589  0.00  0.00    +0.177 C 
ATOM      4  C   UNL     1      32.339 -24.163 -15.012  0.00  0.00    +0.235 C 
ATOM      5  C   UNL     1      31.963 -23.320 -13.809  0.00  0.00    +0.237 C 
ATOM      6  C   UNL     1      30.003 -23.951 -15.000  0.00  0.00    +0.176 C 
ENDROOT
BRANCH   4   9
ATOM      7  O   UNL     1      35.047 -23.746 -14.228  0.00  0.00    -0.252 OA
ATOM      8  O   UNL     1      36.119 -21.876 -18.290  0.00  0.00    -0.270 OA
ATOM      9  N   UNL     1      33.357 -23.573 -15.829  0.00  0.00    -0.217 N 
ATOM     10  N   UNL     1      35.569 -22.815 -16.258  0.00  0.00    -0.236 N 
ATOM     11  C   UNL     1      33.024 -23.159 -17.116  0.00  0.00    +0.071 C 
ATOM     12  C   UNL     1      34.678 -23.405 -15.354  0.00  0.00    +0.315 C 
ATOM     13  C   UNL     1      33.878 -22.595 -17.979  0.00  0.00    +0.047 C 
ATOM     14  C   UNL     1      35.286 -22.388 -17.547  0.00  0.00    +0.250 C 
ATOM     15  C   UNL     1      33.494 -22.159 -19.357  0.00  0.00    +0.037 C 
ATOM     16  H   UNL     1      36.493 -22.689 -15.946  0.00  0.00    +0.159 HD
ENDBRANCH   4   9
BRANCH   3  17
ATOM     17  O   UNL     1      30.424 -24.856 -12.794  0.00  0.00    -0.379 OA
ATOM     18  H   UNL     1      30.263 -25.621 -13.367  0.00  0.00    +0.211 HD
ENDBRANCH   3  17
BRANCH   6  19
ATOM     19  C   UNL     1      29.385 -22.725 -15.659  0.00  0.00    +0.169 C 
BRANCH  19  20
ATOM     20  O   UNL     1      29.494 -22.862 -17.065  0.00  0.00    -0.379 OA
ATOM     21  H   UNL     1      29.048 -23.677 -17.345  0.00  0.00    +0.211 HD
ENDBRANCH  19  20
ENDBRANCH   6  19
TORSDOF 4
ENDMDL
MODEL 6
REMARK VINA RESULT:      -7.2      1.974      3.247
REMARK  Name = 11065133
REMARK  4 active torsions:
REMARK  status: ('A' for Active; 'I' for Inactive)
REMARK    1  A    between atoms: C_3  and  O_17
REMARK    2  A    between atoms: C_4  and  N_9
REMARK    3  A    between atoms: C_6  and  C_19
REMARK    4  A    between atoms: C_19  and  O_20
REMARK                            x       y       z     vdW  Elec       q    Type
REMARK                         _______ _______ _______ _____ _____    ______ ____
ROOT
ATOM      1  F   UNL     1      35.663 -25.770 -15.371  0.00  0.00    -0.230 F 
ATOM      2  O   UNL     1      36.107 -23.167 -13.939  0.00  0.00    -0.332 OA
ATOM      3  C   UNL     1      37.168 -25.280 -13.661  0.00  0.00    +0.177 C 
ATOM      4  C   UNL     1      35.088 -24.158 -13.753  0.00  0.00    +0.235 C 
ATOM      5  C   UNL     1      35.725 -25.505 -14.038  0.00  0.00    +0.237 C 
ATOM      6  C   UNL     1      37.394 -23.811 -14.004  0.00  0.00    +0.176 C 
ENDROOT
BRANCH   4   9
ATOM      7  O   UNL     1      32.348 -24.384 -13.003  0.00  0.00    -0.252 OA
ATOM      8  O   UNL     1      30.918 -22.978 -17.141  0.00  0.00    -0.270 OA
ATOM      9  N   UNL     1      33.971 -23.863 -14.598  0.00  0.00    -0.217 N 
ATOM     10  N   UNL     1      31.648 -23.682 -15.071  0.00  0.00    -0.236 N 
ATOM     11  C   UNL     1      34.213 -23.429 -15.898  0.00  0.00    +0.071 C 
ATOM     12  C   UNL     1      32.641 -24.005 -14.139  0.00  0.00    +0.315 C 
ATOM     13  C   UNL     1      33.261 -23.120 -16.788  0.00  0.00    +0.047 C 
ATOM     14  C   UNL     1      31.839 -23.245 -16.373  0.00  0.00    +0.250 C 
ATOM     15  C   UNL     1      33.550 -22.655 -18.180  0.00  0.00    +0.037 C 
ATOM     16  H   UNL     1      30.716 -23.774 -14.770  0.00  0.00    +0.159 HD
ENDBRANCH   4   9
BRANCH   3  17
ATOM     17  O   UNL     1      37.340 -25.493 -12.263  0.00  0.00    -0.379 OA
ATOM     18  H   UNL     1      36.543 -25.205 -11.792  0.00  0.00    +0.211 HD
ENDBRANCH   3  17
BRANCH   6  19
ATOM     19  C   UNL     1      37.946 -23.604 -15.409  0.00  0.00    +0.169 C 
BRANCH  19  20
ATOM     20  O   UNL     1      39.247 -24.161 -15.472  0.00  0.00    -0.379 OA
ATOM     21  H   UNL     1      39.901 -23.477 -15.261  0.00  0.00    +0.211 HD
ENDBRANCH  19  20
ENDBRANCH   6  19
TORSDOF 4
ENDMDL
MODEL 7
REMARK VINA RESULT:      -7.2      6.603      8.839
REMARK  Name = 11065133
REMARK  4 active torsions:
REMARK  status: ('A' for Active; 'I' for Inactive)
REMARK    1  A    between atoms: C_3  and  O_17
REMARK    2  A    between atoms: C_4  and  N_9
REMARK    3  A    between atoms: C_6  and  C_19
REMARK    4  A    between atoms: C_19  and  O_20
REMARK                            x       y       z     vdW  Elec       q    Type
REMARK                         _______ _______ _______ _____ _____    ______ ____
ROOT
ATOM      1  F   UNL     1      33.836 -18.745 -22.853  0.00  0.00    -0.230 F 
ATOM      2  O   UNL     1      35.142 -16.878 -20.896  0.00  0.00    -0.332 OA
ATOM      3  C   UNL     1      34.548 -16.551 -23.179  0.00  0.00    +0.177 C 
ATOM      4  C   UNL     1      35.707 -17.949 -21.664  0.00  0.00    +0.235 C 
ATOM      5  C   UNL     1      34.959 -17.988 -22.983  0.00  0.00    +0.237 C 
ATOM      6  C   UNL     1      34.329 -16.053 -21.753  0.00  0.00    +0.176 C 
ENDROOT
BRANCH   4   9
ATOM      7  O   UNL     1      37.927 -19.499 -20.775  0.00  0.00    -0.252 OA
ATOM      8  O   UNL     1      35.183 -22.624 -18.812  0.00  0.00    -0.270 OA
ATOM      9  N   UNL     1      35.620 -19.170 -20.920  0.00  0.00    -0.217 N 
ATOM     10  N   UNL     1      36.547 -21.051 -19.800  0.00  0.00    -0.236 N 
ATOM     11  C   UNL     1      34.361 -19.664 -20.592  0.00  0.00    +0.071 C 
ATOM     12  C   UNL     1      36.780 -19.873 -20.521  0.00  0.00    +0.315 C 
ATOM     13  C   UNL     1      34.141 -20.791 -19.902  0.00  0.00    +0.047 C 
ATOM     14  C   UNL     1      35.316 -21.582 -19.449  0.00  0.00    +0.250 C 
ATOM     15  C   UNL     1      32.776 -21.299 -19.562  0.00  0.00    +0.037 C 
ATOM     16  H   UNL     1      37.341 -21.555 -19.513  0.00  0.00    +0.159 HD
ENDBRANCH   4   9
BRANCH   3  17
ATOM     17  O   UNL     1      35.606 -15.826 -23.798  0.00  0.00    -0.379 OA
ATOM     18  H   UNL     1      35.975 -15.190 -23.166  0.00  0.00    +0.211 HD
ENDBRANCH   3  17
BRANCH   6  19
ATOM     19  C   UNL     1      32.884 -16.187 -21.290  0.00  0.00    +0.169 C 
BRANCH  19  20
ATOM     20  O   UNL     1      32.184 -15.006 -21.642  0.00  0.00    -0.379 OA
ATOM     21  H   UNL     1      32.489 -14.272 -21.087  0.00  0.00    +0.211 HD
ENDBRANCH  19  20
ENDBRANCH   6  19
TORSDOF 4
ENDMDL
MODEL 8
REMARK VINA RESULT:      -7.2      2.032      5.655
REMARK  Name = 11065133
REMARK  4 active torsions:
REMARK  status: ('A' for Active; 'I' for Inactive)
REMARK    1  A    between atoms: C_3  and  O_17
REMARK    2  A    between atoms: C_4  and  N_9
REMARK    3  A    between atoms: C_6  and  C_19
REMARK    4  A    between atoms: C_19  and  O_20
REMARK                            x       y       z     vdW  Elec       q    Type
REMARK                         _______ _______ _______ _____ _____    ______ ____
ROOT
ATOM      1  F   UNL     1      31.929 -22.371 -13.698  0.00  0.00    -0.230 F 
ATOM      2  O   UNL     1      32.044 -24.584 -15.727  0.00  0.00    -0.332 OA
ATOM      3  C   UNL     1      30.250 -23.853 -14.341  0.00  0.00    +0.177 C 
ATOM      4  C   UNL     1      32.509 -24.553 -14.371  0.00  0.00    +0.235 C 
ATOM      5  C   UNL     1      31.548 -23.673 -13.594  0.00  0.00    +0.237 C 
ATOM      6  C   UNL     1      30.703 -24.059 -15.784  0.00  0.00    +0.176 C 
ENDROOT
BRANCH   4   9
ATOM      7  O   UNL     1      34.269 -24.755 -12.138  0.00  0.00    -0.252 OA
ATOM      8  O   UNL     1      37.691 -22.710 -14.429  0.00  0.00    -0.270 OA
ATOM      9  N   UNL     1      33.863 -24.088 -14.339  0.00  0.00    -0.217 N 
ATOM     10  N   UNL     1      35.967 -23.733 -13.291  0.00  0.00    -0.236 N 
ATOM     11  C   UNL     1      34.389 -23.484 -15.477  0.00  0.00    +0.071 C 
ATOM     12  C   UNL     1      34.664 -24.232 -13.182  0.00  0.00    +0.315 C 
ATOM     13  C   UNL     1      35.637 -23.008 -15.579  0.00  0.00    +0.047 C 
ATOM     14  C   UNL     1      36.537 -23.125 -14.401  0.00  0.00    +0.250 C 
ATOM     15  C   UNL     1      36.177 -22.363 -16.815  0.00  0.00    +0.037 C 
ATOM     16  H   UNL     1      36.541 -23.823 -12.498  0.00  0.00    +0.159 HD
ENDBRANCH   4   9
BRANCH   3  17
ATOM     17  O   UNL     1      29.576 -25.013 -13.865  0.00  0.00    -0.379 OA
ATOM     18  H   UNL     1      30.211 -25.597 -13.421  0.00  0.00    +0.211 HD
ENDBRANCH   3  17
BRANCH   6  19
ATOM     19  C   UNL     1      30.746 -22.765 -16.586  0.00  0.00    +0.169 C 
BRANCH  19  20
ATOM     20  O   UNL     1      29.430 -22.447 -17.004  0.00  0.00    -0.379 OA
ATOM     21  H   UNL     1      28.920 -22.120 -16.246  0.00  0.00    +0.211 HD
ENDBRANCH  19  20
ENDBRANCH   6  19
TORSDOF 4
ENDMDL
MODEL 9
REMARK VINA RESULT:      -7.1      8.386     10.044
REMARK  Name = 11065133
REMARK  4 active torsions:
REMARK  status: ('A' for Active; 'I' for Inactive)
REMARK    1  A    between atoms: C_3  and  O_17
REMARK    2  A    between atoms: C_4  and  N_9
REMARK    3  A    between atoms: C_6  and  C_19
REMARK    4  A    between atoms: C_19  and  O_20
REMARK                            x       y       z     vdW  Elec       q    Type
REMARK                         _______ _______ _______ _____ _____    ______ ____
ROOT
ATOM      1  F   UNL     1      34.464 -16.871 -20.949  0.00  0.00    -0.230 F 
ATOM      2  O   UNL     1      34.483 -19.165 -22.889  0.00  0.00    -0.332 OA
ATOM      3  C   UNL     1      35.454 -18.968 -20.723  0.00  0.00    +0.177 C 
ATOM      4  C   UNL     1      35.282 -17.975 -22.862  0.00  0.00    +0.235 C 
ATOM      5  C   UNL     1      35.503 -17.623 -21.403  0.00  0.00    +0.237 C 
ATOM      6  C   UNL     1      34.460 -19.754 -21.573  0.00  0.00    +0.176 C 
ENDROOT
BRANCH   4   9
ATOM      7  O   UNL     1      34.682 -18.077 -25.647  0.00  0.00    -0.252 OA
ATOM      8  O   UNL     1      32.760 -13.901 -25.565  0.00  0.00    -0.270 OA
ATOM      9  N   UNL     1      34.628 -16.941 -23.608  0.00  0.00    -0.217 N 
ATOM     10  N   UNL     1      33.726 -15.993 -25.592  0.00  0.00    -0.236 N 
ATOM     11  C   UNL     1      34.243 -15.780 -22.944  0.00  0.00    +0.071 C 
ATOM     12  C   UNL     1      34.371 -17.080 -24.991  0.00  0.00    +0.315 C 
ATOM     13  C   UNL     1      33.626 -14.741 -23.521  0.00  0.00    +0.047 C 
ATOM     14  C   UNL     1      33.324 -14.818 -24.975  0.00  0.00    +0.250 C 
ATOM     15  C   UNL     1      33.224 -13.504 -22.783  0.00  0.00    +0.037 C 
ATOM     16  H   UNL     1      33.539 -16.070 -26.555  0.00  0.00    +0.159 HD
ENDBRANCH   4   9
BRANCH   3  17
ATOM     17  O   UNL     1      36.738 -19.580 -20.772  0.00  0.00    -0.379 OA
ATOM     18  H   UNL     1      36.693 -20.386 -21.309  0.00  0.00    +0.211 HD
ENDBRANCH   3  17
BRANCH   6  19
ATOM     19  C   UNL     1      33.031 -19.670 -21.053  0.00  0.00    +0.169 C 
BRANCH  19  20
ATOM     20  O   UNL     1      32.726 -20.874 -20.371  0.00  0.00    -0.379 OA
ATOM     21  H   UNL     1      31.794 -20.865 -20.102  0.00  0.00    +0.211 HD
ENDBRANCH  19  20
ENDBRANCH   6  19
TORSDOF 4
ENDMDL
