MODEL 1
REMARK VINA RESULT:     -11.3      0.000      0.000
REMARK  Name = 4708
REMARK  3 active torsions:
REMARK  status: ('A' for Active; 'I' for Inactive)
REMARK    1  A    between atoms: N_1  and  C_14
REMARK    2  A    between atoms: C_8  and  N_21
REMARK    3  A    between atoms: C_22  and  C_24
REMARK                            x       y       z     vdW  Elec       q    Type
REMARK                         _______ _______ _______ _____ _____    ______ ____
ROOT
ATOM      1  N   UNL     1      33.256 -22.571 -18.117  0.00  0.00    -0.301 N 
ATOM      2  N   UNL     1      33.617 -24.514 -14.482  0.00  0.00    -0.248 NA
ATOM      3  N   UNL     1      34.567 -23.747 -16.559  0.00  0.00    -0.233 NA
ATOM      4  C   UNL     1      32.246 -23.318 -16.043  0.00  0.00    +0.117 C 
ATOM      5  C   UNL     1      32.427 -23.988 -14.822  0.00  0.00    +0.067 C 
ATOM      6  C   UNL     1      33.363 -23.232 -16.869  0.00  0.00    +0.115 C 
ATOM      7  C   UNL     1      30.997 -22.771 -16.390  0.00  0.00    +0.001 C 
ATOM      8  C   UNL     1      29.920 -22.891 -15.518  0.00  0.00    +0.047 C 
ATOM      9  C   UNL     1      31.332 -24.093 -13.969  0.00  0.00    +0.016 C 
ATOM     10  C   UNL     1      30.087 -23.553 -14.306  0.00  0.00    +0.016 C 
ATOM     11  C   UNL     1      34.622 -24.365 -15.367  0.00  0.00    +0.251 C 
ATOM     12  H   UNL     1      32.359 -22.622 -18.519  0.00  0.00    +0.153 HD
ENDROOT
BRANCH   1  14
ATOM     13 BR   UNL     1      34.060 -19.035 -21.956  0.00  0.00    -0.049 Br
ATOM     14  C   UNL     1      34.183 -21.855 -18.892  0.00  0.00    +0.050 C 
ATOM     15  C   UNL     1      33.741 -20.957 -19.869  0.00  0.00    +0.021 C 
ATOM     16  C   UNL     1      35.555 -22.034 -18.690  0.00  0.00    +0.015 C 
ATOM     17  C   UNL     1      34.663 -20.245 -20.637  0.00  0.00    +0.036 C 
ATOM     18  C   UNL     1      36.476 -21.322 -19.459  0.00  0.00    +0.002 C 
ATOM     19  C   UNL     1      36.031 -20.428 -20.432  0.00  0.00    +0.007 C 
ENDBRANCH   1  14
BRANCH   8  21
ATOM     20  O   UNL     1      27.844 -23.855 -17.462  0.00  0.00    -0.270 OA
ATOM     21  N   UNL     1      28.679 -22.352 -15.856  0.00  0.00    -0.281 N 
ATOM     22  C   UNL     1      27.743 -22.845 -16.775  0.00  0.00    +0.250 C 
ATOM     23  H   UNL     1      28.428 -21.522 -15.389  0.00  0.00    +0.155 HD
BRANCH  22  24
ATOM     24  C   UNL     1      26.533 -21.977 -16.850  0.00  0.00    +0.058 C 
ATOM     25  C   UNL     1      26.211 -21.354 -17.988  0.00  0.00    +0.005 C 
ENDBRANCH  22  24
ENDBRANCH   8  21
TORSDOF 3
ENDMDL
MODEL 2
REMARK VINA RESULT:     -10.9      6.964     10.039
REMARK  Name = 4708
REMARK  3 active torsions:
REMARK  status: ('A' for Active; 'I' for Inactive)
REMARK    1  A    between atoms: N_1  and  C_14
REMARK    2  A    between atoms: C_8  and  N_21
REMARK    3  A    between atoms: C_22  and  C_24
REMARK                            x       y       z     vdW  Elec       q    Type
REMARK                         _______ _______ _______ _____ _____    ______ ____
ROOT
ATOM      1  N   UNL     1      35.134 -17.263 -21.676  0.00  0.00    -0.301 N 
ATOM      2  N   UNL     1      34.027 -16.092 -25.488  0.00  0.00    -0.248 NA
ATOM      3  N   UNL     1      35.161 -17.613 -24.002  0.00  0.00    -0.233 NA
ATOM      4  C   UNL     1      33.974 -15.700 -23.123  0.00  0.00    +0.117 C 
ATOM      5  C   UNL     1      33.629 -15.351 -24.439  0.00  0.00    +0.067 C 
ATOM      6  C   UNL     1      34.745 -16.849 -22.974  0.00  0.00    +0.115 C 
ATOM      7  C   UNL     1      33.553 -14.918 -22.033  0.00  0.00    +0.001 C 
ATOM      8  C   UNL     1      32.783 -13.780 -22.250  0.00  0.00    +0.047 C 
ATOM      9  C   UNL     1      32.857 -14.207 -24.627  0.00  0.00    +0.016 C 
ATOM     10  C   UNL     1      32.435 -13.424 -23.549  0.00  0.00    +0.016 C 
ATOM     11  C   UNL     1      34.770 -17.182 -25.214  0.00  0.00    +0.251 C 
ATOM     12  H   UNL     1      35.240 -16.522 -21.038  0.00  0.00    +0.153 HD
ENDROOT
BRANCH   1  14
ATOM     13 BR   UNL     1      33.173 -21.687 -19.562  0.00  0.00    -0.049 Br
ATOM     14  C   UNL     1      35.394 -18.528 -21.125  0.00  0.00    +0.050 C 
ATOM     15  C   UNL     1      34.341 -19.339 -20.692  0.00  0.00    +0.021 C 
ATOM     16  C   UNL     1      36.710 -18.985 -21.005  0.00  0.00    +0.015 C 
ATOM     17  C   UNL     1      34.601 -20.596 -20.146  0.00  0.00    +0.036 C 
ATOM     18  C   UNL     1      36.970 -20.241 -20.457  0.00  0.00    +0.002 C 
ATOM     19  C   UNL     1      35.916 -21.047 -20.028  0.00  0.00    +0.007 C 
ENDBRANCH   1  14
BRANCH   8  21
ATOM     20  O   UNL     1      31.110 -11.287 -22.191  0.00  0.00    -0.270 OA
ATOM     21  N   UNL     1      32.362 -13.000 -21.173  0.00  0.00    -0.281 N 
ATOM     22  C   UNL     1      31.577 -11.839 -21.202  0.00  0.00    +0.250 C 
ATOM     23  H   UNL     1      32.652 -13.303 -20.283  0.00  0.00    +0.155 HD
BRANCH  22  24
ATOM     24  C   UNL     1      31.345 -11.297 -19.832  0.00  0.00    +0.058 C 
ATOM     25  C   UNL     1      31.685 -10.040 -19.530  0.00  0.00    +0.005 C 
ENDBRANCH  22  24
ENDBRANCH   8  21
TORSDOF 3
ENDMDL
MODEL 3
REMARK VINA RESULT:     -10.6      1.119      1.570
REMARK  Name = 4708
REMARK  3 active torsions:
REMARK  status: ('A' for Active; 'I' for Inactive)
REMARK    1  A    between atoms: N_1  and  C_14
REMARK    2  A    between atoms: C_8  and  N_21
REMARK    3  A    between atoms: C_22  and  C_24
REMARK                            x       y       z     vdW  Elec       q    Type
REMARK                         _______ _______ _______ _____ _____    ______ ____
ROOT
ATOM      1  N   UNL     1      32.709 -22.144 -18.637  0.00  0.00    -0.301 N 
ATOM      2  N   UNL     1      33.791 -24.118 -15.164  0.00  0.00    -0.248 NA
ATOM      3  N   UNL     1      34.343 -23.219 -17.330  0.00  0.00    -0.233 NA
ATOM      4  C   UNL     1      32.095 -23.029 -16.463  0.00  0.00    +0.117 C 
ATOM      5  C   UNL     1      32.520 -23.704 -15.307  0.00  0.00    +0.067 C 
ATOM      6  C   UNL     1      33.063 -22.818 -17.441  0.00  0.00    +0.115 C 
ATOM      7  C   UNL     1      30.764 -22.600 -16.604  0.00  0.00    +0.001 C 
ATOM      8  C   UNL     1      29.845 -22.842 -15.588  0.00  0.00    +0.047 C 
ATOM      9  C   UNL     1      31.579 -23.933 -14.307  0.00  0.00    +0.016 C 
ATOM     10  C   UNL     1      30.253 -23.510 -14.438  0.00  0.00    +0.016 C 
ATOM     11  C   UNL     1      34.634 -23.853 -16.182  0.00  0.00    +0.251 C 
ATOM     12  H   UNL     1      31.771 -22.274 -18.903  0.00  0.00    +0.153 HD
ENDROOT
BRANCH   1  14
ATOM     13 BR   UNL     1      37.446 -20.446 -20.238  0.00  0.00    -0.049 Br
ATOM     14  C   UNL     1      33.438 -21.325 -19.513  0.00  0.00    +0.050 C 
ATOM     15  C   UNL     1      34.835 -21.295 -19.453  0.00  0.00    +0.021 C 
ATOM     16  C   UNL     1      32.772 -20.533 -20.454  0.00  0.00    +0.015 C 
ATOM     17  C   UNL     1      35.558 -20.482 -20.325  0.00  0.00    +0.036 C 
ATOM     18  C   UNL     1      33.496 -19.719 -21.325  0.00  0.00    +0.002 C 
ATOM     19  C   UNL     1      34.889 -19.694 -21.261  0.00  0.00    +0.007 C 
ENDBRANCH   1  14
BRANCH   8  21
ATOM     20  O   UNL     1      27.861 -23.322 -17.791  0.00  0.00    -0.270 OA
ATOM     21  N   UNL     1      28.522 -22.420 -15.720  0.00  0.00    -0.281 N 
ATOM     22  C   UNL     1      27.635 -22.675 -16.775  0.00  0.00    +0.250 C 
ATOM     23  H   UNL     1      28.167 -21.878 -14.980  0.00  0.00    +0.155 HD
BRANCH  22  24
ATOM     24  C   UNL     1      26.303 -22.046 -16.540  0.00  0.00    +0.058 C 
ATOM     25  C   UNL     1      25.818 -21.140 -17.394  0.00  0.00    +0.005 C 
ENDBRANCH  22  24
ENDBRANCH   8  21
TORSDOF 3
ENDMDL
MODEL 4
REMARK VINA RESULT:     -10.5      6.531      9.867
REMARK  Name = 4708
REMARK  3 active torsions:
REMARK  status: ('A' for Active; 'I' for Inactive)
REMARK    1  A    between atoms: N_1  and  C_14
REMARK    2  A    between atoms: C_8  and  N_21
REMARK    3  A    between atoms: C_22  and  C_24
REMARK                            x       y       z     vdW  Elec       q    Type
REMARK                         _______ _______ _______ _____ _____    ______ ____
ROOT
ATOM      1  N   UNL     1      34.323 -17.744 -21.769  0.00  0.00    -0.301 N 
ATOM      2  N   UNL     1      34.409 -16.938 -25.828  0.00  0.00    -0.248 NA
ATOM      3  N   UNL     1      34.810 -18.418 -23.969  0.00  0.00    -0.233 NA
ATOM      4  C   UNL     1      33.897 -16.211 -23.601  0.00  0.00    +0.117 C 
ATOM      5  C   UNL     1      33.950 -15.994 -24.987  0.00  0.00    +0.067 C 
ATOM      6  C   UNL     1      34.345 -17.452 -23.156  0.00  0.00    +0.115 C 
ATOM      7  C   UNL     1      33.416 -15.218 -22.730  0.00  0.00    +0.001 C 
ATOM      8  C   UNL     1      32.983 -13.998 -23.239  0.00  0.00    +0.047 C 
ATOM      9  C   UNL     1      33.510 -14.764 -25.469  0.00  0.00    +0.016 C 
ATOM     10  C   UNL     1      33.030 -13.771 -24.611  0.00  0.00    +0.016 C 
ATOM     11  C   UNL     1      34.813 -18.098 -25.275  0.00  0.00    +0.251 C 
ATOM     12  H   UNL     1      34.437 -16.953 -21.195  0.00  0.00    +0.153 HD
ENDROOT
BRANCH   1  14
ATOM     13 BR   UNL     1      36.651 -21.732 -19.208  0.00  0.00    -0.049 Br
ATOM     14  C   UNL     1      34.168 -18.944 -21.057  0.00  0.00    +0.050 C 
ATOM     15  C   UNL     1      35.288 -19.625 -20.571  0.00  0.00    +0.021 C 
ATOM     16  C   UNL     1      32.892 -19.465 -20.827  0.00  0.00    +0.015 C 
ATOM     17  C   UNL     1      35.133 -20.816 -19.862  0.00  0.00    +0.036 C 
ATOM     18  C   UNL     1      32.736 -20.657 -20.119  0.00  0.00    +0.002 C 
ATOM     19  C   UNL     1      33.857 -21.332 -19.636  0.00  0.00    +0.007 C 
ENDBRANCH   1  14
BRANCH   8  21
ATOM     20  O   UNL     1      32.341 -14.107 -20.307  0.00  0.00    -0.270 OA
ATOM     21  N   UNL     1      32.504 -13.008 -22.382  0.00  0.00    -0.281 N 
ATOM     22  C   UNL     1      32.221 -13.113 -21.013  0.00  0.00    +0.250 C 
ATOM     23  H   UNL     1      32.348 -12.125 -22.788  0.00  0.00    +0.155 HD
BRANCH  22  24
ATOM     24  C   UNL     1      31.726 -11.822 -20.452  0.00  0.00    +0.058 C 
ATOM     25  C   UNL     1      30.635 -11.236 -20.953  0.00  0.00    +0.005 C 
ENDBRANCH  22  24
ENDBRANCH   8  21
TORSDOF 3
ENDMDL
MODEL 5
REMARK VINA RESULT:     -10.4      3.214      6.862
REMARK  Name = 4708
REMARK  3 active torsions:
REMARK  status: ('A' for Active; 'I' for Inactive)
REMARK    1  A    between atoms: N_1  and  C_14
REMARK    2  A    between atoms: C_8  and  N_21
REMARK    3  A    between atoms: C_22  and  C_24
REMARK                            x       y       z     vdW  Elec       q    Type
REMARK                         _______ _______ _______ _____ _____    ______ ____
ROOT
ATOM      1  N   UNL     1      32.725 -23.163 -14.941  0.00  0.00    -0.301 N 
ATOM      2  N   UNL     1      36.176 -24.420 -13.033  0.00  0.00    -0.248 NA
ATOM      3  N   UNL     1      33.774 -24.267 -13.148  0.00  0.00    -0.233 NA
ATOM      4  C   UNL     1      35.147 -23.287 -14.878  0.00  0.00    +0.117 C 
ATOM      5  C   UNL     1      36.283 -23.738 -14.187  0.00  0.00    +0.067 C 
ATOM      6  C   UNL     1      33.917 -23.587 -14.301  0.00  0.00    +0.115 C 
ATOM      7  C   UNL     1      35.270 -22.574 -16.084  0.00  0.00    +0.001 C 
ATOM      8  C   UNL     1      36.530 -22.307 -16.609  0.00  0.00    +0.047 C 
ATOM      9  C   UNL     1      37.532 -23.456 -14.734  0.00  0.00    +0.016 C 
ATOM     10  C   UNL     1      37.663 -22.749 -15.933  0.00  0.00    +0.016 C 
ATOM     11  C   UNL     1      34.929 -24.648 -12.576  0.00  0.00    +0.251 C 
ATOM     12  H   UNL     1      32.827 -22.335 -15.462  0.00  0.00    +0.153 HD
ENDROOT
BRANCH   1  14
ATOM     13 BR   UNL     1      27.623 -22.397 -16.066  0.00  0.00    -0.049 Br
ATOM     14  C   UNL     1      31.428 -23.699 -14.978  0.00  0.00    +0.050 C 
ATOM     15  C   UNL     1      30.356 -22.920 -15.424  0.00  0.00    +0.021 C 
ATOM     16  C   UNL     1      31.200 -25.016 -14.567  0.00  0.00    +0.015 C 
ATOM     17  C   UNL     1      29.068 -23.454 -15.461  0.00  0.00    +0.036 C 
ATOM     18  C   UNL     1      29.911 -25.549 -14.603  0.00  0.00    +0.002 C 
ATOM     19  C   UNL     1      28.845 -24.769 -15.051  0.00  0.00    +0.007 C 
ENDBRANCH   1  14
BRANCH   8  21
ATOM     20  O   UNL     1      35.044 -22.586 -19.204  0.00  0.00    -0.270 OA
ATOM     21  N   UNL     1      36.659 -21.601 -17.804  0.00  0.00    -0.281 N 
ATOM     22  C   UNL     1      35.935 -21.772 -18.992  0.00  0.00    +0.250 C 
ATOM     23  H   UNL     1      37.342 -20.892 -17.814  0.00  0.00    +0.155 HD
BRANCH  22  24
ATOM     24  C   UNL     1      36.374 -20.814 -20.048  0.00  0.00    +0.058 C 
ATOM     25  C   UNL     1      35.475 -20.151 -20.782  0.00  0.00    +0.005 C 
ENDBRANCH  22  24
ENDBRANCH   8  21
TORSDOF 3
ENDMDL
MODEL 6
REMARK VINA RESULT:     -10.2      2.523      3.689
REMARK  Name = 4708
REMARK  3 active torsions:
REMARK  status: ('A' for Active; 'I' for Inactive)
REMARK    1  A    between atoms: N_1  and  C_14
REMARK    2  A    between atoms: C_8  and  N_21
REMARK    3  A    between atoms: C_22  and  C_24
REMARK                            x       y       z     vdW  Elec       q    Type
REMARK                         _______ _______ _______ _____ _____    ______ ____
ROOT
ATOM      1  N   UNL     1      34.586 -22.259 -18.358  0.00  0.00    -0.301 N 
ATOM      2  N   UNL     1      37.447 -22.512 -15.378  0.00  0.00    -0.248 NA
ATOM      3  N   UNL     1      36.765 -21.826 -17.585  0.00  0.00    -0.233 NA
ATOM      4  C   UNL     1      35.216 -22.972 -16.127  0.00  0.00    +0.117 C 
ATOM      5  C   UNL     1      36.227 -23.029 -15.153  0.00  0.00    +0.067 C 
ATOM      6  C   UNL     1      35.554 -22.353 -17.327  0.00  0.00    +0.115 C 
ATOM      7  C   UNL     1      33.943 -23.516 -15.881  0.00  0.00    +0.001 C 
ATOM      8  C   UNL     1      33.670 -24.122 -14.659  0.00  0.00    +0.047 C 
ATOM      9  C   UNL     1      35.925 -23.641 -13.939  0.00  0.00    +0.016 C 
ATOM     10  C   UNL     1      34.663 -24.184 -13.687  0.00  0.00    +0.016 C 
ATOM     11  C   UNL     1      37.650 -21.938 -16.581  0.00  0.00    +0.251 C 
ATOM     12  H   UNL     1      33.934 -22.996 -18.359  0.00  0.00    +0.153 HD
ENDROOT
BRANCH   1  14
ATOM     13 BR   UNL     1      36.727 -18.850 -21.775  0.00  0.00    -0.049 Br
ATOM     14  C   UNL     1      34.377 -21.316 -19.377  0.00  0.00    +0.050 C 
ATOM     15  C   UNL     1      35.463 -20.664 -19.968  0.00  0.00    +0.021 C 
ATOM     16  C   UNL     1      33.080 -21.024 -19.809  0.00  0.00    +0.015 C 
ATOM     17  C   UNL     1      35.254 -19.729 -20.981  0.00  0.00    +0.036 C 
ATOM     18  C   UNL     1      32.871 -20.088 -20.822  0.00  0.00    +0.002 C 
ATOM     19  C   UNL     1      33.958 -19.440 -21.408  0.00  0.00    +0.007 C 
ENDBRANCH   1  14
BRANCH   8  21
ATOM     20  O   UNL     1      31.020 -22.772 -14.238  0.00  0.00    -0.270 OA
ATOM     21  N   UNL     1      32.410 -24.664 -14.409  0.00  0.00    -0.281 N 
ATOM     22  C   UNL     1      31.198 -23.984 -14.220  0.00  0.00    +0.250 C 
ATOM     23  H   UNL     1      32.365 -25.646 -14.361  0.00  0.00    +0.155 HD
BRANCH  22  24
ATOM     24  C   UNL     1      30.069 -24.928 -13.977  0.00  0.00    +0.058 C 
ATOM     25  C   UNL     1      29.076 -25.045 -14.865  0.00  0.00    +0.005 C 
ENDBRANCH  22  24
ENDBRANCH   8  21
TORSDOF 3
ENDMDL
MODEL 7
REMARK VINA RESULT:     -10.2      7.496     11.053
REMARK  Name = 4708
REMARK  3 active torsions:
REMARK  status: ('A' for Active; 'I' for Inactive)
REMARK    1  A    between atoms: N_1  and  C_14
REMARK    2  A    between atoms: C_8  and  N_21
REMARK    3  A    between atoms: C_22  and  C_24
REMARK                            x       y       z     vdW  Elec       q    Type
REMARK                         _______ _______ _______ _____ _____    ______ ____
ROOT
ATOM      1  N   UNL     1      32.527 -14.208 -22.336  0.00  0.00    -0.301 N 
ATOM      2  N   UNL     1      33.631 -15.333 -26.163  0.00  0.00    -0.248 NA
ATOM      3  N   UNL     1      32.468 -13.851 -24.660  0.00  0.00    -0.233 NA
ATOM      4  C   UNL     1      33.717 -15.733 -23.800  0.00  0.00    +0.117 C 
ATOM      5  C   UNL     1      34.060 -16.066 -25.120  0.00  0.00    +0.067 C 
ATOM      6  C   UNL     1      32.915 -14.607 -23.639  0.00  0.00    +0.115 C 
ATOM      7  C   UNL     1      34.171 -16.506 -22.717  0.00  0.00    +0.001 C 
ATOM      8  C   UNL     1      34.972 -17.620 -22.946  0.00  0.00    +0.047 C 
ATOM      9  C   UNL     1      34.862 -17.187 -25.320  0.00  0.00    +0.016 C 
ATOM     10  C   UNL     1      35.318 -17.961 -24.249  0.00  0.00    +0.016 C 
ATOM     11  C   UNL     1      32.859 -14.266 -25.877  0.00  0.00    +0.251 C 
ATOM     12  H   UNL     1      32.449 -14.955 -21.699  0.00  0.00    +0.153 HD
ENDROOT
BRANCH   1  14
ATOM     13 BR   UNL     1      31.806  -9.039 -23.134  0.00  0.00    -0.049 Br
ATOM     14  C   UNL     1      32.236 -12.954 -21.776  0.00  0.00    +0.050 C 
ATOM     15  C   UNL     1      32.176 -11.817 -22.588  0.00  0.00    +0.021 C 
ATOM     16  C   UNL     1      32.003 -12.833 -20.403  0.00  0.00    +0.015 C 
ATOM     17  C   UNL     1      31.884 -10.572 -22.032  0.00  0.00    +0.036 C 
ATOM     18  C   UNL     1      31.712 -11.588 -19.847  0.00  0.00    +0.002 C 
ATOM     19  C   UNL     1      31.653 -10.457 -20.661  0.00  0.00    +0.007 C 
ENDBRANCH   1  14
BRANCH   8  21
ATOM     20  O   UNL     1      33.676 -19.927 -21.525  0.00  0.00    -0.270 OA
ATOM     21  N   UNL     1      35.425 -18.392 -21.877  0.00  0.00    -0.281 N 
ATOM     22  C   UNL     1      34.777 -19.465 -21.248  0.00  0.00    +0.250 C 
ATOM     23  H   UNL     1      36.311 -18.155 -21.519  0.00  0.00    +0.155 HD
BRANCH  22  24
ATOM     24  C   UNL     1      35.597 -20.031 -20.138  0.00  0.00    +0.058 C 
ATOM     25  C   UNL     1      35.479 -21.316 -19.793  0.00  0.00    +0.005 C 
ENDBRANCH  22  24
ENDBRANCH   8  21
TORSDOF 3
ENDMDL
MODEL 8
REMARK VINA RESULT:     -10.1      1.085      1.272
REMARK  Name = 4708
REMARK  3 active torsions:
REMARK  status: ('A' for Active; 'I' for Inactive)
REMARK    1  A    between atoms: N_1  and  C_14
REMARK    2  A    between atoms: C_8  and  N_21
REMARK    3  A    between atoms: C_22  and  C_24
REMARK                            x       y       z     vdW  Elec       q    Type
REMARK                         _______ _______ _______ _____ _____    ______ ____
ROOT
ATOM      1  N   UNL     1      34.052 -22.836 -17.770  0.00  0.00    -0.301 N 
ATOM      2  N   UNL     1      35.046 -24.361 -14.053  0.00  0.00    -0.248 NA
ATOM      3  N   UNL     1      35.682 -23.546 -16.230  0.00  0.00    -0.233 NA
ATOM      4  C   UNL     1      33.353 -23.646 -15.593  0.00  0.00    +0.117 C 
ATOM      5  C   UNL     1      33.749 -24.161 -14.348  0.00  0.00    +0.067 C 
ATOM      6  C   UNL     1      34.375 -23.358 -16.493  0.00  0.00    +0.115 C 
ATOM      7  C   UNL     1      31.994 -23.440 -15.892  0.00  0.00    +0.001 C 
ATOM      8  C   UNL     1      31.020 -23.748 -14.947  0.00  0.00    +0.047 C 
ATOM      9  C   UNL     1      32.753 -24.460 -13.422  0.00  0.00    +0.016 C 
ATOM     10  C   UNL     1      31.401 -24.259 -13.711  0.00  0.00    +0.016 C 
ATOM     11  C   UNL     1      35.941 -24.043 -15.009  0.00  0.00    +0.251 C 
ATOM     12  H   UNL     1      33.176 -23.129 -18.109  0.00  0.00    +0.153 HD
ENDROOT
BRANCH   1  14
ATOM     13 BR   UNL     1      33.766 -19.342 -21.720  0.00  0.00    -0.049 Br
ATOM     14  C   UNL     1      34.739 -21.979 -18.644  0.00  0.00    +0.050 C 
ATOM     15  C   UNL     1      34.037 -21.219 -19.584  0.00  0.00    +0.021 C 
ATOM     16  C   UNL     1      36.133 -21.880 -18.580  0.00  0.00    +0.015 C 
ATOM     17  C   UNL     1      34.721 -20.367 -20.451  0.00  0.00    +0.036 C 
ATOM     18  C   UNL     1      36.817 -21.028 -19.448  0.00  0.00    +0.002 C 
ATOM     19  C   UNL     1      36.111 -20.272 -20.383  0.00  0.00    +0.007 C 
ENDBRANCH   1  14
BRANCH   8  21
ATOM     20  O   UNL     1      29.716 -22.182 -17.154  0.00  0.00    -0.270 OA
ATOM     21  N   UNL     1      29.671 -23.547 -15.237  0.00  0.00    -0.281 N 
ATOM     22  C   UNL     1      29.113 -22.803 -16.286  0.00  0.00    +0.250 C 
ATOM     23  H   UNL     1      29.031 -23.983 -14.630  0.00  0.00    +0.155 HD
BRANCH  22  24
ATOM     24  C   UNL     1      27.623 -22.834 -16.252  0.00  0.00    +0.058 C 
ATOM     25  C   UNL     1      26.908 -21.911 -16.903  0.00  0.00    +0.005 C 
ENDBRANCH  22  24
ENDBRANCH   8  21
TORSDOF 3
ENDMDL
MODEL 9
REMARK VINA RESULT:      -9.8      2.516      4.139
REMARK  Name = 4708
REMARK  3 active torsions:
REMARK  status: ('A' for Active; 'I' for Inactive)
REMARK    1  A    between atoms: N_1  and  C_14
REMARK    2  A    between atoms: C_8  and  N_21
REMARK    3  A    between atoms: C_22  and  C_24
REMARK                            x       y       z     vdW  Elec       q    Type
REMARK                         _______ _______ _______ _____ _____    ______ ____
ROOT
ATOM      1  N   UNL     1      34.250 -20.406 -20.848  0.00  0.00    -0.301 N 
ATOM      2  N   UNL     1      36.746 -22.133 -18.034  0.00  0.00    -0.248 NA
ATOM      3  N   UNL     1      36.416 -20.824 -20.030  0.00  0.00    -0.233 NA
ATOM      4  C   UNL     1      34.522 -21.730 -18.833  0.00  0.00    +0.117 C 
ATOM      5  C   UNL     1      35.417 -22.293 -17.909  0.00  0.00    +0.067 C 
ATOM      6  C   UNL     1      35.090 -21.003 -19.875  0.00  0.00    +0.115 C 
ATOM      7  C   UNL     1      33.133 -21.903 -18.694  0.00  0.00    +0.001 C 
ATOM      8  C   UNL     1      32.628 -22.641 -17.628  0.00  0.00    +0.047 C 
ATOM      9  C   UNL     1      34.884 -23.027 -16.853  0.00  0.00    +0.016 C 
ATOM     10  C   UNL     1      33.505 -23.203 -16.707  0.00  0.00    +0.016 C 
ATOM     11  C   UNL     1      37.174 -21.407 -19.086  0.00  0.00    +0.251 C 
ATOM     12  H   UNL     1      33.409 -20.894 -21.000  0.00  0.00    +0.153 HD
ENDROOT
BRANCH   1  14
ATOM     13 BR   UNL     1      34.181 -15.130 -21.060  0.00  0.00    -0.049 Br
ATOM     14  C   UNL     1      34.385 -19.252 -21.635  0.00  0.00    +0.050 C 
ATOM     15  C   UNL     1      34.241 -17.985 -21.060  0.00  0.00    +0.021 C 
ATOM     16  C   UNL     1      34.664 -19.361 -23.001  0.00  0.00    +0.015 C 
ATOM     17  C   UNL     1      34.377 -16.839 -21.843  0.00  0.00    +0.036 C 
ATOM     18  C   UNL     1      34.799 -18.214 -23.784  0.00  0.00    +0.002 C 
ATOM     19  C   UNL     1      34.656 -16.953 -23.205  0.00  0.00    +0.007 C 
ENDBRANCH   1  14
BRANCH   8  21
ATOM     20  O   UNL     1      30.922 -22.693 -15.157  0.00  0.00    -0.270 OA
ATOM     21  N   UNL     1      31.253 -22.817 -17.484  0.00  0.00    -0.281 N 
ATOM     22  C   UNL     1      30.502 -22.832 -16.300  0.00  0.00    +0.250 C 
ATOM     23  H   UNL     1      30.745 -22.946 -18.318  0.00  0.00    +0.155 HD
BRANCH  22  24
ATOM     24  C   UNL     1      29.051 -23.048 -16.570  0.00  0.00    +0.058 C 
ATOM     25  C   UNL     1      28.123 -22.417 -15.845  0.00  0.00    +0.005 C 
ENDBRANCH  22  24
ENDBRANCH   8  21
TORSDOF 3
ENDMDL
