MODEL 1
REMARK VINA RESULT:      -6.9      0.000      0.000
REMARK  Name = 11465695
REMARK  7 active torsions:
REMARK  status: ('A' for Active; 'I' for Inactive)
REMARK    1  A    between atoms: N_1  and  C_31
REMARK    2  A    between atoms: N_4  and  C_29
REMARK    3  A    between atoms: C_10  and  C_23
REMARK    4  A    between atoms: N_22  and  S_25
REMARK    5  A    between atoms: C_31  and  C_32
REMARK    6  A    between atoms: C_32  and  O_33
REMARK    7  A    between atoms: O_33  and  C_34
REMARK                            x       y       z     vdW  Elec       q    Type
REMARK                         _______ _______ _______ _____ _____    ______ ____
ROOT
ATOM      1  N   UNL     1      31.600 -11.928 -20.690  0.00  0.00    -0.217 N 
ATOM      2  N   UNL     1      31.686 -13.187 -20.220  0.00  0.00    -0.174 NA
ATOM      3  N   UNL     1      33.262 -13.251 -23.459  0.00  0.00    -0.329 NA
ATOM      4  N   UNL     1      34.000 -12.314 -25.472  0.00  0.00    -0.232 N 
ATOM      5  N   UNL     1      32.919 -10.889 -23.961  0.00  0.00    -0.315 NA
ATOM      6  N   UNL     1      31.820  -9.404 -22.443  0.00  0.00    -0.274 N 
ATOM      7  N   UNL     1      32.413  -8.105 -24.345  0.00  0.00    -0.229 NA
ATOM      8  C   UNL     1      32.153 -11.762 -21.926  0.00  0.00    +0.213 C 
ATOM      9  C   UNL     1      32.635 -13.010 -22.284  0.00  0.00    +0.174 C 
ATOM     10  C   UNL     1      32.319 -13.843 -21.197  0.00  0.00    +0.181 C 
ATOM     11  C   UNL     1      32.297 -10.682 -22.777  0.00  0.00    +0.202 C 
ATOM     12  C   UNL     1      33.357 -12.143 -24.226  0.00  0.00    +0.204 C 
ATOM     13  C   UNL     1      34.509 -13.613 -25.860  0.00  0.00    +0.125 C 
ATOM     14  C   UNL     1      31.839  -8.166 -23.122  0.00  0.00    +0.133 C 
ATOM     15  C   UNL     1      31.262  -7.082 -22.480  0.00  0.00    +0.030 C 
ATOM     16  C   UNL     1      31.274  -5.855 -23.137  0.00  0.00    -0.018 C 
ATOM     17  C   UNL     1      31.854  -5.753 -24.396  0.00  0.00    +0.017 C 
ATOM     18  C   UNL     1      32.405  -6.896 -24.952  0.00  0.00    +0.100 C 
ATOM     19  C   UNL     1      30.666  -4.656 -22.493  0.00  0.00    +0.031 C 
ATOM     20  H   UNL     1      31.387  -9.363 -21.561  0.00  0.00    +0.156 HD
ENDROOT
BRANCH  10  23
ATOM     21  O   UNL     1      31.762 -16.066 -20.633  0.00  0.00    -0.267 OA
ATOM     22  N   UNL     1      33.915 -15.681 -21.454  0.00  0.00    -0.184 N 
ATOM     23  C   UNL     1      32.594 -15.244 -21.052  0.00  0.00    +0.286 C 
ATOM     24  H   UNL     1      34.529 -14.992 -21.796  0.00  0.00    +0.177 HD
BRANCH  22  25
ATOM     25  S   UNL     1      34.506 -17.286 -21.386  0.00  0.00    +0.058 S 
ATOM     26  O   UNL     1      33.403 -18.222 -21.305  0.00  0.00    -0.154 OA
ATOM     27  O   UNL     1      35.600 -17.337 -20.434  0.00  0.00    -0.154 OA
ATOM     28  C   UNL     1      35.211 -17.408 -23.013  0.00  0.00    +0.200 C 
ENDBRANCH  22  25
ENDBRANCH  10  23
BRANCH   4  29
ATOM     29  C   UNL     1      34.144 -11.196 -26.379  0.00  0.00    +0.103 C 
ATOM     30  C   UNL     1      35.471 -10.499 -26.143  0.00  0.00    +0.024 C 
ENDBRANCH   4  29
BRANCH   1  31
ATOM     31  C   UNL     1      30.958 -10.924 -19.874  0.00  0.00    +0.144 C 
BRANCH  31  32
ATOM     32  C   UNL     1      31.904 -10.312 -18.849  0.00  0.00    +0.165 C 
BRANCH  32  33
ATOM     33  O   UNL     1      32.625  -9.241 -19.444  0.00  0.00    -0.352 OA
BRANCH  33  34
ATOM     34  C   UNL     1      31.909  -8.017 -19.352  0.00  0.00    +0.142 C 
ATOM     35  C   UNL     1      32.810  -6.884 -19.794  0.00  0.00    +0.035 C 
ENDBRANCH  33  34
ENDBRANCH  32  33
ENDBRANCH  31  32
ENDBRANCH   1  31
TORSDOF 7
ENDMDL
MODEL 2
REMARK VINA RESULT:      -6.8     10.997     14.865
REMARK  Name = 11465695
REMARK  7 active torsions:
REMARK  status: ('A' for Active; 'I' for Inactive)
REMARK    1  A    between atoms: N_1  and  C_31
REMARK    2  A    between atoms: N_4  and  C_29
REMARK    3  A    between atoms: C_10  and  C_23
REMARK    4  A    between atoms: N_22  and  S_25
REMARK    5  A    between atoms: C_31  and  C_32
REMARK    6  A    between atoms: C_32  and  O_33
REMARK    7  A    between atoms: O_33  and  C_34
REMARK                            x       y       z     vdW  Elec       q    Type
REMARK                         _______ _______ _______ _____ _____    ______ ____
ROOT
ATOM      1  N   UNL     1      31.585 -24.436 -14.999  0.00  0.00    -0.217 N 
ATOM      2  N   UNL     1      30.254 -24.439 -15.199  0.00  0.00    -0.174 NA
ATOM      3  N   UNL     1      31.645 -22.595 -17.963  0.00  0.00    -0.329 NA
ATOM      4  N   UNL     1      33.381 -21.654 -19.220  0.00  0.00    -0.232 N 
ATOM      5  N   UNL     1      33.974 -22.804 -17.268  0.00  0.00    -0.315 NA
ATOM      6  N   UNL     1      34.618 -23.972 -15.284  0.00  0.00    -0.274 N 
ATOM      7  N   UNL     1      36.626 -23.168 -16.272  0.00  0.00    -0.229 NA
ATOM      8  C   UNL     1      32.286 -23.772 -15.963  0.00  0.00    +0.213 C 
ATOM      9  C   UNL     1      31.334 -23.309 -16.856  0.00  0.00    +0.174 C 
ATOM     10  C   UNL     1      30.106 -23.750 -16.334  0.00  0.00    +0.181 C 
ATOM     11  C   UNL     1      33.628 -23.516 -16.171  0.00  0.00    +0.202 C 
ATOM     12  C   UNL     1      32.976 -22.393 -18.085  0.00  0.00    +0.204 C 
ATOM     13  C   UNL     1      32.398 -21.163 -20.162  0.00  0.00    +0.125 C 
ATOM     14  C   UNL     1      36.024 -23.847 -15.269  0.00  0.00    +0.133 C 
ATOM     15  C   UNL     1      36.703 -24.436 -14.214  0.00  0.00    +0.030 C 
ATOM     16  C   UNL     1      38.089 -24.320 -14.187  0.00  0.00    -0.018 C 
ATOM     17  C   UNL     1      38.743 -23.629 -15.201  0.00  0.00    +0.017 C 
ATOM     18  C   UNL     1      37.974 -23.077 -16.211  0.00  0.00    +0.100 C 
ATOM     19  C   UNL     1      38.869 -24.935 -13.075  0.00  0.00    +0.031 C 
ATOM     20  H   UNL     1      34.260 -24.480 -14.521  0.00  0.00    +0.156 HD
ENDROOT
BRANCH  10  23
ATOM     21  O   UNL     1      28.065 -24.458 -17.284  0.00  0.00    -0.267 OA
ATOM     22  N   UNL     1      28.324 -22.169 -16.897  0.00  0.00    -0.184 N 
ATOM     23  C   UNL     1      28.793 -23.538 -16.874  0.00  0.00    +0.286 C 
ATOM     24  H   UNL     1      28.933 -21.481 -16.543  0.00  0.00    +0.177 HD
BRANCH  22  25
ATOM     25  S   UNL     1      26.807 -21.636 -17.486  0.00  0.00    +0.058 S 
ATOM     26  O   UNL     1      26.337 -22.523 -18.530  0.00  0.00    -0.154 OA
ATOM     27  O   UNL     1      26.870 -20.202 -17.697  0.00  0.00    -0.154 OA
ATOM     28  C   UNL     1      25.816 -21.919 -16.038  0.00  0.00    +0.200 C 
ENDBRANCH  22  25
ENDBRANCH  10  23
BRANCH   4  29
ATOM     29  C   UNL     1      34.782 -21.366 -19.441  0.00  0.00    +0.103 C 
ATOM     30  C   UNL     1      34.932 -20.281 -20.491  0.00  0.00    +0.024 C 
ENDBRANCH   4  29
BRANCH   1  31
ATOM     31  C   UNL     1      32.114 -25.106 -13.834  0.00  0.00    +0.144 C 
BRANCH  31  32
ATOM     32  C   UNL     1      32.800 -24.147 -12.870  0.00  0.00    +0.165 C 
BRANCH  32  33
ATOM     33  O   UNL     1      34.000 -24.733 -12.383  0.00  0.00    -0.352 OA
BRANCH  33  34
ATOM     34  C   UNL     1      34.817 -23.775 -11.724  0.00  0.00    +0.142 C 
ATOM     35  C   UNL     1      35.702 -24.488 -10.724  0.00  0.00    +0.035 C 
ENDBRANCH  33  34
ENDBRANCH  32  33
ENDBRANCH  31  32
ENDBRANCH   1  31
TORSDOF 7
ENDMDL
MODEL 3
REMARK VINA RESULT:      -6.7      1.757      4.864
REMARK  Name = 11465695
REMARK  7 active torsions:
REMARK  status: ('A' for Active; 'I' for Inactive)
REMARK    1  A    between atoms: N_1  and  C_31
REMARK    2  A    between atoms: N_4  and  C_29
REMARK    3  A    between atoms: C_10  and  C_23
REMARK    4  A    between atoms: N_22  and  S_25
REMARK    5  A    between atoms: C_31  and  C_32
REMARK    6  A    between atoms: C_32  and  O_33
REMARK    7  A    between atoms: O_33  and  C_34
REMARK                            x       y       z     vdW  Elec       q    Type
REMARK                         _______ _______ _______ _____ _____    ______ ____
ROOT
ATOM      1  N   UNL     1      33.233 -11.726 -24.152  0.00  0.00    -0.217 N 
ATOM      2  N   UNL     1      33.385 -13.044 -23.924  0.00  0.00    -0.174 NA
ATOM      3  N   UNL     1      32.127 -11.667 -20.842  0.00  0.00    -0.329 NA
ATOM      4  N   UNL     1      31.367  -9.949 -19.446  0.00  0.00    -0.232 N 
ATOM      5  N   UNL     1      31.989  -9.362 -21.626  0.00  0.00    -0.315 NA
ATOM      6  N   UNL     1      32.613  -8.723 -23.844  0.00  0.00    -0.274 N 
ATOM      7  N   UNL     1      31.908  -6.735 -22.746  0.00  0.00    -0.229 NA
ATOM      8  C   UNL     1      32.758 -11.032 -23.077  0.00  0.00    +0.213 C 
ATOM      9  C   UNL     1      32.589 -11.974 -22.076  0.00  0.00    +0.174 C 
ATOM     10  C   UNL     1      32.990 -13.191 -22.656  0.00  0.00    +0.181 C 
ATOM     11  C   UNL     1      32.454  -9.703 -22.850  0.00  0.00    +0.202 C 
ATOM     12  C   UNL     1      31.856 -10.350 -20.710  0.00  0.00    +0.204 C 
ATOM     13  C   UNL     1      31.186 -10.923 -18.391  0.00  0.00    +0.125 C 
ATOM     14  C   UNL     1      32.381  -7.331 -23.864  0.00  0.00    +0.133 C 
ATOM     15  C   UNL     1      32.656  -6.659 -25.045  0.00  0.00    +0.030 C 
ATOM     16  C   UNL     1      32.431  -5.286 -25.079  0.00  0.00    -0.018 C 
ATOM     17  C   UNL     1      31.946  -4.638 -23.948  0.00  0.00    +0.017 C 
ATOM     18  C   UNL     1      31.703  -5.400 -22.818  0.00  0.00    +0.100 C 
ATOM     19  C   UNL     1      32.710  -4.513 -26.323  0.00  0.00    +0.031 C 
ATOM     20  H   UNL     1      32.955  -9.078 -24.696  0.00  0.00    +0.156 HD
ENDROOT
BRANCH  10  23
ATOM     21  O   UNL     1      32.016 -15.024 -21.533  0.00  0.00    -0.267 OA
ATOM     22  N   UNL     1      34.282 -15.189 -22.082  0.00  0.00    -0.184 N 
ATOM     23  C   UNL     1      33.014 -14.490 -22.047  0.00  0.00    +0.286 C 
ATOM     24  H   UNL     1      35.035 -14.729 -22.518  0.00  0.00    +0.177 HD
BRANCH  22  25
ATOM     25  S   UNL     1      34.590 -16.743 -21.432  0.00  0.00    +0.058 S 
ATOM     26  O   UNL     1      33.375 -17.532 -21.427  0.00  0.00    -0.154 OA
ATOM     27  O   UNL     1      35.388 -16.593 -20.230  0.00  0.00    -0.154 OA
ATOM     28  C   UNL     1      35.655 -17.385 -22.702  0.00  0.00    +0.200 C 
ENDBRANCH  22  25
ENDBRANCH  10  23
BRANCH   4  29
ATOM     29  C   UNL     1      31.058  -8.558 -19.190  0.00  0.00    +0.103 C 
ATOM     30  C   UNL     1      32.294  -7.703 -19.399  0.00  0.00    +0.024 C 
ENDBRANCH   4  29
BRANCH   1  31
ATOM     31  C   UNL     1      33.575 -11.202 -25.454  0.00  0.00    +0.144 C 
BRANCH  31  32
ATOM     32  C   UNL     1      34.155 -12.265 -26.377  0.00  0.00    +0.165 C 
BRANCH  32  33
ATOM     33  O   UNL     1      33.110 -12.871 -27.126  0.00  0.00    -0.352 OA
BRANCH  33  34
ATOM     34  C   UNL     1      33.406 -14.228 -27.429  0.00  0.00    +0.142 C 
ATOM     35  C   UNL     1      32.773 -15.117 -26.380  0.00  0.00    +0.035 C 
ENDBRANCH  33  34
ENDBRANCH  32  33
ENDBRANCH  31  32
ENDBRANCH   1  31
TORSDOF 7
ENDMDL
MODEL 4
REMARK VINA RESULT:      -6.3      2.283      4.770
REMARK  Name = 11465695
REMARK  7 active torsions:
REMARK  status: ('A' for Active; 'I' for Inactive)
REMARK    1  A    between atoms: N_1  and  C_31
REMARK    2  A    between atoms: N_4  and  C_29
REMARK    3  A    between atoms: C_10  and  C_23
REMARK    4  A    between atoms: N_22  and  S_25
REMARK    5  A    between atoms: C_31  and  C_32
REMARK    6  A    between atoms: C_32  and  O_33
REMARK    7  A    between atoms: O_33  and  C_34
REMARK                            x       y       z     vdW  Elec       q    Type
REMARK                         _______ _______ _______ _____ _____    ______ ____
ROOT
ATOM      1  N   UNL     1      33.551 -13.135 -25.670  0.00  0.00    -0.217 N 
ATOM      2  N   UNL     1      33.839 -14.407 -26.007  0.00  0.00    -0.174 NA
ATOM      3  N   UNL     1      33.033 -14.491 -22.496  0.00  0.00    -0.329 NA
ATOM      4  N   UNL     1      32.400 -13.555 -20.447  0.00  0.00    -0.232 N 
ATOM      5  N   UNL     1      32.589 -12.103 -22.275  0.00  0.00    -0.315 NA
ATOM      6  N   UNL     1      32.770 -10.591 -24.118  0.00  0.00    -0.274 N 
ATOM      7  N   UNL     1      32.119  -9.286 -22.239  0.00  0.00    -0.229 NA
ATOM      8  C   UNL     1      33.219 -12.974 -24.357  0.00  0.00    +0.213 C 
ATOM      9  C   UNL     1      33.297 -14.240 -23.800  0.00  0.00    +0.174 C 
ATOM     10  C   UNL     1      33.681 -15.077 -24.861  0.00  0.00    +0.181 C 
ATOM     11  C   UNL     1      32.859 -11.887 -23.583  0.00  0.00    +0.202 C 
ATOM     12  C   UNL     1      32.691 -13.374 -21.818  0.00  0.00    +0.204 C 
ATOM     13  C   UNL     1      32.477 -14.872 -19.851  0.00  0.00    +0.125 C 
ATOM     14  C   UNL     1      32.434  -9.342 -23.553  0.00  0.00    +0.133 C 
ATOM     15  C   UNL     1      32.449  -8.240 -24.394  0.00  0.00    +0.030 C 
ATOM     16  C   UNL     1      32.120  -7.002 -23.852  0.00  0.00    -0.018 C 
ATOM     17  C   UNL     1      31.791  -6.906 -22.504  0.00  0.00    +0.017 C 
ATOM     18  C   UNL     1      31.804  -8.066 -21.747  0.00  0.00    +0.100 C 
ATOM     19  C   UNL     1      32.120  -5.784 -24.711  0.00  0.00    +0.031 C 
ATOM     20  H   UNL     1      32.985 -10.545 -25.077  0.00  0.00    +0.156 HD
ENDROOT
BRANCH  10  23
ATOM     21  O   UNL     1      33.663 -17.250 -25.783  0.00  0.00    -0.267 OA
ATOM     22  N   UNL     1      34.478 -17.022 -23.606  0.00  0.00    -0.184 N 
ATOM     23  C   UNL     1      33.908 -16.494 -24.827  0.00  0.00    +0.286 C 
ATOM     24  H   UNL     1      34.671 -16.377 -22.887  0.00  0.00    +0.177 HD
BRANCH  22  25
ATOM     25  S   UNL     1      34.847 -18.664 -23.296  0.00  0.00    +0.058 S 
ATOM     26  O   UNL     1      35.075 -19.369 -24.542  0.00  0.00    -0.154 OA
ATOM     27  O   UNL     1      33.910 -19.172 -22.313  0.00  0.00    -0.154 OA
ATOM     28  C   UNL     1      36.415 -18.465 -22.485  0.00  0.00    +0.200 C 
ENDBRANCH  22  25
ENDBRANCH  10  23
BRANCH   4  29
ATOM     29  C   UNL     1      32.036 -12.423 -19.622  0.00  0.00    +0.103 C 
ATOM     30  C   UNL     1      30.912 -11.641 -20.275  0.00  0.00    +0.024 C 
ENDBRANCH   4  29
BRANCH   1  31
ATOM     31  C   UNL     1      33.622 -12.114 -26.689  0.00  0.00    +0.144 C 
BRANCH  31  32
ATOM     32  C   UNL     1      34.976 -12.077 -27.385  0.00  0.00    +0.165 C 
BRANCH  32  33
ATOM     33  O   UNL     1      35.575 -10.801 -27.200  0.00  0.00    -0.352 OA
BRANCH  33  34
ATOM     34  C   UNL     1      35.700 -10.480 -25.822  0.00  0.00    +0.142 C 
ATOM     35  C   UNL     1      35.426  -9.003 -25.633  0.00  0.00    +0.035 C 
ENDBRANCH  33  34
ENDBRANCH  32  33
ENDBRANCH  31  32
ENDBRANCH   1  31
TORSDOF 7
ENDMDL
MODEL 5
REMARK VINA RESULT:      -6.3      3.570      8.815
REMARK  Name = 11465695
REMARK  7 active torsions:
REMARK  status: ('A' for Active; 'I' for Inactive)
REMARK    1  A    between atoms: N_1  and  C_31
REMARK    2  A    between atoms: N_4  and  C_29
REMARK    3  A    between atoms: C_10  and  C_23
REMARK    4  A    between atoms: N_22  and  S_25
REMARK    5  A    between atoms: C_31  and  C_32
REMARK    6  A    between atoms: C_32  and  O_33
REMARK    7  A    between atoms: O_33  and  C_34
REMARK                            x       y       z     vdW  Elec       q    Type
REMARK                         _______ _______ _______ _____ _____    ______ ____
ROOT
ATOM      1  N   UNL     1      34.167 -10.211 -24.769  0.00  0.00    -0.217 N 
ATOM      2  N   UNL     1      34.059  -8.921 -25.138  0.00  0.00    -0.174 NA
ATOM      3  N   UNL     1      32.380  -9.166 -21.959  0.00  0.00    -0.329 NA
ATOM      4  N   UNL     1      31.609 -10.285 -20.053  0.00  0.00    -0.232 N 
ATOM      5  N   UNL     1      32.779 -11.550 -21.639  0.00  0.00    -0.315 NA
ATOM      6  N   UNL     1      33.969 -12.875 -23.234  0.00  0.00    -0.274 N 
ATOM      7  N   UNL     1      33.354 -14.343 -21.466  0.00  0.00    -0.229 NA
ATOM      8  C   UNL     1      33.579 -10.494 -23.570  0.00  0.00    +0.213 C 
ATOM      9  C   UNL     1      33.049  -9.292 -23.129  0.00  0.00    +0.174 C 
ATOM     10  C   UNL     1      33.376  -8.364 -24.133  0.00  0.00    +0.181 C 
ATOM     11  C   UNL     1      33.442 -11.643 -22.814  0.00  0.00    +0.202 C 
ATOM     12  C   UNL     1      32.295 -10.335 -21.288  0.00  0.00    +0.204 C 
ATOM     13  C   UNL     1      31.050  -9.036 -19.579  0.00  0.00    +0.125 C 
ATOM     14  C   UNL     1      33.964 -14.165 -22.660  0.00  0.00    +0.133 C 
ATOM     15  C   UNL     1      34.594 -15.177 -23.367  0.00  0.00    +0.030 C 
ATOM     16  C   UNL     1      34.597 -16.453 -22.814  0.00  0.00    -0.018 C 
ATOM     17  C   UNL     1      33.979 -16.675 -21.588  0.00  0.00    +0.017 C 
ATOM     18  C   UNL     1      33.378 -15.597 -20.960  0.00  0.00    +0.100 C 
ATOM     19  C   UNL     1      35.260 -17.579 -23.532  0.00  0.00    +0.031 C 
ATOM     20  H   UNL     1      34.434 -12.832 -24.100  0.00  0.00    +0.156 HD
ENDROOT
BRANCH  10  23
ATOM     21  O   UNL     1      33.713  -6.135 -24.829  0.00  0.00    -0.267 OA
ATOM     22  N   UNL     1      31.896  -6.549 -23.419  0.00  0.00    -0.184 N 
ATOM     23  C   UNL     1      33.060  -6.965 -24.174  0.00  0.00    +0.286 C 
ATOM     24  H   UNL     1      31.404  -7.250 -22.934  0.00  0.00    +0.177 HD
BRANCH  22  25
ATOM     25  S   UNL     1      31.299  -4.950 -23.294  0.00  0.00    +0.058 S 
ATOM     26  O   UNL     1      30.495  -4.624 -24.455  0.00  0.00    -0.154 OA
ATOM     27  O   UNL     1      32.381  -4.083 -22.869  0.00  0.00    -0.154 OA
ATOM     28  C   UNL     1      30.204  -5.154 -21.909  0.00  0.00    +0.200 C 
ENDBRANCH  22  25
ENDBRANCH  10  23
BRANCH   4  29
ATOM     29  C   UNL     1      31.446 -11.483 -19.259  0.00  0.00    +0.103 C 
ATOM     30  C   UNL     1      31.297 -11.121 -17.793  0.00  0.00    +0.024 C 
ENDBRANCH   4  29
BRANCH   1  31
ATOM     31  C   UNL     1      34.864 -11.127 -25.642  0.00  0.00    +0.144 C 
BRANCH  31  32
ATOM     32  C   UNL     1      33.928 -11.829 -26.617  0.00  0.00    +0.165 C 
BRANCH  32  33
ATOM     33  O   UNL     1      33.419 -13.016 -26.023  0.00  0.00    -0.352 OA
BRANCH  33  34
ATOM     34  C   UNL     1      33.072 -13.983 -27.005  0.00  0.00    +0.142 C 
ATOM     35  C   UNL     1      32.880 -15.324 -26.330  0.00  0.00    +0.035 C 
ENDBRANCH  33  34
ENDBRANCH  32  33
ENDBRANCH  31  32
ENDBRANCH   1  31
TORSDOF 7
ENDMDL
MODEL 6
REMARK VINA RESULT:      -6.2      1.127      1.312
REMARK  Name = 11465695
REMARK  7 active torsions:
REMARK  status: ('A' for Active; 'I' for Inactive)
REMARK    1  A    between atoms: N_1  and  C_31
REMARK    2  A    between atoms: N_4  and  C_29
REMARK    3  A    between atoms: C_10  and  C_23
REMARK    4  A    between atoms: N_22  and  S_25
REMARK    5  A    between atoms: C_31  and  C_32
REMARK    6  A    between atoms: C_32  and  O_33
REMARK    7  A    between atoms: O_33  and  C_34
REMARK                            x       y       z     vdW  Elec       q    Type
REMARK                         _______ _______ _______ _____ _____    ______ ____
ROOT
ATOM      1  N   UNL     1      32.305 -12.996 -20.532  0.00  0.00    -0.217 N 
ATOM      2  N   UNL     1      32.446 -14.261 -20.092  0.00  0.00    -0.174 NA
ATOM      3  N   UNL     1      33.114 -14.386 -23.630  0.00  0.00    -0.329 NA
ATOM      4  N   UNL     1      33.347 -13.475 -25.773  0.00  0.00    -0.232 N 
ATOM      5  N   UNL     1      32.773 -12.006 -24.042  0.00  0.00    -0.315 NA
ATOM      6  N   UNL     1      32.187 -10.476 -22.301  0.00  0.00    -0.274 N 
ATOM      7  N   UNL     1      32.327  -9.197 -24.301  0.00  0.00    -0.229 NA
ATOM      8  C   UNL     1      32.523 -12.851 -21.871  0.00  0.00    +0.213 C 
ATOM      9  C   UNL     1      32.830 -14.120 -22.334  0.00  0.00    +0.174 C 
ATOM     10  C   UNL     1      32.767 -14.943 -21.195  0.00  0.00    +0.181 C 
ATOM     11  C   UNL     1      32.494 -11.775 -22.738  0.00  0.00    +0.202 C 
ATOM     12  C   UNL     1      33.061 -13.279 -24.403  0.00  0.00    +0.204 C 
ATOM     13  C   UNL     1      33.669 -14.796 -26.271  0.00  0.00    +0.125 C 
ATOM     14  C   UNL     1      32.092  -9.237 -22.970  0.00  0.00    +0.133 C 
ATOM     15  C   UNL     1      31.758  -8.128 -22.208  0.00  0.00    +0.030 C 
ATOM     16  C   UNL     1      31.661  -6.900 -22.853  0.00  0.00    -0.018 C 
ATOM     17  C   UNL     1      31.895  -6.820 -24.222  0.00  0.00    +0.017 C 
ATOM     18  C   UNL     1      32.223  -7.986 -24.894  0.00  0.00    +0.100 C 
ATOM     19  C   UNL     1      31.305  -5.675 -22.081  0.00  0.00    +0.031 C 
ATOM     20  H   UNL     1      32.003 -10.418 -21.336  0.00  0.00    +0.156 HD
ENDROOT
BRANCH  10  23
ATOM     21  O   UNL     1      32.146 -17.170 -20.722  0.00  0.00    -0.267 OA
ATOM     22  N   UNL     1      34.298 -16.818 -21.560  0.00  0.00    -0.184 N 
ATOM     23  C   UNL     1      32.999 -16.357 -21.118  0.00  0.00    +0.286 C 
ATOM     24  H   UNL     1      34.929 -16.134 -21.882  0.00  0.00    +0.177 HD
BRANCH  22  25
ATOM     25  S   UNL     1      34.837 -18.442 -21.573  0.00  0.00    +0.058 S 
ATOM     26  O   UNL     1      33.704 -19.345 -21.591  0.00  0.00    -0.154 OA
ATOM     27  O   UNL     1      35.892 -18.588 -20.588  0.00  0.00    -0.154 OA
ATOM     28  C   UNL     1      35.598 -18.485 -23.179  0.00  0.00    +0.200 C 
ENDBRANCH  22  25
ENDBRANCH  10  23
BRANCH   4  29
ATOM     29  C   UNL     1      33.305 -12.360 -26.695  0.00  0.00    +0.103 C 
ATOM     30  C   UNL     1      34.687 -11.752 -26.841  0.00  0.00    +0.024 C 
ENDBRANCH   4  29
BRANCH   1  31
ATOM     31  C   UNL     1      31.951 -11.966 -19.584  0.00  0.00    +0.144 C 
BRANCH  31  32
ATOM     32  C   UNL     1      30.664 -11.244 -19.961  0.00  0.00    +0.165 C 
BRANCH  32  33
ATOM     33  O   UNL     1      30.689  -9.919 -19.445  0.00  0.00    -0.352 OA
BRANCH  33  34
ATOM     34  C   UNL     1      31.991  -9.557 -19.006  0.00  0.00    +0.142 C 
ATOM     35  C   UNL     1      32.215  -8.087 -19.289  0.00  0.00    +0.035 C 
ENDBRANCH  33  34
ENDBRANCH  32  33
ENDBRANCH  31  32
ENDBRANCH   1  31
TORSDOF 7
ENDMDL
MODEL 7
REMARK VINA RESULT:      -5.7     11.732     15.443
REMARK  Name = 11465695
REMARK  7 active torsions:
REMARK  status: ('A' for Active; 'I' for Inactive)
REMARK    1  A    between atoms: N_1  and  C_31
REMARK    2  A    between atoms: N_4  and  C_29
REMARK    3  A    between atoms: C_10  and  C_23
REMARK    4  A    between atoms: N_22  and  S_25
REMARK    5  A    between atoms: C_31  and  C_32
REMARK    6  A    between atoms: C_32  and  O_33
REMARK    7  A    between atoms: O_33  and  C_34
REMARK                            x       y       z     vdW  Elec       q    Type
REMARK                         _______ _______ _______ _____ _____    ______ ____
ROOT
ATOM      1  N   UNL     1      33.059 -24.240 -13.941  0.00  0.00    -0.217 N 
ATOM      2  N   UNL     1      31.730 -24.024 -13.918  0.00  0.00    -0.174 NA
ATOM      3  N   UNL     1      32.890 -22.603 -17.019  0.00  0.00    -0.329 NA
ATOM      4  N   UNL     1      34.505 -22.046 -18.619  0.00  0.00    -0.232 N 
ATOM      5  N   UNL     1      35.240 -23.172 -16.702  0.00  0.00    -0.315 NA
ATOM      6  N   UNL     1      36.028 -24.323 -14.760  0.00  0.00    -0.274 N 
ATOM      7  N   UNL     1      37.933 -23.932 -16.129  0.00  0.00    -0.229 NA
ATOM      8  C   UNL     1      33.676 -23.761 -15.060  0.00  0.00    +0.213 C 
ATOM      9  C   UNL     1      32.668 -23.191 -15.820  0.00  0.00    +0.174 C 
ATOM     10  C   UNL     1      31.497 -23.384 -15.068  0.00  0.00    +0.181 C 
ATOM     11  C   UNL     1      34.984 -23.753 -15.507  0.00  0.00    +0.202 C 
ATOM     12  C   UNL     1      34.192 -22.641 -17.375  0.00  0.00    +0.204 C 
ATOM     13  C   UNL     1      33.462 -21.446 -19.424  0.00  0.00    +0.125 C 
ATOM     14  C   UNL     1      37.416 -24.441 -14.988  0.00  0.00    +0.133 C 
ATOM     15  C   UNL     1      38.167 -25.079 -14.013  0.00  0.00    +0.030 C 
ATOM     16  C   UNL     1      39.537 -25.203 -14.224  0.00  0.00    -0.018 C 
ATOM     17  C   UNL     1      40.104 -24.692 -15.386  0.00  0.00    +0.017 C 
ATOM     18  C   UNL     1      39.267 -24.072 -16.299  0.00  0.00    +0.100 C 
ATOM     19  C   UNL     1      40.392 -25.881 -13.208  0.00  0.00    +0.031 C 
ATOM     20  H   UNL     1      35.733 -24.719 -13.908  0.00  0.00    +0.156 HD
ENDROOT
BRANCH  10  23
ATOM     21  O   UNL     1      29.535 -22.104 -14.777  0.00  0.00    -0.267 OA
ATOM     22  N   UNL     1      29.561 -23.631 -16.545  0.00  0.00    -0.184 N 
ATOM     23  C   UNL     1      30.161 -22.979 -15.400  0.00  0.00    +0.286 C 
ATOM     24  H   UNL     1      30.107 -24.302 -17.015  0.00  0.00    +0.177 HD
BRANCH  22  25
ATOM     25  S   UNL     1      27.988 -23.342 -17.157  0.00  0.00    +0.058 S 
ATOM     26  O   UNL     1      27.383 -24.586 -17.588  0.00  0.00    -0.154 OA
ATOM     27  O   UNL     1      28.039 -22.192 -18.040  0.00  0.00    -0.154 OA
ATOM     28  C   UNL     1      27.181 -22.828 -15.659  0.00  0.00    +0.200 C 
ENDBRANCH  22  25
ENDBRANCH  10  23
BRANCH   4  29
ATOM     29  C   UNL     1      35.872 -22.017 -19.091  0.00  0.00    +0.103 C 
ATOM     30  C   UNL     1      36.082 -20.826 -20.007  0.00  0.00    +0.024 C 
ENDBRANCH   4  29
BRANCH   1  31
ATOM     31  C   UNL     1      33.670 -24.927 -12.827  0.00  0.00    +0.144 C 
BRANCH  31  32
ATOM     32  C   UNL     1      34.735 -24.084 -12.136  0.00  0.00    +0.165 C 
BRANCH  32  33
ATOM     33  O   UNL     1      35.237 -24.782 -11.004  0.00  0.00    -0.352 OA
BRANCH  33  34
ATOM     34  C   UNL     1      36.320 -24.086 -10.402  0.00  0.00    +0.142 C 
ATOM     35  C   UNL     1      36.858 -23.068 -11.385  0.00  0.00    +0.035 C 
ENDBRANCH  33  34
ENDBRANCH  32  33
ENDBRANCH  31  32
ENDBRANCH   1  31
TORSDOF 7
ENDMDL
MODEL 8
REMARK VINA RESULT:      -5.7      1.551      4.127
REMARK  Name = 11465695
REMARK  7 active torsions:
REMARK  status: ('A' for Active; 'I' for Inactive)
REMARK    1  A    between atoms: N_1  and  C_31
REMARK    2  A    between atoms: N_4  and  C_29
REMARK    3  A    between atoms: C_10  and  C_23
REMARK    4  A    between atoms: N_22  and  S_25
REMARK    5  A    between atoms: C_31  and  C_32
REMARK    6  A    between atoms: C_32  and  O_33
REMARK    7  A    between atoms: O_33  and  C_34
REMARK                            x       y       z     vdW  Elec       q    Type
REMARK                         _______ _______ _______ _____ _____    ______ ____
ROOT
ATOM      1  N   UNL     1      32.903 -11.987 -23.994  0.00  0.00    -0.217 N 
ATOM      2  N   UNL     1      33.121 -13.299 -23.787  0.00  0.00    -0.174 NA
ATOM      3  N   UNL     1      31.998 -11.993 -20.623  0.00  0.00    -0.329 NA
ATOM      4  N   UNL     1      31.256 -10.315 -19.169  0.00  0.00    -0.232 N 
ATOM      5  N   UNL     1      31.721  -9.690 -21.378  0.00  0.00    -0.315 NA
ATOM      6  N   UNL     1      32.183  -9.014 -23.624  0.00  0.00    -0.274 N 
ATOM      7  N   UNL     1      31.467  -7.063 -22.468  0.00  0.00    -0.229 NA
ATOM      8  C   UNL     1      32.467 -11.319 -22.887  0.00  0.00    +0.213 C 
ATOM      9  C   UNL     1      32.397 -12.274 -21.886  0.00  0.00    +0.174 C 
ATOM     10  C   UNL     1      32.810 -13.470 -22.499  0.00  0.00    +0.181 C 
ATOM     11  C   UNL     1      32.124 -10.005 -22.630  0.00  0.00    +0.202 C 
ATOM     12  C   UNL     1      31.683 -10.689 -20.464  0.00  0.00    +0.204 C 
ATOM     13  C   UNL     1      31.178 -11.303 -18.113  0.00  0.00    +0.125 C 
ATOM     14  C   UNL     1      31.895  -7.632 -23.618  0.00  0.00    +0.133 C 
ATOM     15  C   UNL     1      32.071  -6.942 -24.807  0.00  0.00    +0.030 C 
ATOM     16  C   UNL     1      31.790  -5.580 -24.817  0.00  0.00    -0.018 C 
ATOM     17  C   UNL     1      31.349  -4.959 -23.653  0.00  0.00    +0.017 C 
ATOM     18  C   UNL     1      31.204  -5.737 -22.516  0.00  0.00    +0.100 C 
ATOM     19  C   UNL     1      31.962  -4.789 -26.069  0.00  0.00    +0.031 C 
ATOM     20  H   UNL     1      32.487  -9.350 -24.498  0.00  0.00    +0.156 HD
ENDROOT
BRANCH  10  23
ATOM     21  O   UNL     1      31.993 -15.328 -21.295  0.00  0.00    -0.267 OA
ATOM     22  N   UNL     1      34.195 -15.442 -22.070  0.00  0.00    -0.184 N 
ATOM     23  C   UNL     1      32.923 -14.771 -21.904  0.00  0.00    +0.286 C 
ATOM     24  H   UNL     1      34.890 -14.964 -22.577  0.00  0.00    +0.177 HD
BRANCH  22  25
ATOM     25  S   UNL     1      34.600 -16.991 -21.465  0.00  0.00    +0.058 S 
ATOM     26  O   UNL     1      33.422 -17.835 -21.423  0.00  0.00    -0.154 OA
ATOM     27  O   UNL     1      35.441 -16.826 -20.295  0.00  0.00    -0.154 OA
ATOM     28  C   UNL     1      35.637 -17.562 -22.790  0.00  0.00    +0.200 C 
ENDBRANCH  22  25
ENDBRANCH  10  23
BRANCH   4  29
ATOM     29  C   UNL     1      30.908  -8.940 -18.883  0.00  0.00    +0.103 C 
ATOM     30  C   UNL     1      32.077  -8.029 -19.206  0.00  0.00    +0.024 C 
ENDBRANCH   4  29
BRANCH   1  31
ATOM     31  C   UNL     1      33.144 -11.442 -25.310  0.00  0.00    +0.144 C 
BRANCH  31  32
ATOM     32  C   UNL     1      34.581 -10.969 -25.491  0.00  0.00    +0.165 C 
BRANCH  32  33
ATOM     33  O   UNL     1      34.951 -10.133 -24.403  0.00  0.00    -0.352 OA
BRANCH  33  34
ATOM     34  C   UNL     1      35.214  -8.805 -24.834  0.00  0.00    +0.142 C 
ATOM     35  C   UNL     1      35.168  -7.880 -23.636  0.00  0.00    +0.035 C 
ENDBRANCH  33  34
ENDBRANCH  32  33
ENDBRANCH  31  32
ENDBRANCH   1  31
TORSDOF 7
ENDMDL
MODEL 9
REMARK VINA RESULT:      -4.7      3.946      8.969
REMARK  Name = 11465695
REMARK  7 active torsions:
REMARK  status: ('A' for Active; 'I' for Inactive)
REMARK    1  A    between atoms: N_1  and  C_31
REMARK    2  A    between atoms: N_4  and  C_29
REMARK    3  A    between atoms: C_10  and  C_23
REMARK    4  A    between atoms: N_22  and  S_25
REMARK    5  A    between atoms: C_31  and  C_32
REMARK    6  A    between atoms: C_32  and  O_33
REMARK    7  A    between atoms: O_33  and  C_34
REMARK                            x       y       z     vdW  Elec       q    Type
REMARK                         _______ _______ _______ _____ _____    ______ ____
ROOT
ATOM      1  N   UNL     1      34.641 -10.021 -25.125  0.00  0.00    -0.217 N 
ATOM      2  N   UNL     1      34.667  -8.741 -25.539  0.00  0.00    -0.174 NA
ATOM      3  N   UNL     1      32.652  -8.752 -22.553  0.00  0.00    -0.329 NA
ATOM      4  N   UNL     1      31.605  -9.745 -20.710  0.00  0.00    -0.232 N 
ATOM      5  N   UNL     1      32.838 -11.146 -22.125  0.00  0.00    -0.315 NA
ATOM      6  N   UNL     1      34.088 -12.608 -23.545  0.00  0.00    -0.274 N 
ATOM      7  N   UNL     1      33.184 -13.964 -21.812  0.00  0.00    -0.229 NA
ATOM      8  C   UNL     1      33.912 -10.218 -23.988  0.00  0.00    +0.213 C 
ATOM      9  C   UNL     1      33.428  -8.968 -23.640  0.00  0.00    +0.174 C 
ATOM     10  C   UNL     1      33.926  -8.102 -24.629  0.00  0.00    +0.181 C 
ATOM     11  C   UNL     1      33.612 -11.327 -23.219  0.00  0.00    +0.202 C 
ATOM     12  C   UNL     1      32.411  -9.888 -21.862  0.00  0.00    +0.204 C 
ATOM     13  C   UNL     1      31.093  -8.444 -20.334  0.00  0.00    +0.125 C 
ATOM     14  C   UNL     1      33.928 -13.872 -22.938  0.00  0.00    +0.133 C 
ATOM     15  C   UNL     1      34.552 -14.951 -23.545  0.00  0.00    +0.030 C 
ATOM     16  C   UNL     1      34.403 -16.204 -22.959  0.00  0.00    -0.018 C 
ATOM     17  C   UNL     1      33.646 -16.337 -21.800  0.00  0.00    +0.017 C 
ATOM     18  C   UNL     1      33.063 -15.197 -21.271  0.00  0.00    +0.100 C 
ATOM     19  C   UNL     1      35.053 -17.398 -23.570  0.00  0.00    +0.031 C 
ATOM     20  H   UNL     1      34.643 -12.628 -24.357  0.00  0.00    +0.156 HD
ENDROOT
BRANCH  10  23
ATOM     21  O   UNL     1      33.534  -5.940 -23.767  0.00  0.00    -0.267 OA
ATOM     22  N   UNL     1      33.769  -6.138 -26.083  0.00  0.00    -0.184 N 
ATOM     23  C   UNL     1      33.720  -6.686 -24.744  0.00  0.00    +0.286 C 
ATOM     24  H   UNL     1      33.939  -6.770 -26.819  0.00  0.00    +0.177 HD
BRANCH  22  25
ATOM     25  S   UNL     1      33.556  -4.493 -26.504  0.00  0.00    +0.058 S 
ATOM     26  O   UNL     1      34.839  -3.877 -26.777  0.00  0.00    -0.154 OA
ATOM     27  O   UNL     1      32.624  -3.892 -25.570  0.00  0.00    -0.154 OA
ATOM     28  C   UNL     1      32.704  -4.694 -28.051  0.00  0.00    +0.200 C 
ENDBRANCH  22  25
ENDBRANCH  10  23
BRANCH   4  29
ATOM     29  C   UNL     1      31.272 -10.899 -19.904  0.00  0.00    +0.103 C 
ATOM     30  C   UNL     1      31.573 -10.620 -18.443  0.00  0.00    +0.024 C 
ENDBRANCH   4  29
BRANCH   1  31
ATOM     31  C   UNL     1      35.356 -11.015 -25.892  0.00  0.00    +0.144 C 
BRANCH  31  32
ATOM     32  C   UNL     1      34.492 -11.648 -26.975  0.00  0.00    +0.165 C 
BRANCH  32  33
ATOM     33  O   UNL     1      33.589 -12.574 -26.386  0.00  0.00    -0.352 OA
BRANCH  33  34
ATOM     34  C   UNL     1      33.298 -13.650 -27.268  0.00  0.00    +0.142 C 
ATOM     35  C   UNL     1      32.824 -14.838 -26.458  0.00  0.00    +0.035 C 
ENDBRANCH  33  34
ENDBRANCH  32  33
ENDBRANCH  31  32
ENDBRANCH   1  31
TORSDOF 7
ENDMDL
