MODEL 1
REMARK VINA RESULT:      -3.7      0.000      0.000
REMARK  Name = 1133
REMARK  3 active torsions:
REMARK  status: ('A' for Active; 'I' for Inactive)
REMARK    1  A    between atoms: C_2  and  O_3
REMARK    2  A    between atoms: C_2  and  C_5
REMARK    3  A    between atoms: C_5  and  S_6
REMARK                            x       y       z     vdW  Elec       q    Type
REMARK                         _______ _______ _______ _____ _____    ______ ____
ROOT
ATOM      1  O   UNL     1      41.224 -26.627 -14.059  0.00  0.00    -0.249 OA
ATOM      2  C   UNL     1      40.369 -26.028 -14.698  0.00  0.00    +0.325 C 
ENDROOT
BRANCH   2   3
ATOM      3  O   UNL     1      40.406 -25.893 -16.048  0.00  0.00    -0.480 OA
ATOM      4  H   UNL     1      40.639 -26.623 -16.586  0.00  0.00    +0.295 HD
ENDBRANCH   2   3
BRANCH   2   5
ATOM      5  C   UNL     1      39.162 -25.380 -14.083  0.00  0.00    +0.163 C 
BRANCH   5   6
ATOM      6  S   UNL     1      37.694 -26.354 -14.475  0.00  0.00    -0.157 S 
ATOM      7  H   UNL     1      37.920 -27.079 -15.603  0.00  0.00    +0.103 HD
ENDBRANCH   5   6
ENDBRANCH   2   5
TORSDOF 3
ENDMDL
MODEL 2
REMARK VINA RESULT:      -3.6     10.829     11.028
REMARK  Name = 1133
REMARK  3 active torsions:
REMARK  status: ('A' for Active; 'I' for Inactive)
REMARK    1  A    between atoms: C_2  and  O_3
REMARK    2  A    between atoms: C_2  and  C_5
REMARK    3  A    between atoms: C_5  and  S_6
REMARK                            x       y       z     vdW  Elec       q    Type
REMARK                         _______ _______ _______ _____ _____    ______ ____
ROOT
ATOM      1  O   UNL     1      42.228 -16.591 -15.620  0.00  0.00    -0.249 OA
ATOM      2  C   UNL     1      41.304 -15.788 -15.620  0.00  0.00    +0.325 C 
ENDROOT
BRANCH   2   3
ATOM      3  O   UNL     1      40.056 -16.087 -15.178  0.00  0.00    -0.480 OA
ATOM      4  H   UNL     1      39.491 -16.624 -15.697  0.00  0.00    +0.295 HD
ENDBRANCH   2   3
BRANCH   2   5
ATOM      5  C   UNL     1      41.429 -14.366 -16.087  0.00  0.00    +0.163 C 
BRANCH   5   6
ATOM      6  S   UNL     1      41.345 -14.318 -17.889  0.00  0.00    -0.157 S 
ATOM      7  H   UNL     1      40.557 -13.280 -18.278  0.00  0.00    +0.103 HD
ENDBRANCH   5   6
ENDBRANCH   2   5
TORSDOF 3
ENDMDL
MODEL 3
REMARK VINA RESULT:      -3.4      3.055      3.222
REMARK  Name = 1133
REMARK  3 active torsions:
REMARK  status: ('A' for Active; 'I' for Inactive)
REMARK    1  A    between atoms: C_2  and  O_3
REMARK    2  A    between atoms: C_2  and  C_5
REMARK    3  A    between atoms: C_5  and  S_6
REMARK                            x       y       z     vdW  Elec       q    Type
REMARK                         _______ _______ _______ _____ _____    ______ ____
ROOT
ATOM      1  O   UNL     1      38.105 -27.133 -14.606  0.00  0.00    -0.249 OA
ATOM      2  C   UNL     1      37.146 -26.757 -15.268  0.00  0.00    +0.325 C 
ENDROOT
BRANCH   2   3
ATOM      3  O   UNL     1      36.747 -27.365 -16.414  0.00  0.00    -0.480 OA
ATOM      4  H   UNL     1      37.383 -27.644 -17.042  0.00  0.00    +0.295 HD
ENDBRANCH   2   3
BRANCH   2   5
ATOM      5  C   UNL     1      36.275 -25.592 -14.896  0.00  0.00    +0.163 C 
BRANCH   5   6
ATOM      6  S   UNL     1      37.245 -24.072 -14.966  0.00  0.00    -0.157 S 
ATOM      7  H   UNL     1      37.181 -23.438 -13.764  0.00  0.00    +0.103 HD
ENDBRANCH   5   6
ENDBRANCH   2   5
TORSDOF 3
ENDMDL
MODEL 4
REMARK VINA RESULT:      -3.4     12.077     12.478
REMARK  Name = 1133
REMARK  3 active torsions:
REMARK  status: ('A' for Active; 'I' for Inactive)
REMARK    1  A    between atoms: C_2  and  O_3
REMARK    2  A    between atoms: C_2  and  C_5
REMARK    3  A    between atoms: C_5  and  S_6
REMARK                            x       y       z     vdW  Elec       q    Type
REMARK                         _______ _______ _______ _____ _____    ______ ____
ROOT
ATOM      1  O   UNL     1      27.586 -23.648 -17.755  0.00  0.00    -0.249 OA
ATOM      2  C   UNL     1      27.774 -22.674 -17.038  0.00  0.00    +0.325 C 
ENDROOT
BRANCH   2   3
ATOM      3  O   UNL     1      27.184 -21.469 -17.247  0.00  0.00    -0.480 OA
ATOM      4  H   UNL     1      27.659 -20.680 -17.079  0.00  0.00    +0.295 HD
ENDBRANCH   2   3
BRANCH   2   5
ATOM      5  C   UNL     1      28.661 -22.683 -15.826  0.00  0.00    +0.163 C 
BRANCH   5   6
ATOM      6  S   UNL     1      29.124 -24.383 -15.436  0.00  0.00    -0.157 S 
ATOM      7  H   UNL     1      28.009 -25.160 -15.404  0.00  0.00    +0.103 HD
ENDBRANCH   5   6
ENDBRANCH   2   5
TORSDOF 3
ENDMDL
MODEL 5
REMARK VINA RESULT:      -3.2      5.290      5.559
REMARK  Name = 1133
REMARK  3 active torsions:
REMARK  status: ('A' for Active; 'I' for Inactive)
REMARK    1  A    between atoms: C_2  and  O_3
REMARK    2  A    between atoms: C_2  and  C_5
REMARK    3  A    between atoms: C_5  and  S_6
REMARK                            x       y       z     vdW  Elec       q    Type
REMARK                         _______ _______ _______ _____ _____    ______ ____
ROOT
ATOM      1  O   UNL     1      35.303 -25.160 -10.427  0.00  0.00    -0.249 OA
ATOM      2  C   UNL     1      35.597 -24.441 -11.372  0.00  0.00    +0.325 C 
ENDROOT
BRANCH   2   3
ATOM      3  O   UNL     1      34.713 -23.609 -11.979  0.00  0.00    -0.480 OA
ATOM      4  H   UNL     1      34.190 -23.919 -12.691  0.00  0.00    +0.295 HD
ENDBRANCH   2   3
BRANCH   2   5
ATOM      5  C   UNL     1      36.971 -24.366 -11.973  0.00  0.00    +0.163 C 
BRANCH   5   6
ATOM      6  S   UNL     1      37.381 -25.951 -12.731  0.00  0.00    -0.157 S 
ATOM      7  H   UNL     1      36.262 -26.722 -12.802  0.00  0.00    +0.103 HD
ENDBRANCH   5   6
ENDBRANCH   2   5
TORSDOF 3
ENDMDL
MODEL 6
REMARK VINA RESULT:      -3.2      5.020      5.468
REMARK  Name = 1133
REMARK  3 active torsions:
REMARK  status: ('A' for Active; 'I' for Inactive)
REMARK    1  A    between atoms: C_2  and  O_3
REMARK    2  A    between atoms: C_2  and  C_5
REMARK    3  A    between atoms: C_5  and  S_6
REMARK                            x       y       z     vdW  Elec       q    Type
REMARK                         _______ _______ _______ _____ _____    ______ ____
ROOT
ATOM      1  O   UNL     1      37.325 -22.833 -11.141  0.00  0.00    -0.249 OA
ATOM      2  C   UNL     1      36.557 -23.778 -11.024  0.00  0.00    +0.325 C 
ENDROOT
BRANCH   2   3
ATOM      3  O   UNL     1      36.062 -24.193  -9.830  0.00  0.00    -0.480 OA
ATOM      4  H   UNL     1      35.728 -25.063  -9.738  0.00  0.00    +0.295 HD
ENDBRANCH   2   3
BRANCH   2   5
ATOM      5  C   UNL     1      36.045 -24.591 -12.178  0.00  0.00    +0.163 C 
BRANCH   5   6
ATOM      6  S   UNL     1      37.270 -25.839 -12.623  0.00  0.00    -0.157 S 
ATOM      7  H   UNL     1      37.994 -26.176 -11.521  0.00  0.00    +0.103 HD
ENDBRANCH   5   6
ENDBRANCH   2   5
TORSDOF 3
ENDMDL
MODEL 7
REMARK VINA RESULT:      -3.2      3.655      3.996
REMARK  Name = 1133
REMARK  3 active torsions:
REMARK  status: ('A' for Active; 'I' for Inactive)
REMARK    1  A    between atoms: C_2  and  O_3
REMARK    2  A    between atoms: C_2  and  C_5
REMARK    3  A    between atoms: C_5  and  S_6
REMARK                            x       y       z     vdW  Elec       q    Type
REMARK                         _______ _______ _______ _____ _____    ______ ____
ROOT
ATOM      1  O   UNL     1      37.233 -24.579 -11.048  0.00  0.00    -0.249 OA
ATOM      2  C   UNL     1      38.054 -24.142 -11.843  0.00  0.00    +0.325 C 
ENDROOT
BRANCH   2   3
ATOM      3  O   UNL     1      38.649 -22.930 -11.710  0.00  0.00    -0.480 OA
ATOM      4  H   UNL     1      39.533 -22.872 -11.404  0.00  0.00    +0.295 HD
ENDBRANCH   2   3
BRANCH   2   5
ATOM      5  C   UNL     1      38.527 -24.890 -13.057  0.00  0.00    +0.163 C 
BRANCH   5   6
ATOM      6  S   UNL     1      37.359 -26.211 -13.439  0.00  0.00    -0.157 S 
ATOM      7  H   UNL     1      36.455 -25.766 -14.352  0.00  0.00    +0.103 HD
ENDBRANCH   5   6
ENDBRANCH   2   5
TORSDOF 3
ENDMDL
MODEL 8
REMARK VINA RESULT:      -3.1      3.411      3.643
REMARK  Name = 1133
REMARK  3 active torsions:
REMARK  status: ('A' for Active; 'I' for Inactive)
REMARK    1  A    between atoms: C_2  and  O_3
REMARK    2  A    between atoms: C_2  and  C_5
REMARK    3  A    between atoms: C_5  and  S_6
REMARK                            x       y       z     vdW  Elec       q    Type
REMARK                         _______ _______ _______ _____ _____    ______ ____
ROOT
ATOM      1  O   UNL     1      37.952 -24.497 -11.399  0.00  0.00    -0.249 OA
ATOM      2  C   UNL     1      37.742 -25.401 -12.197  0.00  0.00    +0.325 C 
ENDROOT
BRANCH   2   3
ATOM      3  O   UNL     1      36.834 -26.387 -11.985  0.00  0.00    -0.480 OA
ATOM      4  H   UNL     1      36.170 -26.559 -12.623  0.00  0.00    +0.295 HD
ENDBRANCH   2   3
BRANCH   2   5
ATOM      5  C   UNL     1      38.439 -25.531 -13.521  0.00  0.00    +0.163 C 
BRANCH   5   6
ATOM      6  S   UNL     1      37.451 -26.565 -14.620  0.00  0.00    -0.157 S 
ATOM      7  H   UNL     1      38.090 -27.750 -14.823  0.00  0.00    +0.103 HD
ENDBRANCH   5   6
ENDBRANCH   2   5
TORSDOF 3
ENDMDL
MODEL 9
REMARK VINA RESULT:      -3.1     15.097     15.477
REMARK  Name = 1133
REMARK  3 active torsions:
REMARK  status: ('A' for Active; 'I' for Inactive)
REMARK    1  A    between atoms: C_2  and  O_3
REMARK    2  A    between atoms: C_2  and  C_5
REMARK    3  A    between atoms: C_5  and  S_6
REMARK                            x       y       z     vdW  Elec       q    Type
REMARK                         _______ _______ _______ _____ _____    ______ ____
ROOT
ATOM      1  O   UNL     1      34.607 -17.304 -25.594  0.00  0.00    -0.249 OA
ATOM      2  C   UNL     1      34.671 -16.425 -24.744  0.00  0.00    +0.325 C 
ENDROOT
BRANCH   2   3
ATOM      3  O   UNL     1      35.694 -16.315 -23.860  0.00  0.00    -0.480 OA
ATOM      4  H   UNL     1      35.995 -17.070 -23.395  0.00  0.00    +0.295 HD
ENDBRANCH   2   3
BRANCH   2   5
ATOM      5  C   UNL     1      33.642 -15.344 -24.577  0.00  0.00    +0.163 C 
BRANCH   5   6
ATOM      6  S   UNL     1      33.045 -14.829 -26.201  0.00  0.00    -0.157 S 
ATOM      7  H   UNL     1      33.828 -15.379 -27.167  0.00  0.00    +0.103 HD
ENDBRANCH   5   6
ENDBRANCH   2   5
TORSDOF 3
ENDMDL
