MODEL 1
REMARK VINA RESULT:      -7.1      0.000      0.000
REMARK  Name = 3561
REMARK  3 active torsions:
REMARK  status: ('A' for Active; 'I' for Inactive)
REMARK    1  A    between atoms: C_4  and  O_10
REMARK    2  A    between atoms: O_10  and  C_11
REMARK    3  A    between atoms: C_11  and  C_13
REMARK                            x       y       z     vdW  Elec       q    Type
REMARK                         _______ _______ _______ _____ _____    ______ ____
ROOT
ATOM      1 CL   UNL     1      34.626 -14.742 -20.527  0.00  0.00    -0.079 Cl
ATOM      2 CL   UNL     1      34.922 -19.561 -24.484  0.00  0.00    -0.081 Cl
ATOM      3 CL   UNL     1      35.069 -20.028 -21.285  0.00  0.00    -0.081 Cl
ATOM      4  C   UNL     1      34.644 -15.871 -23.002  0.00  0.00    +0.151 C 
ATOM      5  C   UNL     1      34.707 -16.072 -21.623  0.00  0.00    +0.092 C 
ATOM      6  C   UNL     1      34.712 -16.961 -23.869  0.00  0.00    +0.050 C 
ATOM      7  C   UNL     1      34.843 -18.252 -23.358  0.00  0.00    +0.071 C 
ATOM      8  C   UNL     1      34.839 -17.364 -21.111  0.00  0.00    +0.027 C 
ATOM      9  C   UNL     1      34.907 -18.454 -21.979  0.00  0.00    +0.069 C 
ENDROOT
BRANCH   4  10
ATOM     10  O   UNL     1      34.515 -14.621 -23.529  0.00  0.00    -0.460 OA
BRANCH  10  11
ATOM     11  C   UNL     1      33.223 -14.249 -24.005  0.00  0.00    +0.282 C 
BRANCH  11  13
ATOM     12  I   UNL     1      31.200 -11.243 -20.951  0.00  0.00    +0.018 I 
ATOM     13  C   UNL     1      32.599 -13.321 -23.064  0.00  0.00    -0.033 C 
ATOM     14  C   UNL     1      32.086 -12.560 -22.290  0.00  0.00    -0.026 C 
ENDBRANCH  11  13
ENDBRANCH  10  11
ENDBRANCH   4  10
TORSDOF 3
ENDMDL
MODEL 2
REMARK VINA RESULT:      -6.8      7.260      9.300
REMARK  Name = 3561
REMARK  3 active torsions:
REMARK  status: ('A' for Active; 'I' for Inactive)
REMARK    1  A    between atoms: C_4  and  O_10
REMARK    2  A    between atoms: O_10  and  C_11
REMARK    3  A    between atoms: C_11  and  C_13
REMARK                            x       y       z     vdW  Elec       q    Type
REMARK                         _______ _______ _______ _____ _____    ______ ____
ROOT
ATOM      1 CL   UNL     1      33.053 -22.940 -17.968  0.00  0.00    -0.079 Cl
ATOM      2 CL   UNL     1      37.081 -19.293 -21.041  0.00  0.00    -0.081 Cl
ATOM      3 CL   UNL     1      33.937 -19.306 -21.805  0.00  0.00    -0.081 Cl
ATOM      4  C   UNL     1      35.524 -21.927 -18.486  0.00  0.00    +0.151 C 
ATOM      5  C   UNL     1      34.169 -21.933 -18.815  0.00  0.00    +0.092 C 
ATOM      6  C   UNL     1      36.408 -21.105 -19.184  0.00  0.00    +0.050 C 
ATOM      7  C   UNL     1      35.937 -20.288 -20.212  0.00  0.00    +0.071 C 
ATOM      8  C   UNL     1      33.697 -21.116 -19.844  0.00  0.00    +0.027 C 
ATOM      9  C   UNL     1      34.581 -20.295 -20.543  0.00  0.00    +0.069 C 
ENDROOT
BRANCH   4  10
ATOM     10  O   UNL     1      36.012 -22.713 -17.485  0.00  0.00    -0.460 OA
BRANCH  10  11
ATOM     11  C   UNL     1      36.939 -22.113 -16.583  0.00  0.00    +0.282 C 
BRANCH  11  13
ATOM     12  I   UNL     1      38.567 -25.379 -13.560  0.00  0.00    +0.018 I 
ATOM     13  C   UNL     1      37.442 -23.120 -15.651  0.00  0.00    -0.033 C 
ATOM     14  C   UNL     1      37.854 -23.947 -14.885  0.00  0.00    -0.026 C 
ENDBRANCH  11  13
ENDBRANCH  10  11
ENDBRANCH   4  10
TORSDOF 3
ENDMDL
MODEL 3
REMARK VINA RESULT:      -6.7      1.842      2.706
REMARK  Name = 3561
REMARK  3 active torsions:
REMARK  status: ('A' for Active; 'I' for Inactive)
REMARK    1  A    between atoms: C_4  and  O_10
REMARK    2  A    between atoms: O_10  and  C_11
REMARK    3  A    between atoms: C_11  and  C_13
REMARK                            x       y       z     vdW  Elec       q    Type
REMARK                         _______ _______ _______ _____ _____    ______ ____
ROOT
ATOM      1 CL   UNL     1      33.285 -14.818 -26.181  0.00  0.00    -0.079 Cl
ATOM      2 CL   UNL     1      35.483 -17.783 -21.146  0.00  0.00    -0.081 Cl
ATOM      3 CL   UNL     1      35.146 -19.330 -23.968  0.00  0.00    -0.081 Cl
ATOM      4  C   UNL     1      34.038 -14.968 -23.572  0.00  0.00    +0.151 C 
ATOM      5  C   UNL     1      33.893 -15.635 -24.788  0.00  0.00    +0.092 C 
ATOM      6  C   UNL     1      34.530 -15.649 -22.458  0.00  0.00    +0.050 C 
ATOM      7  C   UNL     1      34.878 -16.995 -22.561  0.00  0.00    +0.071 C 
ATOM      8  C   UNL     1      34.240 -16.983 -24.891  0.00  0.00    +0.027 C 
ATOM      9  C   UNL     1      34.732 -17.663 -23.778  0.00  0.00    +0.069 C 
ENDROOT
BRANCH   4  10
ATOM     10  O   UNL     1      33.707 -13.652 -23.442  0.00  0.00    -0.460 OA
BRANCH  10  11
ATOM     11  C   UNL     1      32.318 -13.337 -23.379  0.00  0.00    +0.282 C 
BRANCH  11  13
ATOM     12  I   UNL     1      31.440 -10.742 -19.512  0.00  0.00    +0.018 I 
ATOM     13  C   UNL     1      32.048 -12.538 -22.185  0.00  0.00    -0.033 C 
ATOM     14  C   UNL     1      31.826 -11.880 -21.206  0.00  0.00    -0.026 C 
ENDBRANCH  11  13
ENDBRANCH  10  11
ENDBRANCH   4  10
TORSDOF 3
ENDMDL
MODEL 4
REMARK VINA RESULT:      -6.7      5.975      7.763
REMARK  Name = 3561
REMARK  3 active torsions:
REMARK  status: ('A' for Active; 'I' for Inactive)
REMARK    1  A    between atoms: C_4  and  O_10
REMARK    2  A    between atoms: O_10  and  C_11
REMARK    3  A    between atoms: C_11  and  C_13
REMARK                            x       y       z     vdW  Elec       q    Type
REMARK                         _______ _______ _______ _____ _____    ______ ____
ROOT
ATOM      1 CL   UNL     1      36.768 -20.979 -19.904  0.00  0.00    -0.079 Cl
ATOM      2 CL   UNL     1      34.063 -23.843 -15.061  0.00  0.00    -0.081 Cl
ATOM      3 CL   UNL     1      37.145 -22.868 -14.904  0.00  0.00    -0.081 Cl
ATOM      4  C   UNL     1      34.689 -22.190 -18.635  0.00  0.00    +0.151 C 
ATOM      5  C   UNL     1      36.018 -21.770 -18.567  0.00  0.00    +0.092 C 
ATOM      6  C   UNL     1      34.103 -22.829 -17.542  0.00  0.00    +0.050 C 
ATOM      7  C   UNL     1      34.845 -23.047 -16.381  0.00  0.00    +0.071 C 
ATOM      8  C   UNL     1      36.760 -21.989 -17.406  0.00  0.00    +0.027 C 
ATOM      9  C   UNL     1      36.174 -22.627 -16.313  0.00  0.00    +0.069 C 
ENDROOT
BRANCH   4  10
ATOM     10  O   UNL     1      33.940 -21.990 -19.756  0.00  0.00    -0.460 OA
BRANCH  10  11
ATOM     11  C   UNL     1      33.262 -20.741 -19.866  0.00  0.00    +0.282 C 
BRANCH  11  13
ATOM     12  I   UNL     1      35.040 -18.274 -23.501  0.00  0.00    +0.018 I 
ATOM     13  C   UNL     1      33.809 -19.980 -20.987  0.00  0.00    -0.033 C 
ATOM     14  C   UNL     1      34.260 -19.355 -21.908  0.00  0.00    -0.026 C 
ENDBRANCH  11  13
ENDBRANCH  10  11
ENDBRANCH   4  10
TORSDOF 3
ENDMDL
MODEL 5
REMARK VINA RESULT:      -6.7      2.498      2.759
REMARK  Name = 3561
REMARK  3 active torsions:
REMARK  status: ('A' for Active; 'I' for Inactive)
REMARK    1  A    between atoms: C_4  and  O_10
REMARK    2  A    between atoms: O_10  and  C_11
REMARK    3  A    between atoms: C_11  and  C_13
REMARK                            x       y       z     vdW  Elec       q    Type
REMARK                         _______ _______ _______ _____ _____    ______ ____
ROOT
ATOM      1 CL   UNL     1      32.351 -13.199 -20.632  0.00  0.00    -0.079 Cl
ATOM      2 CL   UNL     1      35.164 -17.421 -24.270  0.00  0.00    -0.081 Cl
ATOM      3 CL   UNL     1      34.717 -17.983 -21.115  0.00  0.00    -0.081 Cl
ATOM      4  C   UNL     1      33.321 -14.122 -23.000  0.00  0.00    +0.151 C 
ATOM      5  C   UNL     1      33.128 -14.364 -21.640  0.00  0.00    +0.092 C 
ATOM      6  C   UNL     1      33.952 -15.078 -23.796  0.00  0.00    +0.050 C 
ATOM      7  C   UNL     1      34.389 -16.276 -23.232  0.00  0.00    +0.071 C 
ATOM      8  C   UNL     1      33.566 -15.563 -21.076  0.00  0.00    +0.027 C 
ATOM      9  C   UNL     1      34.197 -16.519 -21.872  0.00  0.00    +0.069 C 
ENDROOT
BRANCH   4  10
ATOM     10  O   UNL     1      32.902 -12.960 -23.578  0.00  0.00    -0.460 OA
BRANCH  10  11
ATOM     11  C   UNL     1      33.756 -12.383 -24.562  0.00  0.00    +0.282 C 
BRANCH  11  13
ATOM     12  I   UNL     1      34.400  -7.783 -23.618  0.00  0.00    +0.018 I 
ATOM     13  C   UNL     1      33.956 -10.964 -24.270  0.00  0.00    -0.033 C 
ATOM     14  C   UNL     1      34.119  -9.799 -24.031  0.00  0.00    -0.026 C 
ENDBRANCH  11  13
ENDBRANCH  10  11
ENDBRANCH   4  10
TORSDOF 3
ENDMDL
MODEL 6
REMARK VINA RESULT:      -6.6      2.453      3.359
REMARK  Name = 3561
REMARK  3 active torsions:
REMARK  status: ('A' for Active; 'I' for Inactive)
REMARK    1  A    between atoms: C_4  and  O_10
REMARK    2  A    between atoms: O_10  and  C_11
REMARK    3  A    between atoms: C_11  and  C_13
REMARK                            x       y       z     vdW  Elec       q    Type
REMARK                         _______ _______ _______ _____ _____    ______ ____
ROOT
ATOM      1 CL   UNL     1      33.104 -14.677 -26.665  0.00  0.00    -0.079 Cl
ATOM      2 CL   UNL     1      35.064 -16.808 -21.134  0.00  0.00    -0.081 Cl
ATOM      3 CL   UNL     1      35.292 -18.638 -23.793  0.00  0.00    -0.081 Cl
ATOM      4  C   UNL     1      33.547 -14.475 -23.988  0.00  0.00    +0.151 C 
ATOM      5  C   UNL     1      33.645 -15.264 -25.135  0.00  0.00    +0.092 C 
ATOM      6  C   UNL     1      33.990 -14.970 -22.762  0.00  0.00    +0.050 C 
ATOM      7  C   UNL     1      34.533 -16.252 -22.682  0.00  0.00    +0.071 C 
ATOM      8  C   UNL     1      34.187 -16.547 -25.055  0.00  0.00    +0.027 C 
ATOM      9  C   UNL     1      34.630 -17.042 -23.828  0.00  0.00    +0.069 C 
ENDROOT
BRANCH   4  10
ATOM     10  O   UNL     1      33.023 -13.218 -24.038  0.00  0.00    -0.460 OA
BRANCH  10  11
ATOM     11  C   UNL     1      33.904 -12.164 -24.421  0.00  0.00    +0.282 C 
BRANCH  11  13
ATOM     12  I   UNL     1      32.391  -8.064 -22.587  0.00  0.00    +0.018 I 
ATOM     13  C   UNL     1      33.436 -10.900 -23.855  0.00  0.00    -0.033 C 
ATOM     14  C   UNL     1      33.053  -9.861 -23.390  0.00  0.00    -0.026 C 
ENDBRANCH  11  13
ENDBRANCH  10  11
ENDBRANCH   4  10
TORSDOF 3
ENDMDL
MODEL 7
REMARK VINA RESULT:      -6.4      3.524      5.532
REMARK  Name = 3561
REMARK  3 active torsions:
REMARK  status: ('A' for Active; 'I' for Inactive)
REMARK    1  A    between atoms: C_4  and  O_10
REMARK    2  A    between atoms: O_10  and  C_11
REMARK    3  A    between atoms: C_11  and  C_13
REMARK                            x       y       z     vdW  Elec       q    Type
REMARK                         _______ _______ _______ _____ _____    ______ ____
ROOT
ATOM      1 CL   UNL     1      33.053 -15.321 -26.541  0.00  0.00    -0.079 Cl
ATOM      2 CL   UNL     1      34.518 -14.633 -20.512  0.00  0.00    -0.081 Cl
ATOM      3 CL   UNL     1      32.275 -12.758 -21.900  0.00  0.00    -0.081 Cl
ATOM      4  C   UNL     1      34.426 -15.941 -24.277  0.00  0.00    +0.151 C 
ATOM      5  C   UNL     1      33.459 -15.133 -24.875  0.00  0.00    +0.092 C 
ATOM      6  C   UNL     1      34.740 -15.771 -22.928  0.00  0.00    +0.050 C 
ATOM      7  C   UNL     1      34.086 -14.794 -22.178  0.00  0.00    +0.071 C 
ATOM      8  C   UNL     1      32.806 -14.155 -24.125  0.00  0.00    +0.027 C 
ATOM      9  C   UNL     1      33.119 -13.985 -22.776  0.00  0.00    +0.069 C 
ENDROOT
BRANCH   4  10
ATOM     10  O   UNL     1      35.080 -16.904 -24.985  0.00  0.00    -0.460 OA
BRANCH  10  11
ATOM     11  C   UNL     1      34.496 -18.205 -25.002  0.00  0.00    +0.282 C 
BRANCH  11  13
ATOM     12  I   UNL     1      35.011 -20.240 -20.754  0.00  0.00    +0.018 I 
ATOM     13  C   UNL     1      34.654 -18.834 -23.692  0.00  0.00    -0.033 C 
ATOM     14  C   UNL     1      34.785 -19.349 -22.616  0.00  0.00    -0.026 C 
ENDBRANCH  11  13
ENDBRANCH  10  11
ENDBRANCH   4  10
TORSDOF 3
ENDMDL
MODEL 8
REMARK VINA RESULT:      -6.4      7.776      9.559
REMARK  Name = 3561
REMARK  3 active torsions:
REMARK  status: ('A' for Active; 'I' for Inactive)
REMARK    1  A    between atoms: C_4  and  O_10
REMARK    2  A    between atoms: O_10  and  C_11
REMARK    3  A    between atoms: C_11  and  C_13
REMARK                            x       y       z     vdW  Elec       q    Type
REMARK                         _______ _______ _______ _____ _____    ______ ____
ROOT
ATOM      1 CL   UNL     1      35.962 -23.807 -15.380  0.00  0.00    -0.079 Cl
ATOM      2 CL   UNL     1      29.818 -23.215 -16.314  0.00  0.00    -0.081 Cl
ATOM      3 CL   UNL     1      30.968 -24.394 -13.528  0.00  0.00    -0.081 Cl
ATOM      4  C   UNL     1      33.769 -23.134 -16.842  0.00  0.00    +0.151 C 
ATOM      5  C   UNL     1      34.265 -23.642 -15.641  0.00  0.00    +0.092 C 
ATOM      6  C   UNL     1      32.393 -23.010 -17.031  0.00  0.00    +0.050 C 
ATOM      7  C   UNL     1      31.512 -23.393 -16.019  0.00  0.00    +0.071 C 
ATOM      8  C   UNL     1      33.384 -24.026 -14.629  0.00  0.00    +0.027 C 
ATOM      9  C   UNL     1      32.008 -23.902 -14.818  0.00  0.00    +0.069 C 
ENDROOT
BRANCH   4  10
ATOM     10  O   UNL     1      34.606 -22.750 -17.847  0.00  0.00    -0.460 OA
BRANCH  10  11
ATOM     11  C   UNL     1      34.047 -22.657 -19.155  0.00  0.00    +0.282 C 
BRANCH  11  13
ATOM     12  I   UNL     1      35.637 -18.741 -21.298  0.00  0.00    +0.018 I 
ATOM     13  C   UNL     1      34.536 -21.449 -19.815  0.00  0.00    -0.033 C 
ATOM     14  C   UNL     1      34.940 -20.457 -20.358  0.00  0.00    -0.026 C 
ENDBRANCH  11  13
ENDBRANCH  10  11
ENDBRANCH   4  10
TORSDOF 3
ENDMDL
MODEL 9
REMARK VINA RESULT:      -6.4      3.779      5.560
REMARK  Name = 3561
REMARK  3 active torsions:
REMARK  status: ('A' for Active; 'I' for Inactive)
REMARK    1  A    between atoms: C_4  and  O_10
REMARK    2  A    between atoms: O_10  and  C_11
REMARK    3  A    between atoms: C_11  and  C_13
REMARK                            x       y       z     vdW  Elec       q    Type
REMARK                         _______ _______ _______ _____ _____    ______ ____
ROOT
ATOM      1 CL   UNL     1      34.982 -16.434 -20.545  0.00  0.00    -0.079 Cl
ATOM      2 CL   UNL     1      32.851 -14.033 -25.899  0.00  0.00    -0.081 Cl
ATOM      3 CL   UNL     1      32.270 -12.566 -23.074  0.00  0.00    -0.081 Cl
ATOM      4  C   UNL     1      34.645 -16.405 -23.244  0.00  0.00    +0.151 C 
ATOM      5  C   UNL     1      34.394 -15.773 -22.026  0.00  0.00    +0.092 C 
ATOM      6  C   UNL     1      34.160 -15.853 -24.430  0.00  0.00    +0.050 C 
ATOM      7  C   UNL     1      33.425 -14.668 -24.397  0.00  0.00    +0.071 C 
ATOM      8  C   UNL     1      33.659 -14.588 -21.994  0.00  0.00    +0.027 C 
ATOM      9  C   UNL     1      33.174 -14.035 -23.179  0.00  0.00    +0.069 C 
ENDROOT
BRANCH   4  10
ATOM     10  O   UNL     1      35.361 -17.563 -23.306  0.00  0.00    -0.460 OA
BRANCH  10  11
ATOM     11  C   UNL     1      34.622 -18.782 -23.325  0.00  0.00    +0.282 C 
BRANCH  11  13
ATOM     12  I   UNL     1      35.742 -21.388 -19.528  0.00  0.00    +0.018 I 
ATOM     13  C   UNL     1      34.966 -19.586 -22.153  0.00  0.00    -0.033 C 
ATOM     14  C   UNL     1      35.250 -20.246 -21.192  0.00  0.00    -0.026 C 
ENDBRANCH  11  13
ENDBRANCH  10  11
ENDBRANCH   4  10
TORSDOF 3
ENDMDL
