MODEL 1
REMARK VINA RESULT:     -11.3      0.000      0.000
REMARK  Name = 9820008
REMARK  6 active torsions:
REMARK  status: ('A' for Active; 'I' for Inactive)
REMARK    1  A    between atoms: C_2  and  N_17
REMARK    2  A    between atoms: C_3  and  C_8
REMARK    3  A    between atoms: C_11  and  O_14
REMARK    4  A    between atoms: C_18  and  C_23
REMARK    5  A    between atoms: C_24  and  C_26
REMARK    6  A    between atoms: C_26  and  O_27
REMARK                            x       y       z     vdW  Elec       q    Type
REMARK                         _______ _______ _______ _____ _____    ______ ____
ROOT
ATOM      1  F   UNL     1      34.876 -15.008 -20.833  0.00  0.00    -0.203 F 
ATOM      2  C   UNL     1      34.604 -16.272 -22.825  0.00  0.00    +0.078 C 
ATOM      3  C   UNL     1      34.887 -18.605 -21.361  0.00  0.00    +0.002 C 
ATOM      4  C   UNL     1      34.811 -16.193 -21.458  0.00  0.00    +0.153 C 
ATOM      5  C   UNL     1      34.534 -17.492 -23.476  0.00  0.00    +0.017 C 
ATOM      6  C   UNL     1      34.954 -17.368 -20.721  0.00  0.00    +0.031 C 
ATOM      7  C   UNL     1      34.677 -18.668 -22.739  0.00  0.00    +0.001 C 
ENDROOT
BRANCH   3   8
ATOM      8  C   UNL     1      35.034 -19.825 -20.597  0.00  0.00    +0.003 C 
ATOM      9  C   UNL     1      33.903 -20.526 -20.178  0.00  0.00    +0.037 C 
ATOM     10  C   UNL     1      36.306 -20.300 -20.279  0.00  0.00    +0.000 C 
ATOM     11  C   UNL     1      34.045 -21.701 -19.440  0.00  0.00    +0.139 C 
ATOM     12  C   UNL     1      36.448 -21.475 -19.543  0.00  0.00    +0.003 C 
ATOM     13  C   UNL     1      35.318 -22.176 -19.122  0.00  0.00    +0.037 C 
BRANCH  11  14
ATOM     14  O   UNL     1      32.942 -22.385 -19.030  0.00  0.00    -0.471 OA
ATOM     15  C   UNL     1      32.964 -22.920 -17.708  0.00  0.00    +0.252 C 
ENDBRANCH  11  14
ENDBRANCH   3   8
BRANCH   2  17
ATOM     16  O   UNL     1      32.471 -14.144 -22.734  0.00  0.00    -0.270 OA
ATOM     17  N   UNL     1      34.461 -15.081 -23.576  0.00  0.00    -0.279 N 
ATOM     18  C   UNL     1      33.447 -14.130 -23.490  0.00  0.00    +0.245 C 
ATOM     19  H   UNL     1      35.165 -14.902 -24.241  0.00  0.00    +0.155 HD
BRANCH  18  23
ATOM     20  C   UNL     1      34.463 -10.984 -25.255  0.00  0.00    +0.010 C 
ATOM     21  C   UNL     1      34.044 -11.671 -23.955  0.00  0.00    +0.031 C 
ATOM     22  C   UNL     1      33.751 -11.738 -26.380  0.00  0.00    +0.033 C 
ATOM     23  C   UNL     1      33.632 -13.028 -24.426  0.00  0.00    +0.034 C 
ATOM     24  C   UNL     1      33.472 -13.064 -25.752  0.00  0.00    +0.054 C 
BRANCH  24  26
ATOM     25  O   UNL     1      33.748 -15.221 -26.712  0.00  0.00    -0.245 OA
ATOM     26  C   UNL     1      33.076 -14.212 -26.557  0.00  0.00    +0.334 C 
BRANCH  26  27
ATOM     27  O   UNL     1      31.858 -13.993 -27.103  0.00  0.00    -0.477 OA
ATOM     28  H   UNL     1      31.299 -13.328 -26.752  0.00  0.00    +0.295 HD
ENDBRANCH  26  27
ENDBRANCH  24  26
ENDBRANCH  18  23
ENDBRANCH   2  17
TORSDOF 6
ENDMDL
MODEL 2
REMARK VINA RESULT:     -10.8      3.434     10.077
REMARK  Name = 9820008
REMARK  6 active torsions:
REMARK  status: ('A' for Active; 'I' for Inactive)
REMARK    1  A    between atoms: C_2  and  N_17
REMARK    2  A    between atoms: C_3  and  C_8
REMARK    3  A    between atoms: C_11  and  O_14
REMARK    4  A    between atoms: C_18  and  C_23
REMARK    5  A    between atoms: C_24  and  C_26
REMARK    6  A    between atoms: C_26  and  O_27
REMARK                            x       y       z     vdW  Elec       q    Type
REMARK                         _______ _______ _______ _____ _____    ______ ____
ROOT
ATOM      1  F   UNL     1      33.424 -21.614 -19.233  0.00  0.00    -0.203 F 
ATOM      2  C   UNL     1      35.748 -21.134 -19.339  0.00  0.00    +0.078 C 
ATOM      3  C   UNL     1      35.281 -19.439 -21.478  0.00  0.00    +0.002 C 
ATOM      4  C   UNL     1      34.453 -20.969 -19.802  0.00  0.00    +0.153 C 
ATOM      5  C   UNL     1      36.813 -20.470 -19.921  0.00  0.00    +0.017 C 
ATOM      6  C   UNL     1      34.218 -20.115 -20.879  0.00  0.00    +0.031 C 
ATOM      7  C   UNL     1      36.579 -19.617 -20.999  0.00  0.00    +0.001 C 
ENDROOT
BRANCH   3   8
ATOM      8  C   UNL     1      35.037 -18.553 -22.595  0.00  0.00    +0.003 C 
ATOM      9  C   UNL     1      35.114 -17.171 -22.419  0.00  0.00    +0.037 C 
ATOM     10  C   UNL     1      34.725 -19.079 -23.848  0.00  0.00    +0.000 C 
ATOM     11  C   UNL     1      34.879 -16.316 -23.495  0.00  0.00    +0.139 C 
ATOM     12  C   UNL     1      34.491 -18.225 -24.925  0.00  0.00    +0.003 C 
ATOM     13  C   UNL     1      34.567 -16.843 -24.749  0.00  0.00    +0.037 C 
BRANCH  11  14
ATOM     14  O   UNL     1      34.953 -14.968 -23.324  0.00  0.00    -0.471 OA
ATOM     15  C   UNL     1      33.826 -14.198 -23.738  0.00  0.00    +0.252 C 
ENDBRANCH  11  14
ENDBRANCH   3   8
BRANCH   2  17
ATOM     16  O   UNL     1      37.334 -20.706 -16.812  0.00  0.00    -0.270 OA
ATOM     17  N   UNL     1      35.989 -22.002 -18.247  0.00  0.00    -0.279 N 
ATOM     18  C   UNL     1      36.736 -21.747 -17.099  0.00  0.00    +0.245 C 
ATOM     19  H   UNL     1      35.578 -22.894 -18.305  0.00  0.00    +0.155 HD
BRANCH  18  23
ATOM     20  C   UNL     1      37.617 -24.348 -14.550  0.00  0.00    +0.010 C 
ATOM     21  C   UNL     1      38.055 -23.479 -15.728  0.00  0.00    +0.031 C 
ATOM     22  C   UNL     1      36.131 -24.639 -14.767  0.00  0.00    +0.033 C 
ATOM     23  C   UNL     1      36.763 -22.883 -16.187  0.00  0.00    +0.034 C 
ATOM     24  C   UNL     1      35.711 -23.518 -15.660  0.00  0.00    +0.054 C 
BRANCH  24  26
ATOM     25  O   UNL     1      33.704 -23.416 -16.930  0.00  0.00    -0.245 OA
ATOM     26  C   UNL     1      34.304 -23.216 -15.883  0.00  0.00    +0.334 C 
BRANCH  26  27
ATOM     27  O   UNL     1      33.763 -22.685 -14.763  0.00  0.00    -0.477 OA
ATOM     28  H   UNL     1      34.302 -22.205 -14.165  0.00  0.00    +0.295 HD
ENDBRANCH  26  27
ENDBRANCH  24  26
ENDBRANCH  18  23
ENDBRANCH   2  17
TORSDOF 6
ENDMDL
MODEL 3
REMARK VINA RESULT:     -10.8      1.430      2.056
REMARK  Name = 9820008
REMARK  6 active torsions:
REMARK  status: ('A' for Active; 'I' for Inactive)
REMARK    1  A    between atoms: C_2  and  N_17
REMARK    2  A    between atoms: C_3  and  C_8
REMARK    3  A    between atoms: C_11  and  O_14
REMARK    4  A    between atoms: C_18  and  C_23
REMARK    5  A    between atoms: C_24  and  C_26
REMARK    6  A    between atoms: C_26  and  O_27
REMARK                            x       y       z     vdW  Elec       q    Type
REMARK                         _______ _______ _______ _____ _____    ______ ____
ROOT
ATOM      1  F   UNL     1      35.014 -17.143 -24.968  0.00  0.00    -0.203 F 
ATOM      2  C   UNL     1      34.410 -15.923 -23.022  0.00  0.00    +0.078 C 
ATOM      3  C   UNL     1      34.375 -18.284 -21.575  0.00  0.00    +0.002 C 
ATOM      4  C   UNL     1      34.708 -17.114 -23.663  0.00  0.00    +0.153 C 
ATOM      5  C   UNL     1      34.095 -15.887 -21.674  0.00  0.00    +0.017 C 
ATOM      6  C   UNL     1      34.691 -18.303 -22.934  0.00  0.00    +0.031 C 
ATOM      7  C   UNL     1      34.076 -17.076 -20.945  0.00  0.00    +0.001 C 
ENDROOT
BRANCH   3   8
ATOM      8  C   UNL     1      34.357 -19.517 -20.819  0.00  0.00    +0.003 C 
ATOM      9  C   UNL     1      35.549 -20.057 -20.337  0.00  0.00    +0.037 C 
ATOM     10  C   UNL     1      33.148 -20.167 -20.572  0.00  0.00    +0.000 C 
ATOM     11  C   UNL     1      35.533 -21.246 -19.608  0.00  0.00    +0.139 C 
ATOM     12  C   UNL     1      33.130 -21.355 -19.843  0.00  0.00    +0.003 C 
ATOM     13  C   UNL     1      34.323 -21.896 -19.362  0.00  0.00    +0.037 C 
BRANCH  11  14
ATOM     14  O   UNL     1      36.695 -21.774 -19.138  0.00  0.00    -0.471 OA
ATOM     15  C   UNL     1      36.852 -21.843 -17.722  0.00  0.00    +0.252 C 
ENDBRANCH  11  14
ENDBRANCH   3   8
BRANCH   2  17
ATOM     16  O   UNL     1      32.296 -13.798 -23.342  0.00  0.00    -0.270 OA
ATOM     17  N   UNL     1      34.425 -14.715 -23.759  0.00  0.00    -0.279 N 
ATOM     18  C   UNL     1      33.412 -13.766 -23.871  0.00  0.00    +0.245 C 
ATOM     19  H   UNL     1      35.254 -14.521 -24.253  0.00  0.00    +0.155 HD
BRANCH  18  23
ATOM     20  C   UNL     1      34.891 -10.659 -25.354  0.00  0.00    +0.010 C 
ATOM     21  C   UNL     1      34.296 -11.365 -24.136  0.00  0.00    +0.031 C 
ATOM     22  C   UNL     1      34.205 -11.273 -26.576  0.00  0.00    +0.033 C 
ATOM     23  C   UNL     1      33.788 -12.643 -24.720  0.00  0.00    +0.034 C 
ATOM     24  C   UNL     1      33.738 -12.592 -26.055  0.00  0.00    +0.054 C 
BRANCH  24  26
ATOM     25  O   UNL     1      33.692 -14.803 -26.927  0.00  0.00    -0.245 OA
ATOM     26  C   UNL     1      33.296 -13.647 -26.957  0.00  0.00    +0.334 C 
BRANCH  26  27
ATOM     27  O   UNL     1      32.384 -13.156 -27.827  0.00  0.00    -0.477 OA
ATOM     28  H   UNL     1      32.665 -12.656 -28.568  0.00  0.00    +0.295 HD
ENDBRANCH  26  27
ENDBRANCH  24  26
ENDBRANCH  18  23
ENDBRANCH   2  17
TORSDOF 6
ENDMDL
MODEL 4
REMARK VINA RESULT:     -10.6      4.034      6.385
REMARK  Name = 9820008
REMARK  6 active torsions:
REMARK  status: ('A' for Active; 'I' for Inactive)
REMARK    1  A    between atoms: C_2  and  N_17
REMARK    2  A    between atoms: C_3  and  C_8
REMARK    3  A    between atoms: C_11  and  O_14
REMARK    4  A    between atoms: C_18  and  C_23
REMARK    5  A    between atoms: C_24  and  C_26
REMARK    6  A    between atoms: C_26  and  O_27
REMARK                            x       y       z     vdW  Elec       q    Type
REMARK                         _______ _______ _______ _____ _____    ______ ____
ROOT
ATOM      1  F   UNL     1      31.596 -12.122 -21.266  0.00  0.00    -0.203 F 
ATOM      2  C   UNL     1      32.836 -11.433 -23.171  0.00  0.00    +0.078 C 
ATOM      3  C   UNL     1      33.580 -14.063 -23.614  0.00  0.00    +0.002 C 
ATOM      4  C   UNL     1      32.385 -12.418 -22.309  0.00  0.00    +0.153 C 
ATOM      5  C   UNL     1      33.650 -11.733 -24.250  0.00  0.00    +0.017 C 
ATOM      6  C   UNL     1      32.760 -13.743 -22.532  0.00  0.00    +0.031 C 
ATOM      7  C   UNL     1      34.026 -13.058 -24.473  0.00  0.00    +0.001 C 
ENDROOT
BRANCH   3   8
ATOM      8  C   UNL     1      33.969 -15.437 -23.846  0.00  0.00    +0.003 C 
ATOM      9  C   UNL     1      34.454 -16.212 -22.793  0.00  0.00    +0.037 C 
ATOM     10  C   UNL     1      33.860 -15.986 -25.123  0.00  0.00    +0.000 C 
ATOM     11  C   UNL     1      34.830 -17.536 -23.016  0.00  0.00    +0.139 C 
ATOM     12  C   UNL     1      34.235 -17.311 -25.347  0.00  0.00    +0.003 C 
ATOM     13  C   UNL     1      34.721 -18.086 -24.294  0.00  0.00    +0.037 C 
BRANCH  11  14
ATOM     14  O   UNL     1      35.304 -18.293 -21.989  0.00  0.00    -0.471 OA
ATOM     15  C   UNL     1      34.550 -19.450 -21.633  0.00  0.00    +0.252 C 
ENDBRANCH  11  14
ENDBRANCH   3   8
BRANCH   2  17
ATOM     16  O   UNL     1      34.457  -8.895 -23.307  0.00  0.00    -0.270 OA
ATOM     17  N   UNL     1      32.458 -10.087 -22.946  0.00  0.00    -0.279 N 
ATOM     18  C   UNL     1      33.256  -8.948 -23.024  0.00  0.00    +0.245 C 
ATOM     19  H   UNL     1      31.515  -9.938 -22.707  0.00  0.00    +0.155 HD
BRANCH  18  23
ATOM     20  C   UNL     1      31.078  -5.901 -23.102  0.00  0.00    +0.010 C 
ATOM     21  C   UNL     1      32.096  -6.793 -23.812  0.00  0.00    +0.031 C 
ATOM     22  C   UNL     1      31.400  -5.996 -21.609  0.00  0.00    +0.033 C 
ATOM     23  C   UNL     1      32.519  -7.728 -22.726  0.00  0.00    +0.034 C 
ATOM     24  C   UNL     1      32.138  -7.291 -21.521  0.00  0.00    +0.054 C 
BRANCH  24  26
ATOM     25  O   UNL     1      31.963  -9.046 -19.928  0.00  0.00    -0.245 OA
ATOM     26  C   UNL     1      32.377  -7.939 -20.239  0.00  0.00    +0.334 C 
BRANCH  26  27
ATOM     27  O   UNL     1      33.122  -7.134 -19.447  0.00  0.00    -0.477 OA
ATOM     28  H   UNL     1      33.881  -7.474 -19.015  0.00  0.00    +0.295 HD
ENDBRANCH  26  27
ENDBRANCH  24  26
ENDBRANCH  18  23
ENDBRANCH   2  17
TORSDOF 6
ENDMDL
MODEL 5
REMARK VINA RESULT:     -10.6      3.235      5.445
REMARK  Name = 9820008
REMARK  6 active torsions:
REMARK  status: ('A' for Active; 'I' for Inactive)
REMARK    1  A    between atoms: C_2  and  N_17
REMARK    2  A    between atoms: C_3  and  C_8
REMARK    3  A    between atoms: C_11  and  O_14
REMARK    4  A    between atoms: C_18  and  C_23
REMARK    5  A    between atoms: C_24  and  C_26
REMARK    6  A    between atoms: C_26  and  O_27
REMARK                            x       y       z     vdW  Elec       q    Type
REMARK                         _______ _______ _______ _____ _____    ______ ____
ROOT
ATOM      1  F   UNL     1      37.434 -20.006 -20.266  0.00  0.00    -0.203 F 
ATOM      2  C   UNL     1      35.111 -20.499 -20.324  0.00  0.00    +0.078 C 
ATOM      3  C   UNL     1      35.396 -22.021 -18.029  0.00  0.00    +0.002 C 
ATOM      4  C   UNL     1      36.362 -20.616 -19.740  0.00  0.00    +0.153 C 
ATOM      5  C   UNL     1      34.000 -21.125 -19.785  0.00  0.00    +0.017 C 
ATOM      6  C   UNL     1      36.505 -21.383 -18.584  0.00  0.00    +0.031 C 
ATOM      7  C   UNL     1      34.143 -21.893 -18.629  0.00  0.00    +0.001 C 
ENDROOT
BRANCH   3   8
ATOM      8  C   UNL     1      35.544 -22.817 -16.829  0.00  0.00    +0.003 C 
ATOM      9  C   UNL     1      36.789 -22.919 -16.210  0.00  0.00    +0.037 C 
ATOM     10  C   UNL     1      34.442 -23.482 -16.293  0.00  0.00    +0.000 C 
ATOM     11  C   UNL     1      36.933 -23.686 -15.054  0.00  0.00    +0.139 C 
ATOM     12  C   UNL     1      34.585 -24.249 -15.137  0.00  0.00    +0.003 C 
ATOM     13  C   UNL     1      35.830 -24.351 -14.518  0.00  0.00    +0.037 C 
BRANCH  11  14
ATOM     14  O   UNL     1      38.148 -23.787 -14.449  0.00  0.00    -0.471 OA
ATOM     15  C   UNL     1      38.798 -25.055 -14.503  0.00  0.00    +0.252 C 
ENDBRANCH  11  14
ENDBRANCH   3   8
BRANCH   2  17
ATOM     16  O   UNL     1      35.306 -17.519 -20.740  0.00  0.00    -0.270 OA
ATOM     17  N   UNL     1      34.963 -19.723 -21.498  0.00  0.00    -0.279 N 
ATOM     18  C   UNL     1      35.064 -18.340 -21.631  0.00  0.00    +0.245 C 
ATOM     19  H   UNL     1      34.765 -20.222 -22.323  0.00  0.00    +0.155 HD
BRANCH  18  23
ATOM     20  C   UNL     1      34.372 -18.058 -25.302  0.00  0.00    +0.010 C 
ATOM     21  C   UNL     1      35.046 -18.816 -24.158  0.00  0.00    +0.031 C 
ATOM     22  C   UNL     1      34.359 -16.586 -24.884  0.00  0.00    +0.033 C 
ATOM     23  C   UNL     1      34.850 -17.892 -23.000  0.00  0.00    +0.034 C 
ATOM     24  C   UNL     1      34.475 -16.672 -23.398  0.00  0.00    +0.054 C 
BRANCH  24  26
ATOM     25  O   UNL     1      34.893 -14.517 -22.487  0.00  0.00    -0.245 OA
ATOM     26  C   UNL     1      34.197 -15.520 -22.551  0.00  0.00    +0.334 C 
BRANCH  26  27
ATOM     27  O   UNL     1      33.059 -15.727 -21.851  0.00  0.00    -0.477 OA
ATOM     28  H   UNL     1      32.775 -16.600 -21.665  0.00  0.00    +0.295 HD
ENDBRANCH  26  27
ENDBRANCH  24  26
ENDBRANCH  18  23
ENDBRANCH   2  17
TORSDOF 6
ENDMDL
MODEL 6
REMARK VINA RESULT:     -10.5      3.212      9.995
REMARK  Name = 9820008
REMARK  6 active torsions:
REMARK  status: ('A' for Active; 'I' for Inactive)
REMARK    1  A    between atoms: C_2  and  N_17
REMARK    2  A    between atoms: C_3  and  C_8
REMARK    3  A    between atoms: C_11  and  O_14
REMARK    4  A    between atoms: C_18  and  C_23
REMARK    5  A    between atoms: C_24  and  C_26
REMARK    6  A    between atoms: C_26  and  O_27
REMARK                            x       y       z     vdW  Elec       q    Type
REMARK                         _______ _______ _______ _____ _____    ______ ____
ROOT
ATOM      1  F   UNL     1      36.426 -21.464 -19.242  0.00  0.00    -0.203 F 
ATOM      2  C   UNL     1      34.081 -21.093 -19.284  0.00  0.00    +0.078 C 
ATOM      3  C   UNL     1      34.381 -19.575 -21.581  0.00  0.00    +0.002 C 
ATOM      4  C   UNL     1      35.347 -20.915 -19.817  0.00  0.00    +0.153 C 
ATOM      5  C   UNL     1      32.962 -20.529 -19.875  0.00  0.00    +0.017 C 
ATOM      6  C   UNL     1      35.498 -20.150 -20.974  0.00  0.00    +0.031 C 
ATOM      7  C   UNL     1      33.113 -19.764 -21.031  0.00  0.00    +0.001 C 
ENDROOT
BRANCH   3   8
ATOM      8  C   UNL     1      34.538 -18.783 -22.781  0.00  0.00    +0.003 C 
ATOM      9  C   UNL     1      34.767 -17.410 -22.686  0.00  0.00    +0.037 C 
ATOM     10  C   UNL     1      34.459 -19.390 -24.034  0.00  0.00    +0.000 C 
ATOM     11  C   UNL     1      34.917 -16.645 -23.842  0.00  0.00    +0.139 C 
ATOM     12  C   UNL     1      34.610 -18.627 -25.191  0.00  0.00    +0.003 C 
ATOM     13  C   UNL     1      34.838 -17.254 -25.095  0.00  0.00    +0.037 C 
BRANCH  11  14
ATOM     14  O   UNL     1      35.140 -15.306 -23.750  0.00  0.00    -0.471 OA
ATOM     15  C   UNL     1      34.279 -14.561 -22.891  0.00  0.00    +0.252 C 
ENDBRANCH  11  14
ENDBRANCH   3   8
BRANCH   2  17
ATOM     16  O   UNL     1      33.757 -24.069 -18.928  0.00  0.00    -0.270 OA
ATOM     17  N   UNL     1      33.924 -21.866 -18.110  0.00  0.00    -0.279 N 
ATOM     18  C   UNL     1      33.778 -23.248 -18.006  0.00  0.00    +0.245 C 
ATOM     19  H   UNL     1      33.919 -21.367 -17.261  0.00  0.00    +0.155 HD
BRANCH  18  23
ATOM     20  C   UNL     1      34.289 -24.158 -14.407  0.00  0.00    +0.010 C 
ATOM     21  C   UNL     1      34.826 -24.154 -15.839  0.00  0.00    +0.031 C 
ATOM     22  C   UNL     1      32.767 -24.263 -14.526  0.00  0.00    +0.033 C 
ATOM     23  C   UNL     1      33.642 -23.693 -16.626  0.00  0.00    +0.034 C 
ATOM     24  C   UNL     1      32.516 -23.754 -15.907  0.00  0.00    +0.054 C 
BRANCH  24  26
ATOM     25  O   UNL     1      30.913 -22.437 -17.067  0.00  0.00    -0.245 OA
ATOM     26  C   UNL     1      31.176 -23.388 -16.345  0.00  0.00    +0.334 C 
BRANCH  26  27
ATOM     27  O   UNL     1      30.272 -24.254 -15.834  0.00  0.00    -0.477 OA
ATOM     28  H   UNL     1      30.244 -25.138 -16.141  0.00  0.00    +0.295 HD
ENDBRANCH  26  27
ENDBRANCH  24  26
ENDBRANCH  18  23
ENDBRANCH   2  17
TORSDOF 6
ENDMDL
MODEL 7
REMARK VINA RESULT:     -10.2      2.468      8.926
REMARK  Name = 9820008
REMARK  6 active torsions:
REMARK  status: ('A' for Active; 'I' for Inactive)
REMARK    1  A    between atoms: C_2  and  N_17
REMARK    2  A    between atoms: C_3  and  C_8
REMARK    3  A    between atoms: C_11  and  O_14
REMARK    4  A    between atoms: C_18  and  C_23
REMARK    5  A    between atoms: C_24  and  C_26
REMARK    6  A    between atoms: C_26  and  O_27
REMARK                            x       y       z     vdW  Elec       q    Type
REMARK                         _______ _______ _______ _____ _____    ______ ____
ROOT
ATOM      1  F   UNL     1      35.752 -16.992 -23.365  0.00  0.00    -0.203 F 
ATOM      2  C   UNL     1      34.540 -16.519 -21.379  0.00  0.00    +0.078 C 
ATOM      3  C   UNL     1      33.830 -14.054 -22.422  0.00  0.00    +0.002 C 
ATOM      4  C   UNL     1      34.986 -16.164 -22.641  0.00  0.00    +0.153 C 
ATOM      5  C   UNL     1      33.747 -15.669 -20.627  0.00  0.00    +0.017 C 
ATOM      6  C   UNL     1      34.628 -14.923 -23.166  0.00  0.00    +0.031 C 
ATOM      7  C   UNL     1      33.389 -14.427 -21.151  0.00  0.00    +0.001 C 
ENDROOT
BRANCH   3   8
ATOM      8  C   UNL     1      33.458 -12.766 -22.966  0.00  0.00    +0.003 C 
ATOM      9  C   UNL     1      32.569 -11.946 -22.272  0.00  0.00    +0.037 C 
ATOM     10  C   UNL     1      33.988 -12.345 -24.185  0.00  0.00    +0.000 C 
ATOM     11  C   UNL     1      32.210 -10.705 -22.797  0.00  0.00    +0.139 C 
ATOM     12  C   UNL     1      33.631 -11.104 -24.710  0.00  0.00    +0.003 C 
ATOM     13  C   UNL     1      32.741 -10.284 -24.017  0.00  0.00    +0.037 C 
BRANCH  11  14
ATOM     14  O   UNL     1      31.342  -9.904 -22.121  0.00  0.00    -0.471 OA
ATOM     15  C   UNL     1      31.906  -8.907 -21.270  0.00  0.00    +0.252 C 
ENDBRANCH  11  14
ENDBRANCH   3   8
BRANCH   2  17
ATOM     16  O   UNL     1      34.183 -19.298 -22.491  0.00  0.00    -0.270 OA
ATOM     17  N   UNL     1      34.902 -17.778 -20.842  0.00  0.00    -0.279 N 
ATOM     18  C   UNL     1      34.711 -19.037 -21.405  0.00  0.00    +0.245 C 
ATOM     19  H   UNL     1      35.346 -17.761 -19.964  0.00  0.00    +0.155 HD
BRANCH  18  23
ATOM     20  C   UNL     1      36.751 -21.295 -19.219  0.00  0.00    +0.010 C 
ATOM     21  C   UNL     1      36.681 -20.380 -20.442  0.00  0.00    +0.031 C 
ATOM     22  C   UNL     1      35.363 -21.926 -19.083  0.00  0.00    +0.033 C 
ATOM     23  C   UNL     1      35.216 -20.111 -20.560  0.00  0.00    +0.034 C 
ATOM     24  C   UNL     1      34.496 -20.957 -19.817  0.00  0.00    +0.054 C 
BRANCH  24  26
ATOM     25  O   UNL     1      32.288 -20.118 -20.078  0.00  0.00    -0.245 OA
ATOM     26  C   UNL     1      33.046 -20.993 -19.687  0.00  0.00    +0.334 C 
BRANCH  26  27
ATOM     27  O   UNL     1      32.667 -22.137 -19.073  0.00  0.00    -0.477 OA
ATOM     28  H   UNL     1      32.923 -22.300 -18.186  0.00  0.00    +0.295 HD
ENDBRANCH  26  27
ENDBRANCH  24  26
ENDBRANCH  18  23
ENDBRANCH   2  17
TORSDOF 6
ENDMDL
MODEL 8
REMARK VINA RESULT:     -10.1      3.186     10.148
REMARK  Name = 9820008
REMARK  6 active torsions:
REMARK  status: ('A' for Active; 'I' for Inactive)
REMARK    1  A    between atoms: C_2  and  N_17
REMARK    2  A    between atoms: C_3  and  C_8
REMARK    3  A    between atoms: C_11  and  O_14
REMARK    4  A    between atoms: C_18  and  C_23
REMARK    5  A    between atoms: C_24  and  C_26
REMARK    6  A    between atoms: C_26  and  O_27
REMARK                            x       y       z     vdW  Elec       q    Type
REMARK                         _______ _______ _______ _____ _____    ______ ____
ROOT
ATOM      1  F   UNL     1      36.466 -21.361 -19.162  0.00  0.00    -0.203 F 
ATOM      2  C   UNL     1      34.112 -21.058 -19.240  0.00  0.00    +0.078 C 
ATOM      3  C   UNL     1      34.398 -19.593 -21.573  0.00  0.00    +0.002 C 
ATOM      4  C   UNL     1      35.379 -20.858 -19.763  0.00  0.00    +0.153 C 
ATOM      5  C   UNL     1      32.985 -20.542 -19.858  0.00  0.00    +0.017 C 
ATOM      6  C   UNL     1      35.523 -20.120 -20.938  0.00  0.00    +0.031 C 
ATOM      7  C   UNL     1      33.129 -19.803 -21.032  0.00  0.00    +0.001 C 
ENDROOT
BRANCH   3   8
ATOM      8  C   UNL     1      34.546 -18.827 -22.792  0.00  0.00    +0.003 C 
ATOM      9  C   UNL     1      34.792 -17.456 -22.728  0.00  0.00    +0.037 C 
ATOM     10  C   UNL     1      34.443 -19.461 -24.030  0.00  0.00    +0.000 C 
ATOM     11  C   UNL     1      34.934 -16.718 -23.903  0.00  0.00    +0.139 C 
ATOM     12  C   UNL     1      34.587 -18.723 -25.205  0.00  0.00    +0.003 C 
ATOM     13  C   UNL     1      34.831 -17.352 -25.142  0.00  0.00    +0.037 C 
BRANCH  11  14
ATOM     14  O   UNL     1      35.173 -15.379 -23.842  0.00  0.00    -0.471 OA
ATOM     15  C   UNL     1      34.283 -14.595 -23.051  0.00  0.00    +0.252 C 
ENDBRANCH  11  14
ENDBRANCH   3   8
BRANCH   2  17
ATOM     16  O   UNL     1      33.715 -24.016 -18.819  0.00  0.00    -0.270 OA
ATOM     17  N   UNL     1      33.963 -21.805 -18.048  0.00  0.00    -0.279 N 
ATOM     18  C   UNL     1      33.781 -23.179 -17.914  0.00  0.00    +0.245 C 
ATOM     19  H   UNL     1      33.993 -21.290 -17.209  0.00  0.00    +0.155 HD
BRANCH  18  23
ATOM     20  C   UNL     1      32.733 -24.634 -14.624  0.00  0.00    +0.010 C 
ATOM     21  C   UNL     1      32.339 -23.918 -15.916  0.00  0.00    +0.031 C 
ATOM     22  C   UNL     1      34.159 -24.181 -14.306  0.00  0.00    +0.033 C 
ATOM     23  C   UNL     1      33.666 -23.595 -16.522  0.00  0.00    +0.034 C 
ATOM     24  C   UNL     1      34.661 -23.739 -15.641  0.00  0.00    +0.054 C 
BRANCH  24  26
ATOM     25  O   UNL     1      36.569 -22.441 -16.210  0.00  0.00    -0.245 OA
ATOM     26  C   UNL     1      36.080 -23.510 -15.876  0.00  0.00    +0.334 C 
BRANCH  26  27
ATOM     27  O   UNL     1      36.772 -24.654 -15.669  0.00  0.00    -0.477 OA
ATOM     28  H   UNL     1      37.699 -24.624 -15.538  0.00  0.00    +0.295 HD
ENDBRANCH  26  27
ENDBRANCH  24  26
ENDBRANCH  18  23
ENDBRANCH   2  17
TORSDOF 6
ENDMDL
MODEL 9
REMARK VINA RESULT:     -10.1      3.905      9.951
REMARK  Name = 9820008
REMARK  6 active torsions:
REMARK  status: ('A' for Active; 'I' for Inactive)
REMARK    1  A    between atoms: C_2  and  N_17
REMARK    2  A    between atoms: C_3  and  C_8
REMARK    3  A    between atoms: C_11  and  O_14
REMARK    4  A    between atoms: C_18  and  C_23
REMARK    5  A    between atoms: C_24  and  C_26
REMARK    6  A    between atoms: C_26  and  O_27
REMARK                            x       y       z     vdW  Elec       q    Type
REMARK                         _______ _______ _______ _____ _____    ______ ____
ROOT
ATOM      1  F   UNL     1      31.645 -13.325 -21.731  0.00  0.00    -0.203 F 
ATOM      2  C   UNL     1      33.130 -12.667 -23.464  0.00  0.00    +0.078 C 
ATOM      3  C   UNL     1      32.488 -10.017 -22.982  0.00  0.00    +0.002 C 
ATOM      4  C   UNL     1      32.219 -12.362 -22.466  0.00  0.00    +0.153 C 
ATOM      5  C   UNL     1      33.727 -11.676 -24.225  0.00  0.00    +0.017 C 
ATOM      6  C   UNL     1      31.896 -11.027 -22.224  0.00  0.00    +0.031 C 
ATOM      7  C   UNL     1      33.404 -10.341 -23.983  0.00  0.00    +0.001 C 
ENDROOT
BRANCH   3   8
ATOM      8  C   UNL     1      32.153  -8.632 -22.730  0.00  0.00    +0.003 C 
ATOM      9  C   UNL     1      31.625  -7.845 -23.754  0.00  0.00    +0.037 C 
ATOM     10  C   UNL     1      32.359  -8.083 -21.465  0.00  0.00    +0.000 C 
ATOM     11  C   UNL     1      31.303  -6.510 -23.512  0.00  0.00    +0.139 C 
ATOM     12  C   UNL     1      32.036  -6.748 -21.222  0.00  0.00    +0.003 C 
ATOM     13  C   UNL     1      31.509  -5.961 -22.246  0.00  0.00    +0.037 C 
BRANCH  11  14
ATOM     14  O   UNL     1      30.788  -5.741 -24.510  0.00  0.00    -0.471 OA
ATOM     15  C   UNL     1      31.260  -4.399 -24.606  0.00  0.00    +0.252 C 
ENDBRANCH  11  14
ENDBRANCH   3   8
BRANCH   2  17
ATOM     16  O   UNL     1      34.962 -14.543 -21.977  0.00  0.00    -0.270 OA
ATOM     17  N   UNL     1      33.459 -14.021 -23.714  0.00  0.00    -0.279 N 
ATOM     18  C   UNL     1      34.318 -14.842 -22.988  0.00  0.00    +0.245 C 
ATOM     19  H   UNL     1      33.027 -14.433 -24.496  0.00  0.00    +0.155 HD
BRANCH  18  23
ATOM     20  C   UNL     1      34.816 -17.858 -25.155  0.00  0.00    +0.010 C 
ATOM     21  C   UNL     1      34.305 -16.424 -25.016  0.00  0.00    +0.031 C 
ATOM     22  C   UNL     1      34.634 -18.507 -23.781  0.00  0.00    +0.033 C 
ATOM     23  C   UNL     1      34.411 -16.185 -23.544  0.00  0.00    +0.034 C 
ATOM     24  C   UNL     1      34.591 -17.325 -22.870  0.00  0.00    +0.054 C 
BRANCH  24  26
ATOM     25  O   UNL     1      35.731 -17.906 -20.867  0.00  0.00    -0.245 OA
ATOM     26  C   UNL     1      34.733 -17.478 -21.428  0.00  0.00    +0.334 C 
BRANCH  26  27
ATOM     27  O   UNL     1      33.601 -17.076 -20.808  0.00  0.00    -0.477 OA
ATOM     28  H   UNL     1      32.812 -16.961 -21.301  0.00  0.00    +0.295 HD
ENDBRANCH  26  27
ENDBRANCH  24  26
ENDBRANCH  18  23
ENDBRANCH   2  17
TORSDOF 6
ENDMDL
