MODEL 1
REMARK VINA RESULT:      -9.3      0.000      0.000
REMARK  Name = 4463
REMARK  1 active torsions:
REMARK  status: ('A' for Active; 'I' for Inactive)
REMARK    1  A    between atoms: N_2  and  C_19
REMARK                            x       y       z     vdW  Elec       q    Type
REMARK                         _______ _______ _______ _____ _____    ______ ____
ROOT
ATOM      1  O   UNL     1      32.712  -6.408 -19.343  0.00  0.00    -0.270 OA
ATOM      2  N   UNL     1      32.728  -8.694 -22.823  0.00  0.00    -0.258 N 
ATOM      3  N   UNL     1      32.210  -8.547 -19.879  0.00  0.00    -0.278 N 
ATOM      4  N   UNL     1      32.129 -10.995 -22.665  0.00  0.00    -0.228 NA
ATOM      5  N   UNL     1      31.980  -6.722 -23.926  0.00  0.00    -0.229 NA
ATOM      6  C   UNL     1      32.269  -9.787 -22.038  0.00  0.00    +0.150 C 
ATOM      7  C   UNL     1      32.234  -7.366 -22.745  0.00  0.00    +0.141 C 
ATOM      8  C   UNL     1      32.013  -9.686 -20.672  0.00  0.00    +0.079 C 
ATOM      9  C   UNL     1      32.016  -6.708 -21.539  0.00  0.00    +0.086 C 
ATOM     10  C   UNL     1      31.625 -10.843 -19.970  0.00  0.00    -0.004 C 
ATOM     11  C   UNL     1      32.364  -7.223 -20.202  0.00  0.00    +0.252 C 
ATOM     12  C   UNL     1      31.501  -5.397 -21.566  0.00  0.00    +0.009 C 
ATOM     13  C   UNL     1      31.469 -12.056 -20.619  0.00  0.00    +0.018 C 
ATOM     14  C   UNL     1      31.733 -12.079 -21.965  0.00  0.00    +0.100 C 
ATOM     15  C   UNL     1      31.485  -5.465 -23.916  0.00  0.00    +0.100 C 
ATOM     16  C   UNL     1      31.340 -10.830 -18.498  0.00  0.00    +0.032 C 
ATOM     17  C   UNL     1      31.222  -4.765 -22.766  0.00  0.00    +0.021 C 
ATOM     18  H   UNL     1      32.242  -8.731 -18.912  0.00  0.00    +0.155 HD
ENDROOT
BRANCH   2  19
ATOM     19  C   UNL     1      33.432  -9.053 -24.097  0.00  0.00    +0.080 C 
ATOM     20  C   UNL     1      34.620  -9.939 -24.067  0.00  0.00    +0.022 C 
ATOM     21  C   UNL     1      34.767  -8.483 -24.397  0.00  0.00    +0.022 C 
ENDBRANCH   2  19
TORSDOF 1
ENDMDL
MODEL 2
REMARK VINA RESULT:      -9.2      5.621      8.099
REMARK  Name = 4463
REMARK  1 active torsions:
REMARK  status: ('A' for Active; 'I' for Inactive)
REMARK    1  A    between atoms: N_2  and  C_19
REMARK                            x       y       z     vdW  Elec       q    Type
REMARK                         _______ _______ _______ _____ _____    ______ ____
ROOT
ATOM      1  O   UNL     1      32.390 -15.677 -26.822  0.00  0.00    -0.270 OA
ATOM      2  N   UNL     1      33.732 -14.716 -22.999  0.00  0.00    -0.258 N 
ATOM      3  N   UNL     1      33.650 -16.694 -25.244  0.00  0.00    -0.278 N 
ATOM      4  N   UNL     1      35.013 -16.337 -21.812  0.00  0.00    -0.228 NA
ATOM      5  N   UNL     1      33.973 -12.495 -23.820  0.00  0.00    -0.229 NA
ATOM      6  C   UNL     1      34.378 -15.982 -22.971  0.00  0.00    +0.150 C 
ATOM      7  C   UNL     1      33.742 -13.816 -24.096  0.00  0.00    +0.141 C 
ATOM      8  C   UNL     1      34.345 -16.876 -24.040  0.00  0.00    +0.079 C 
ATOM      9  C   UNL     1      33.518 -14.219 -25.408  0.00  0.00    +0.086 C 
ATOM     10  C   UNL     1      34.961 -18.132 -23.889  0.00  0.00    -0.004 C 
ATOM     11  C   UNL     1      33.130 -15.574 -25.840  0.00  0.00    +0.252 C 
ATOM     12  C   UNL     1      33.572 -13.251 -26.431  0.00  0.00    +0.009 C 
ATOM     13  C   UNL     1      35.616 -18.473 -22.718  0.00  0.00    +0.018 C 
ATOM     14  C   UNL     1      35.614 -17.541 -21.711  0.00  0.00    +0.100 C 
ATOM     15  C   UNL     1      34.019 -11.594 -24.824  0.00  0.00    +0.100 C 
ATOM     16  C   UNL     1      34.965 -19.160 -24.980  0.00  0.00    +0.032 C 
ATOM     17  C   UNL     1      33.834 -11.922 -26.144  0.00  0.00    +0.021 C 
ATOM     18  H   UNL     1      33.512 -17.523 -25.757  0.00  0.00    +0.155 HD
ENDROOT
BRANCH   2  19
ATOM     19  C   UNL     1      33.418 -14.112 -21.663  0.00  0.00    +0.080 C 
ATOM     20  C   UNL     1      32.428 -14.757 -20.768  0.00  0.00    +0.022 C 
ATOM     21  C   UNL     1      32.112 -13.450 -21.433  0.00  0.00    +0.022 C 
ENDBRANCH   2  19
TORSDOF 1
ENDMDL
MODEL 3
REMARK VINA RESULT:      -9.2      3.319      5.988
REMARK  Name = 4463
REMARK  1 active torsions:
REMARK  status: ('A' for Active; 'I' for Inactive)
REMARK    1  A    between atoms: N_2  and  C_19
REMARK                            x       y       z     vdW  Elec       q    Type
REMARK                         _______ _______ _______ _____ _____    ______ ____
ROOT
ATOM      1  O   UNL     1      35.090 -10.288 -25.391  0.00  0.00    -0.270 OA
ATOM      2  N   UNL     1      33.081 -13.200 -23.196  0.00  0.00    -0.258 N 
ATOM      3  N   UNL     1      33.588 -10.293 -23.700  0.00  0.00    -0.278 N 
ATOM      4  N   UNL     1      31.637 -12.493 -21.437  0.00  0.00    -0.228 NA
ATOM      5  N   UNL     1      32.952 -14.416 -25.238  0.00  0.00    -0.229 NA
ATOM      6  C   UNL     1      32.461 -12.144 -22.473  0.00  0.00    +0.150 C 
ATOM      7  C   UNL     1      33.249 -13.240 -24.604  0.00  0.00    +0.141 C 
ATOM      8  C   UNL     1      32.696 -10.798 -22.744  0.00  0.00    +0.079 C 
ATOM      9  C   UNL     1      33.707 -12.154 -25.343  0.00  0.00    +0.086 C 
ATOM     10  C   UNL     1      32.084  -9.828 -21.928  0.00  0.00    -0.004 C 
ATOM     11  C   UNL     1      34.187 -10.875 -24.789  0.00  0.00    +0.252 C 
ATOM     12  C   UNL     1      33.819 -12.286 -26.741  0.00  0.00    +0.009 C 
ATOM     13  C   UNL     1      31.238 -10.192 -20.894  0.00  0.00    +0.018 C 
ATOM     14  C   UNL     1      31.048 -11.535 -20.690  0.00  0.00    +0.100 C 
ATOM     15  C   UNL     1      33.069 -14.508 -26.580  0.00  0.00    +0.100 C 
ATOM     16  C   UNL     1      32.288  -8.358 -22.138  0.00  0.00    +0.032 C 
ATOM     17  C   UNL     1      33.489 -13.472 -27.375  0.00  0.00    +0.021 C 
ATOM     18  H   UNL     1      33.829  -9.348 -23.567  0.00  0.00    +0.155 HD
ENDROOT
BRANCH   2  19
ATOM     19  C   UNL     1      33.146 -14.523 -22.494  0.00  0.00    +0.080 C 
ATOM     20  C   UNL     1      33.966 -14.678 -21.269  0.00  0.00    +0.022 C 
ATOM     21  C   UNL     1      34.383 -15.338 -22.551  0.00  0.00    +0.022 C 
ENDBRANCH   2  19
TORSDOF 1
ENDMDL
MODEL 4
REMARK VINA RESULT:      -9.1      3.006      6.209
REMARK  Name = 4463
REMARK  1 active torsions:
REMARK  status: ('A' for Active; 'I' for Inactive)
REMARK    1  A    between atoms: N_2  and  C_19
REMARK                            x       y       z     vdW  Elec       q    Type
REMARK                         _______ _______ _______ _____ _____    ______ ____
ROOT
ATOM      1  O   UNL     1      30.679 -11.631 -21.422  0.00  0.00    -0.270 OA
ATOM      2  N   UNL     1      33.432 -12.745 -24.339  0.00  0.00    -0.258 N 
ATOM      3  N   UNL     1      32.296 -10.585 -22.607  0.00  0.00    -0.278 N 
ATOM      4  N   UNL     1      34.853 -11.064 -25.252  0.00  0.00    -0.228 NA
ATOM      5  N   UNL     1      33.624 -14.794 -23.142  0.00  0.00    -0.229 NA
ATOM      6  C   UNL     1      33.886 -11.398 -24.343  0.00  0.00    +0.150 C 
ATOM      7  C   UNL     1      33.150 -13.510 -23.178  0.00  0.00    +0.141 C 
ATOM      8  C   UNL     1      33.355 -10.416 -23.509  0.00  0.00    +0.079 C 
ATOM      9  C   UNL     1      32.414 -13.016 -22.106  0.00  0.00    +0.086 C 
ATOM     10  C   UNL     1      33.826  -9.095 -23.636  0.00  0.00    -0.004 C 
ATOM     11  C   UNL     1      31.734 -11.709 -22.057  0.00  0.00    +0.252 C 
ATOM     12  C   UNL     1      32.206 -13.846 -20.987  0.00  0.00    +0.009 C 
ATOM     13  C   UNL     1      34.819  -8.773 -24.547  0.00  0.00    +0.018 C 
ATOM     14  C   UNL     1      35.298  -9.792 -25.330  0.00  0.00    +0.100 C 
ATOM     15  C   UNL     1      33.408 -15.563 -22.054  0.00  0.00    +0.100 C 
ATOM     16  C   UNL     1      33.306  -7.973 -22.790  0.00  0.00    +0.032 C 
ATOM     17  C   UNL     1      32.714 -15.134 -20.950  0.00  0.00    +0.021 C 
ATOM     18  H   UNL     1      31.879  -9.742 -22.313  0.00  0.00    +0.155 HD
ENDROOT
BRANCH   2  19
ATOM     19  C   UNL     1      33.705 -13.531 -25.586  0.00  0.00    +0.080 C 
ATOM     20  C   UNL     1      33.089 -13.125 -26.872  0.00  0.00    +0.022 C 
ATOM     21  C   UNL     1      32.644 -14.380 -26.179  0.00  0.00    +0.022 C 
ENDBRANCH   2  19
TORSDOF 1
ENDMDL
MODEL 5
REMARK VINA RESULT:      -8.7      4.587      7.550
REMARK  Name = 4463
REMARK  1 active torsions:
REMARK  status: ('A' for Active; 'I' for Inactive)
REMARK    1  A    between atoms: N_2  and  C_19
REMARK                            x       y       z     vdW  Elec       q    Type
REMARK                         _______ _______ _______ _____ _____    ______ ____
ROOT
ATOM      1  O   UNL     1      31.710 -16.009 -20.535  0.00  0.00    -0.270 OA
ATOM      2  N   UNL     1      33.552 -14.491 -23.946  0.00  0.00    -0.258 N 
ATOM      3  N   UNL     1      32.065 -13.952 -21.404  0.00  0.00    -0.278 N 
ATOM      4  N   UNL     1      33.504 -12.135 -24.301  0.00  0.00    -0.228 NA
ATOM      5  N   UNL     1      35.157 -16.224 -23.652  0.00  0.00    -0.229 NA
ATOM      6  C   UNL     1      33.201 -13.192 -23.486  0.00  0.00    +0.150 C 
ATOM      7  C   UNL     1      34.096 -15.524 -23.141  0.00  0.00    +0.141 C 
ATOM      8  C   UNL     1      32.529 -12.967 -22.287  0.00  0.00    +0.079 C 
ATOM      9  C   UNL     1      33.593 -15.852 -21.886  0.00  0.00    +0.086 C 
ATOM     10  C   UNL     1      32.169 -11.648 -21.952  0.00  0.00    -0.004 C 
ATOM     11  C   UNL     1      32.385 -15.279 -21.266  0.00  0.00    +0.252 C 
ATOM     12  C   UNL     1      34.218 -16.880 -21.154  0.00  0.00    +0.009 C 
ATOM     13  C   UNL     1      32.496 -10.584 -22.775  0.00  0.00    +0.018 C 
ATOM     14  C   UNL     1      33.164 -10.881 -23.937  0.00  0.00    +0.100 C 
ATOM     15  C   UNL     1      35.733 -17.203 -22.922  0.00  0.00    +0.100 C 
ATOM     16  C   UNL     1      31.435 -11.313 -20.688  0.00  0.00    +0.032 C 
ATOM     17  C   UNL     1      35.308 -17.563 -21.668  0.00  0.00    +0.021 C 
ATOM     18  H   UNL     1      31.387 -13.634 -20.766  0.00  0.00    +0.155 HD
ENDROOT
BRANCH   2  19
ATOM     19  C   UNL     1      33.787 -14.621 -25.421  0.00  0.00    +0.080 C 
ATOM     20  C   UNL     1      32.722 -14.245 -26.381  0.00  0.00    +0.022 C 
ATOM     21  C   UNL     1      33.101 -15.685 -26.193  0.00  0.00    +0.022 C 
ENDBRANCH   2  19
TORSDOF 1
ENDMDL
MODEL 6
REMARK VINA RESULT:      -8.4      2.085      5.751
REMARK  Name = 4463
REMARK  1 active torsions:
REMARK  status: ('A' for Active; 'I' for Inactive)
REMARK    1  A    between atoms: N_2  and  C_19
REMARK                            x       y       z     vdW  Elec       q    Type
REMARK                         _______ _______ _______ _____ _____    ______ ____
ROOT
ATOM      1  O   UNL     1      35.737  -9.864 -24.407  0.00  0.00    -0.270 OA
ATOM      2  N   UNL     1      32.310  -9.135 -22.157  0.00  0.00    -0.258 N 
ATOM      3  N   UNL     1      34.193  -8.215 -24.295  0.00  0.00    -0.278 N 
ATOM      4  N   UNL     1      31.143  -7.087 -22.509  0.00  0.00    -0.228 NA
ATOM      5  N   UNL     1      31.905 -11.475 -22.318  0.00  0.00    -0.229 NA
ATOM      6  C   UNL     1      32.168  -7.916 -22.876  0.00  0.00    +0.150 C 
ATOM      7  C   UNL     1      32.632 -10.391 -22.733  0.00  0.00    +0.141 C 
ATOM      8  C   UNL     1      33.046  -7.522 -23.884  0.00  0.00    +0.079 C 
ATOM      9  C   UNL     1      33.646 -10.557 -23.671  0.00  0.00    +0.086 C 
ATOM     10  C   UNL     1      32.858  -6.266 -24.490  0.00  0.00    -0.004 C 
ATOM     11  C   UNL     1      34.590  -9.515 -24.112  0.00  0.00    +0.252 C 
ATOM     12  C   UNL     1      33.874 -11.843 -24.200  0.00  0.00    +0.009 C 
ATOM     13  C   UNL     1      31.807  -5.443 -24.123  0.00  0.00    +0.018 C 
ATOM     14  C   UNL     1      30.979  -5.899 -23.128  0.00  0.00    +0.100 C 
ATOM     15  C   UNL     1      32.149 -12.693 -22.847  0.00  0.00    +0.100 C 
ATOM     16  C   UNL     1      33.759  -5.755 -25.574  0.00  0.00    +0.032 C 
ATOM     17  C   UNL     1      33.114 -12.928 -23.795  0.00  0.00    +0.021 C 
ATOM     18  H   UNL     1      34.830  -7.669 -24.809  0.00  0.00    +0.155 HD
ENDROOT
BRANCH   2  19
ATOM     19  C   UNL     1      31.644  -9.184 -20.815  0.00  0.00    +0.080 C 
ATOM     20  C   UNL     1      32.140  -8.335 -19.706  0.00  0.00    +0.022 C 
ATOM     21  C   UNL     1      32.329  -9.823 -19.666  0.00  0.00    +0.022 C 
ENDBRANCH   2  19
TORSDOF 1
ENDMDL
MODEL 7
REMARK VINA RESULT:      -8.4      3.911      6.196
REMARK  Name = 4463
REMARK  1 active torsions:
REMARK  status: ('A' for Active; 'I' for Inactive)
REMARK    1  A    between atoms: N_2  and  C_19
REMARK                            x       y       z     vdW  Elec       q    Type
REMARK                         _______ _______ _______ _____ _____    ______ ____
ROOT
ATOM      1  O   UNL     1      34.514 -14.682 -20.531  0.00  0.00    -0.270 OA
ATOM      2  N   UNL     1      33.319 -12.453 -23.838  0.00  0.00    -0.258 N 
ATOM      3  N   UNL     1      34.116 -15.111 -22.715  0.00  0.00    -0.278 N 
ATOM      4  N   UNL     1      33.157 -13.556 -25.944  0.00  0.00    -0.228 NA
ATOM      5  N   UNL     1      31.913 -11.269 -22.326  0.00  0.00    -0.229 NA
ATOM      6  C   UNL     1      33.395 -13.652 -24.600  0.00  0.00    +0.150 C 
ATOM      7  C   UNL     1      32.737 -12.339 -22.549  0.00  0.00    +0.141 C 
ATOM      8  C   UNL     1      33.747 -14.882 -24.048  0.00  0.00    +0.079 C 
ATOM      9  C   UNL     1      32.980 -13.249 -21.525  0.00  0.00    +0.086 C 
ATOM     10  C   UNL     1      33.859 -15.997 -24.899  0.00  0.00    -0.004 C 
ATOM     11  C   UNL     1      33.938 -14.368 -21.576  0.00  0.00    +0.252 C 
ATOM     12  C   UNL     1      32.336 -13.061 -20.286  0.00  0.00    +0.009 C 
ATOM     13  C   UNL     1      33.598 -15.893 -26.255  0.00  0.00    +0.018 C 
ATOM     14  C   UNL     1      33.251 -14.652 -26.727  0.00  0.00    +0.100 C 
ATOM     15  C   UNL     1      31.310 -11.120 -21.127  0.00  0.00    +0.100 C 
ATOM     16  C   UNL     1      34.242 -17.356 -24.395  0.00  0.00    +0.032 C 
ATOM     17  C   UNL     1      31.483 -11.990 -20.080  0.00  0.00    +0.021 C 
ATOM     18  H   UNL     1      34.589 -15.962 -22.570  0.00  0.00    +0.155 HD
ENDROOT
BRANCH   2  19
ATOM     19  C   UNL     1      33.440 -11.176 -24.613  0.00  0.00    +0.080 C 
ATOM     20  C   UNL     1      34.716 -10.831 -25.285  0.00  0.00    +0.022 C 
ATOM     21  C   UNL     1      34.257 -10.058 -24.084  0.00  0.00    +0.022 C 
ENDBRANCH   2  19
TORSDOF 1
ENDMDL
MODEL 8
REMARK VINA RESULT:      -7.8      5.510      7.733
REMARK  Name = 4463
REMARK  1 active torsions:
REMARK  status: ('A' for Active; 'I' for Inactive)
REMARK    1  A    between atoms: N_2  and  C_19
REMARK                            x       y       z     vdW  Elec       q    Type
REMARK                         _______ _______ _______ _____ _____    ______ ____
ROOT
ATOM      1  O   UNL     1      35.028 -15.270 -19.888  0.00  0.00    -0.270 OA
ATOM      2  N   UNL     1      34.029 -15.020 -23.923  0.00  0.00    -0.258 N 
ATOM      3  N   UNL     1      34.818 -16.734 -21.599  0.00  0.00    -0.278 N 
ATOM      4  N   UNL     1      34.070 -17.018 -25.222  0.00  0.00    -0.228 NA
ATOM      5  N   UNL     1      32.472 -13.345 -23.265  0.00  0.00    -0.229 NA
ATOM      6  C   UNL     1      34.204 -16.430 -23.993  0.00  0.00    +0.150 C 
ATOM      7  C   UNL     1      33.344 -14.331 -22.889  0.00  0.00    +0.141 C 
ATOM      8  C   UNL     1      34.548 -17.208 -22.890  0.00  0.00    +0.079 C 
ATOM      9  C   UNL     1      33.533 -14.608 -21.539  0.00  0.00    +0.086 C 
ATOM     10  C   UNL     1      34.762 -18.587 -23.077  0.00  0.00    -0.004 C 
ATOM     11  C   UNL     1      34.527 -15.544 -20.983  0.00  0.00    +0.252 C 
ATOM     12  C   UNL     1      32.788 -13.883 -20.589  0.00  0.00    +0.009 C 
ATOM     13  C   UNL     1      34.607 -19.174 -24.321  0.00  0.00    +0.018 C 
ATOM     14  C   UNL     1      34.260 -18.347 -25.360  0.00  0.00    +0.100 C 
ATOM     15  C   UNL     1      31.772 -12.670 -22.328  0.00  0.00    +0.100 C 
ATOM     16  C   UNL     1      35.147 -19.499 -21.951  0.00  0.00    +0.032 C 
ATOM     17  C   UNL     1      31.887 -12.907 -20.981  0.00  0.00    +0.021 C 
ATOM     18  H   UNL     1      35.304 -17.373 -21.029  0.00  0.00    +0.155 HD
ENDROOT
BRANCH   2  19
ATOM     19  C   UNL     1      34.172 -14.278 -25.217  0.00  0.00    +0.080 C 
ATOM     20  C   UNL     1      33.458 -12.995 -25.423  0.00  0.00    +0.022 C 
ATOM     21  C   UNL     1      33.042 -14.225 -26.175  0.00  0.00    +0.022 C 
ENDBRANCH   2  19
TORSDOF 1
ENDMDL
MODEL 9
REMARK VINA RESULT:      -7.7     13.630     16.553
REMARK  Name = 4463
REMARK  1 active torsions:
REMARK  status: ('A' for Active; 'I' for Inactive)
REMARK    1  A    between atoms: N_2  and  C_19
REMARK                            x       y       z     vdW  Elec       q    Type
REMARK                         _______ _______ _______ _____ _____    ______ ____
ROOT
ATOM      1  O   UNL     1      38.264 -21.606 -15.665  0.00  0.00    -0.270 OA
ATOM      2  N   UNL     1      34.543 -23.372 -16.273  0.00  0.00    -0.258 N 
ATOM      3  N   UNL     1      36.741 -21.639 -17.336  0.00  0.00    -0.278 N 
ATOM      4  N   UNL     1      33.398 -22.919 -18.314  0.00  0.00    -0.228 NA
ATOM      5  N   UNL     1      35.420 -25.242 -15.091  0.00  0.00    -0.229 NA
ATOM      6  C   UNL     1      34.527 -22.758 -17.556  0.00  0.00    +0.150 C 
ATOM      7  C   UNL     1      35.656 -24.039 -15.700  0.00  0.00    +0.141 C 
ATOM      8  C   UNL     1      35.574 -21.975 -18.037  0.00  0.00    +0.079 C 
ATOM      9  C   UNL     1      36.946 -23.518 -15.723  0.00  0.00    +0.086 C 
ATOM     10  C   UNL     1      35.433 -21.357 -19.293  0.00  0.00    -0.004 C 
ATOM     11  C   UNL     1      37.328 -22.185 -16.223  0.00  0.00    +0.252 C 
ATOM     12  C   UNL     1      37.989 -24.268 -15.145  0.00  0.00    +0.009 C 
ATOM     13  C   UNL     1      34.295 -21.541 -20.059  0.00  0.00    +0.018 C 
ATOM     14  C   UNL     1      33.308 -22.330 -19.525  0.00  0.00    +0.100 C 
ATOM     15  C   UNL     1      36.443 -25.936 -14.548  0.00  0.00    +0.100 C 
ATOM     16  C   UNL     1      36.503 -20.488 -19.884  0.00  0.00    +0.032 C 
ATOM     17  C   UNL     1      37.743 -25.497 -14.556  0.00  0.00    +0.021 C 
ATOM     18  H   UNL     1      37.228 -20.871 -17.712  0.00  0.00    +0.155 HD
ENDROOT
BRANCH   2  19
ATOM     19  C   UNL     1      33.204 -23.728 -15.702  0.00  0.00    +0.080 C 
ATOM     20  C   UNL     1      32.333 -22.673 -15.130  0.00  0.00    +0.022 C 
ATOM     21  C   UNL     1      32.985 -23.688 -14.236  0.00  0.00    +0.022 C 
ENDBRANCH   2  19
TORSDOF 1
ENDMDL
