MODEL 1
REMARK VINA RESULT:      -9.0      0.000      0.000
REMARK  Name = 5289314
REMARK  7 active torsions:
REMARK  status: ('A' for Active; 'I' for Inactive)
REMARK    1  A    between atoms: C_4  and  N_23
REMARK    2  A    between atoms: C_24  and  C_26
REMARK    3  A    between atoms: C_26  and  C_27
REMARK    4  A    between atoms: C_26  and  C_31
REMARK    5  A    between atoms: C_27  and  C_28
REMARK    6  A    between atoms: C_31  and  C_33
REMARK    7  A    between atoms: C_33  and  O_34
REMARK                            x       y       z     vdW  Elec       q    Type
REMARK                         _______ _______ _______ _____ _____    ______ ____
ROOT
ATOM      1  O   UNL     1      32.617  -9.161 -21.383  0.00  0.00    -0.273 OA
ATOM      2  N   UNL     1      34.301 -13.764 -23.294  0.00  0.00    -0.286 N 
ATOM      3  N   UNL     1      31.231 -10.788 -22.285  0.00  0.00    -0.303 N 
ATOM      4  C   UNL     1      32.678  -9.537 -23.774  0.00  0.00    +0.153 C 
ATOM      5  C   UNL     1      34.060 -10.157 -24.008  0.00  0.00    +0.057 C 
ATOM      6  C   UNL     1      34.057 -11.654 -23.988  0.00  0.00    -0.004 C 
ATOM      7  C   UNL     1      34.612 -14.884 -22.422  0.00  0.00    +0.096 C 
ATOM      8  C   UNL     1      33.567 -12.535 -25.006  0.00  0.00    +0.011 C 
ATOM      9  C   UNL     1      33.735 -13.848 -24.548  0.00  0.00    +0.051 C 
ATOM     10  C   UNL     1      33.417 -15.428 -21.624  0.00  0.00    +0.022 C 
ATOM     11  C   UNL     1      34.537 -12.453 -22.970  0.00  0.00    +0.061 C 
ATOM     12  C   UNL     1      32.860 -14.442 -20.588  0.00  0.00    +0.002 C 
ATOM     13  C   UNL     1      31.742 -13.559 -21.152  0.00  0.00    +0.002 C 
ATOM     14  C   UNL     1      31.572 -12.272 -20.338  0.00  0.00    +0.021 C 
ATOM     15  C   UNL     1      32.182  -9.780 -22.351  0.00  0.00    +0.241 C 
ATOM     16  C   UNL     1      30.659 -11.262 -21.035  0.00  0.00    +0.089 C 
ATOM     17  C   UNL     1      32.985 -12.331 -26.275  0.00  0.00    +0.001 C 
ATOM     18  C   UNL     1      33.343 -14.958 -25.312  0.00  0.00    +0.015 C 
ATOM     19  C   UNL     1      32.595 -13.431 -27.043  0.00  0.00    +0.000 C 
ATOM     20  C   UNL     1      32.772 -14.727 -26.566  0.00  0.00    +0.001 C 
ATOM     21  H   UNL     1      30.928 -11.202 -23.126  0.00  0.00    +0.149 HD
ENDROOT
BRANCH   4  23
ATOM     22  O   UNL     1      30.473  -7.756 -24.342  0.00  0.00    -0.275 OA
ATOM     23  N   UNL     1      32.733  -8.105 -23.937  0.00  0.00    -0.298 N 
ATOM     24  C   UNL     1      31.617  -7.325 -24.210  0.00  0.00    +0.223 C 
ATOM     25  H   UNL     1      33.605  -7.658 -23.852  0.00  0.00    +0.150 HD
BRANCH  24  26
ATOM     26  C   UNL     1      31.965  -5.843 -24.372  0.00  0.00    +0.088 C 
BRANCH  26  27
ATOM     27  C   UNL     1      33.185  -5.639 -25.294  0.00  0.00    +0.010 C 
BRANCH  27  28
ATOM     28  C   UNL     1      32.900  -4.822 -26.573  0.00  0.00    +0.000 C 
ATOM     29  C   UNL     1      34.223  -4.422 -27.233  0.00  0.00    +0.000 C 
ATOM     30  C   UNL     1      32.068  -3.570 -26.292  0.00  0.00    +0.000 C 
ENDBRANCH  27  28
ENDBRANCH  26  27
BRANCH  26  31
ATOM     31  C   UNL     1      32.233  -5.253 -22.973  0.00  0.00    +0.118 C 
BRANCH  31  33
ATOM     32  O   UNL     1      29.973  -5.154 -22.062  0.00  0.00    -0.250 OA
ATOM     33  C   UNL     1      31.127  -5.552 -21.983  0.00  0.00    +0.314 C 
BRANCH  33  34
ATOM     34  O   UNL     1      31.569  -6.343 -20.971  0.00  0.00    -0.480 OA
ATOM     35  H   UNL     1      31.601  -7.273 -21.082  0.00  0.00    +0.295 HD
ENDBRANCH  33  34
ENDBRANCH  31  33
ENDBRANCH  26  31
ENDBRANCH  24  26
ENDBRANCH   4  23
TORSDOF 7
ENDMDL
MODEL 2
REMARK VINA RESULT:      -8.2      1.621      2.350
REMARK  Name = 5289314
REMARK  7 active torsions:
REMARK  status: ('A' for Active; 'I' for Inactive)
REMARK    1  A    between atoms: C_4  and  N_23
REMARK    2  A    between atoms: C_24  and  C_26
REMARK    3  A    between atoms: C_26  and  C_27
REMARK    4  A    between atoms: C_26  and  C_31
REMARK    5  A    between atoms: C_27  and  C_28
REMARK    6  A    between atoms: C_31  and  C_33
REMARK    7  A    between atoms: C_33  and  O_34
REMARK                            x       y       z     vdW  Elec       q    Type
REMARK                         _______ _______ _______ _____ _____    ______ ____
ROOT
ATOM      1  O   UNL     1      32.768  -8.938 -21.455  0.00  0.00    -0.273 OA
ATOM      2  N   UNL     1      34.244 -13.627 -23.329  0.00  0.00    -0.286 N 
ATOM      3  N   UNL     1      31.314 -10.495 -22.377  0.00  0.00    -0.303 N 
ATOM      4  C   UNL     1      32.848  -9.324 -23.844  0.00  0.00    +0.153 C 
ATOM      5  C   UNL     1      34.200 -10.015 -24.054  0.00  0.00    +0.057 C 
ATOM      6  C   UNL     1      34.119 -11.510 -24.032  0.00  0.00    -0.004 C 
ATOM      7  C   UNL     1      34.481 -14.759 -22.450  0.00  0.00    +0.096 C 
ATOM      8  C   UNL     1      33.601 -12.367 -25.055  0.00  0.00    +0.011 C 
ATOM      9  C   UNL     1      33.694 -13.685 -24.592  0.00  0.00    +0.051 C 
ATOM     10  C   UNL     1      33.248 -15.239 -21.670  0.00  0.00    +0.022 C 
ATOM     11  C   UNL     1      34.541 -12.329 -23.004  0.00  0.00    +0.061 C 
ATOM     12  C   UNL     1      32.725 -14.223 -20.646  0.00  0.00    +0.002 C 
ATOM     13  C   UNL     1      31.663 -13.285 -21.230  0.00  0.00    +0.002 C 
ATOM     14  C   UNL     1      31.547 -11.989 -20.422  0.00  0.00    +0.021 C 
ATOM     15  C   UNL     1      32.317  -9.537 -22.429  0.00  0.00    +0.241 C 
ATOM     16  C   UNL     1      30.699 -10.935 -21.135  0.00  0.00    +0.089 C 
ATOM     17  C   UNL     1      33.052 -12.137 -26.334  0.00  0.00    +0.001 C 
ATOM     18  C   UNL     1      33.257 -14.776 -25.360  0.00  0.00    +0.015 C 
ATOM     19  C   UNL     1      32.618 -13.218 -27.106  0.00  0.00    +0.000 C 
ATOM     20  C   UNL     1      32.720 -14.519 -26.624  0.00  0.00    +0.001 C 
ATOM     21  H   UNL     1      31.004 -10.895 -23.221  0.00  0.00    +0.149 HD
ENDROOT
BRANCH   4  23
ATOM     22  O   UNL     1      30.743  -7.429 -24.425  0.00  0.00    -0.275 OA
ATOM     23  N   UNL     1      32.980  -7.897 -24.009  0.00  0.00    -0.298 N 
ATOM     24  C   UNL     1      31.907  -7.059 -24.289  0.00  0.00    +0.223 C 
ATOM     25  H   UNL     1      33.874  -7.496 -23.920  0.00  0.00    +0.150 HD
BRANCH  24  26
ATOM     26  C   UNL     1      32.334  -5.598 -24.451  0.00  0.00    +0.088 C 
BRANCH  26  27
ATOM     27  C   UNL     1      31.230  -4.625 -23.989  0.00  0.00    +0.010 C 
BRANCH  27  28
ATOM     28  C   UNL     1      31.462  -3.150 -24.381  0.00  0.00    +0.000 C 
ATOM     29  C   UNL     1      31.617  -2.299 -23.117  0.00  0.00    +0.000 C 
ATOM     30  C   UNL     1      30.328  -2.589 -25.241  0.00  0.00    +0.000 C 
ENDBRANCH  27  28
ENDBRANCH  26  27
BRANCH  26  31
ATOM     31  C   UNL     1      32.689  -5.358 -25.932  0.00  0.00    +0.118 C 
BRANCH  31  33
ATOM     32  O   UNL     1      34.954  -6.227 -25.681  0.00  0.00    -0.250 OA
ATOM     33  C   UNL     1      34.176  -5.442 -26.206  0.00  0.00    +0.314 C 
BRANCH  33  34
ATOM     34  O   UNL     1      34.561  -4.527 -27.133  0.00  0.00    -0.480 OA
ATOM     35  H   UNL     1      35.454  -4.244 -27.171  0.00  0.00    +0.295 HD
ENDBRANCH  33  34
ENDBRANCH  31  33
ENDBRANCH  26  31
ENDBRANCH  24  26
ENDBRANCH   4  23
TORSDOF 7
ENDMDL
MODEL 3
REMARK VINA RESULT:      -7.1      1.348      2.589
REMARK  Name = 5289314
REMARK  7 active torsions:
REMARK  status: ('A' for Active; 'I' for Inactive)
REMARK    1  A    between atoms: C_4  and  N_23
REMARK    2  A    between atoms: C_24  and  C_26
REMARK    3  A    between atoms: C_26  and  C_27
REMARK    4  A    between atoms: C_26  and  C_31
REMARK    5  A    between atoms: C_27  and  C_28
REMARK    6  A    between atoms: C_31  and  C_33
REMARK    7  A    between atoms: C_33  and  O_34
REMARK                            x       y       z     vdW  Elec       q    Type
REMARK                         _______ _______ _______ _____ _____    ______ ____
ROOT
ATOM      1  O   UNL     1      32.437  -9.563 -21.388  0.00  0.00    -0.273 OA
ATOM      2  N   UNL     1      34.395 -14.026 -23.369  0.00  0.00    -0.286 N 
ATOM      3  N   UNL     1      31.145 -11.303 -22.218  0.00  0.00    -0.303 N 
ATOM      4  C   UNL     1      32.412  -9.947 -23.778  0.00  0.00    +0.153 C 
ATOM      5  C   UNL     1      33.827 -10.455 -24.078  0.00  0.00    +0.057 C 
ATOM      6  C   UNL     1      33.947 -11.948 -24.055  0.00  0.00    -0.004 C 
ATOM      7  C   UNL     1      34.837 -15.112 -22.511  0.00  0.00    +0.096 C 
ATOM      8  C   UNL     1      33.481 -12.871 -25.045  0.00  0.00    +0.011 C 
ATOM      9  C   UNL     1      33.777 -14.163 -24.593  0.00  0.00    +0.051 C 
ATOM     10  C   UNL     1      33.731 -15.747 -21.653  0.00  0.00    +0.022 C 
ATOM     11  C   UNL     1      34.539 -12.698 -23.059  0.00  0.00    +0.061 C 
ATOM     12  C   UNL     1      33.146 -14.802 -20.595  0.00  0.00    +0.002 C 
ATOM     13  C   UNL     1      31.934 -14.016 -21.105  0.00  0.00    +0.002 C 
ATOM     14  C   UNL     1      31.700 -12.742 -20.287  0.00  0.00    +0.021 C 
ATOM     15  C   UNL     1      32.007 -10.221 -22.332  0.00  0.00    +0.241 C 
ATOM     16  C   UNL     1      30.676 -11.814 -20.940  0.00  0.00    +0.089 C 
ATOM     17  C   UNL     1      32.824 -12.723 -26.285  0.00  0.00    +0.001 C 
ATOM     18  C   UNL     1      33.439 -15.307 -25.335  0.00  0.00    +0.015 C 
ATOM     19  C   UNL     1      32.487 -13.856 -27.031  0.00  0.00    +0.000 C 
ATOM     20  C   UNL     1      32.791 -15.130 -26.560  0.00  0.00    +0.001 C 
ATOM     21  H   UNL     1      30.837 -11.745 -23.041  0.00  0.00    +0.149 HD
ENDROOT
BRANCH   4  23
ATOM     22  O   UNL     1      34.489  -8.017 -23.214  0.00  0.00    -0.275 OA
ATOM     23  N   UNL     1      32.343  -8.517 -23.947  0.00  0.00    -0.298 N 
ATOM     24  C   UNL     1      33.396  -7.661 -23.649  0.00  0.00    +0.223 C 
ATOM     25  H   UNL     1      31.508  -8.126 -24.292  0.00  0.00    +0.150 HD
BRANCH  24  26
ATOM     26  C   UNL     1      33.040  -6.191 -23.887  0.00  0.00    +0.088 C 
BRANCH  26  27
ATOM     27  C   UNL     1      32.647  -5.479 -22.576  0.00  0.00    +0.010 C 
BRANCH  27  28
ATOM     28  C   UNL     1      31.547  -6.190 -21.758  0.00  0.00    +0.000 C 
ATOM     29  C   UNL     1      30.321  -5.280 -21.644  0.00  0.00    +0.000 C 
ATOM     30  C   UNL     1      32.024  -6.585 -20.359  0.00  0.00    +0.000 C 
ENDBRANCH  27  28
ENDBRANCH  26  27
BRANCH  26  31
ATOM     31  C   UNL     1      31.887  -6.131 -24.908  0.00  0.00    +0.118 C 
BRANCH  31  33
ATOM     32  O   UNL     1      32.340  -4.069 -26.129  0.00  0.00    -0.250 OA
ATOM     33  C   UNL     1      31.607  -4.728 -25.404  0.00  0.00    +0.314 C 
BRANCH  33  34
ATOM     34  O   UNL     1      30.412  -4.271 -24.948  0.00  0.00    -0.480 OA
ATOM     35  H   UNL     1      30.340  -3.397 -24.617  0.00  0.00    +0.295 HD
ENDBRANCH  33  34
ENDBRANCH  31  33
ENDBRANCH  26  31
ENDBRANCH  24  26
ENDBRANCH   4  23
TORSDOF 7
ENDMDL
MODEL 4
REMARK VINA RESULT:      -6.9     14.683     17.442
REMARK  Name = 5289314
REMARK  7 active torsions:
REMARK  status: ('A' for Active; 'I' for Inactive)
REMARK    1  A    between atoms: C_4  and  N_23
REMARK    2  A    between atoms: C_24  and  C_26
REMARK    3  A    between atoms: C_26  and  C_27
REMARK    4  A    between atoms: C_26  and  C_31
REMARK    5  A    between atoms: C_27  and  C_28
REMARK    6  A    between atoms: C_31  and  C_33
REMARK    7  A    between atoms: C_33  and  O_34
REMARK                            x       y       z     vdW  Elec       q    Type
REMARK                         _______ _______ _______ _____ _____    ______ ____
ROOT
ATOM      1  O   UNL     1      34.337 -23.438 -17.837  0.00  0.00    -0.273 OA
ATOM      2  N   UNL     1      37.388 -25.487 -14.074  0.00  0.00    -0.286 N 
ATOM      3  N   UNL     1      35.381 -22.195 -16.179  0.00  0.00    -0.303 N 
ATOM      4  C   UNL     1      33.515 -23.616 -15.567  0.00  0.00    +0.153 C 
ATOM      5  C   UNL     1      33.894 -25.043 -15.155  0.00  0.00    +0.057 C 
ATOM      6  C   UNL     1      35.216 -25.135 -14.457  0.00  0.00    -0.004 C 
ATOM      7  C   UNL     1      38.777 -25.834 -14.323  0.00  0.00    +0.096 C 
ATOM      8  C   UNL     1      35.516 -24.742 -13.113  0.00  0.00    +0.011 C 
ATOM      9  C   UNL     1      36.881 -24.977 -12.898  0.00  0.00    +0.051 C 
ATOM     10  C   UNL     1      39.683 -24.646 -14.684  0.00  0.00    +0.022 C 
ATOM     11  C   UNL     1      36.387 -25.625 -14.999  0.00  0.00    +0.061 C 
ATOM     12  C   UNL     1      39.337 -23.987 -16.026  0.00  0.00    +0.002 C 
ATOM     13  C   UNL     1      38.334 -22.838 -15.882  0.00  0.00    +0.002 C 
ATOM     14  C   UNL     1      37.604 -22.554 -17.198  0.00  0.00    +0.021 C 
ATOM     15  C   UNL     1      34.430 -23.081 -16.665  0.00  0.00    +0.241 C 
ATOM     16  C   UNL     1      36.419 -21.606 -17.011  0.00  0.00    +0.089 C 
ATOM     17  C   UNL     1      34.749 -24.199 -12.061  0.00  0.00    +0.001 C 
ATOM     18  C   UNL     1      37.501 -24.686 -11.673  0.00  0.00    +0.015 C 
ATOM     19  C   UNL     1      35.360 -23.910 -10.837  0.00  0.00    +0.000 C 
ATOM     20  C   UNL     1      36.717 -24.151 -10.647  0.00  0.00    +0.001 C 
ATOM     21  H   UNL     1      35.351 -21.952 -15.225  0.00  0.00    +0.149 HD
ENDROOT
BRANCH   4  23
ATOM     22  O   UNL     1      31.172 -22.406 -14.384  0.00  0.00    -0.275 OA
ATOM     23  N   UNL     1      32.179 -23.586 -16.111  0.00  0.00    -0.298 N 
ATOM     24  C   UNL     1      31.108 -22.978 -15.470  0.00  0.00    +0.223 C 
ATOM     25  H   UNL     1      32.019 -24.017 -16.981  0.00  0.00    +0.150 HD
BRANCH  24  26
ATOM     26  C   UNL     1      29.799 -23.126 -16.250  0.00  0.00    +0.088 C 
BRANCH  26  27
ATOM     27  C   UNL     1      28.666 -22.281 -15.633  0.00  0.00    +0.010 C 
BRANCH  27  28
ATOM     28  C   UNL     1      27.261 -22.567 -16.204  0.00  0.00    +0.000 C 
ATOM     29  C   UNL     1      27.173 -22.046 -17.641  0.00  0.00    +0.000 C 
ATOM     30  C   UNL     1      26.149 -21.938 -15.362  0.00  0.00    +0.000 C 
ENDBRANCH  27  28
ENDBRANCH  26  27
BRANCH  26  31
ATOM     31  C   UNL     1      29.417 -24.619 -16.275  0.00  0.00    +0.118 C 
BRANCH  31  33
ATOM     32  O   UNL     1      30.629 -25.744 -14.482  0.00  0.00    -0.250 OA
ATOM     33  C   UNL     1      29.582 -25.295 -14.930  0.00  0.00    +0.314 C 
BRANCH  33  34
ATOM     34  O   UNL     1      28.407 -25.341 -14.251  0.00  0.00    -0.480 OA
ATOM     35  H   UNL     1      28.343 -25.834 -13.456  0.00  0.00    +0.295 HD
ENDBRANCH  33  34
ENDBRANCH  31  33
ENDBRANCH  26  31
ENDBRANCH  24  26
ENDBRANCH   4  23
TORSDOF 7
ENDMDL
MODEL 5
REMARK VINA RESULT:      -6.1      1.867      3.081
REMARK  Name = 5289314
REMARK  7 active torsions:
REMARK  status: ('A' for Active; 'I' for Inactive)
REMARK    1  A    between atoms: C_4  and  N_23
REMARK    2  A    between atoms: C_24  and  C_26
REMARK    3  A    between atoms: C_26  and  C_27
REMARK    4  A    between atoms: C_26  and  C_31
REMARK    5  A    between atoms: C_27  and  C_28
REMARK    6  A    between atoms: C_31  and  C_33
REMARK    7  A    between atoms: C_33  and  O_34
REMARK                            x       y       z     vdW  Elec       q    Type
REMARK                         _______ _______ _______ _____ _____    ______ ____
ROOT
ATOM      1  O   UNL     1      32.796 -12.486 -20.133  0.00  0.00    -0.273 OA
ATOM      2  N   UNL     1      34.958 -15.692 -23.700  0.00  0.00    -0.286 N 
ATOM      3  N   UNL     1      31.663 -14.206 -21.203  0.00  0.00    -0.303 N 
ATOM      4  C   UNL     1      32.259 -12.234 -22.480  0.00  0.00    +0.153 C 
ATOM      5  C   UNL     1      33.625 -12.297 -23.173  0.00  0.00    +0.057 C 
ATOM      6  C   UNL     1      34.004 -13.673 -23.627  0.00  0.00    -0.004 C 
ATOM      7  C   UNL     1      35.777 -16.827 -23.308  0.00  0.00    +0.096 C 
ATOM      8  C   UNL     1      33.479 -14.392 -24.749  0.00  0.00    +0.011 C 
ATOM      9  C   UNL     1      34.096 -15.649 -24.774  0.00  0.00    +0.051 C 
ATOM     10  C   UNL     1      35.039 -17.904 -22.499  0.00  0.00    +0.022 C 
ATOM     11  C   UNL     1      34.941 -14.494 -23.033  0.00  0.00    +0.061 C 
ATOM     12  C   UNL     1      34.574 -17.432 -21.115  0.00  0.00    +0.002 C 
ATOM     13  C   UNL     1      33.157 -16.849 -21.131  0.00  0.00    +0.002 C 
ATOM     14  C   UNL     1      32.911 -15.923 -19.936  0.00  0.00    +0.021 C 
ATOM     15  C   UNL     1      32.271 -12.960 -21.138  0.00  0.00    +0.241 C 
ATOM     16  C   UNL     1      31.613 -15.126 -20.078  0.00  0.00    +0.089 C 
ATOM     17  C   UNL     1      32.526 -14.087 -25.744  0.00  0.00    +0.001 C 
ATOM     18  C   UNL     1      33.792 -16.608 -25.753  0.00  0.00    +0.015 C 
ATOM     19  C   UNL     1      32.220 -15.035 -26.724  0.00  0.00    +0.000 C 
ATOM     20  C   UNL     1      32.846 -16.278 -26.727  0.00  0.00    +0.001 C 
ATOM     21  H   UNL     1      31.246 -14.480 -22.051  0.00  0.00    +0.149 HD
ENDROOT
BRANCH   4  23
ATOM     22  O   UNL     1      32.738  -9.914 -24.137  0.00  0.00    -0.275 OA
ATOM     23  N   UNL     1      31.904 -10.866 -22.190  0.00  0.00    -0.298 N 
ATOM     24  C   UNL     1      32.175  -9.809 -23.050  0.00  0.00    +0.223 C 
ATOM     25  H   UNL     1      31.446 -10.671 -21.341  0.00  0.00    +0.150 HD
BRANCH  24  26
ATOM     26  C   UNL     1      31.724  -8.462 -22.479  0.00  0.00    +0.088 C 
BRANCH  26  27
ATOM     27  C   UNL     1      31.312  -7.477 -23.593  0.00  0.00    +0.010 C 
BRANCH  27  28
ATOM     28  C   UNL     1      32.068  -6.131 -23.579  0.00  0.00    +0.000 C 
ATOM     29  C   UNL     1      31.094  -4.998 -23.245  0.00  0.00    +0.000 C 
ATOM     30  C   UNL     1      32.762  -5.836 -24.910  0.00  0.00    +0.000 C 
ENDBRANCH  27  28
ENDBRANCH  26  27
BRANCH  26  31
ATOM     31  C   UNL     1      32.877  -7.882 -21.636  0.00  0.00    +0.118 C 
BRANCH  31  33
ATOM     32  O   UNL     1      32.252  -9.117 -19.628  0.00  0.00    -0.250 OA
ATOM     33  C   UNL     1      32.692  -8.102 -20.149  0.00  0.00    +0.314 C 
BRANCH  33  34
ATOM     34  O   UNL     1      33.090  -7.017 -19.435  0.00  0.00    -0.480 OA
ATOM     35  H   UNL     1      33.550  -7.131 -18.627  0.00  0.00    +0.295 HD
ENDBRANCH  33  34
ENDBRANCH  31  33
ENDBRANCH  26  31
ENDBRANCH  24  26
ENDBRANCH   4  23
TORSDOF 7
ENDMDL
MODEL 6
REMARK VINA RESULT:      -6.0     11.152     15.485
REMARK  Name = 5289314
REMARK  7 active torsions:
REMARK  status: ('A' for Active; 'I' for Inactive)
REMARK    1  A    between atoms: C_4  and  N_23
REMARK    2  A    between atoms: C_24  and  C_26
REMARK    3  A    between atoms: C_26  and  C_27
REMARK    4  A    between atoms: C_26  and  C_31
REMARK    5  A    between atoms: C_27  and  C_28
REMARK    6  A    between atoms: C_31  and  C_33
REMARK    7  A    between atoms: C_33  and  O_34
REMARK                            x       y       z     vdW  Elec       q    Type
REMARK                         _______ _______ _______ _____ _____    ______ ____
ROOT
ATOM      1  O   UNL     1      33.653 -22.286 -16.266  0.00  0.00    -0.273 OA
ATOM      2  N   UNL     1      37.500 -23.219 -12.802  0.00  0.00    -0.286 N 
ATOM      3  N   UNL     1      34.396 -24.404 -15.676  0.00  0.00    -0.303 N 
ATOM      4  C   UNL     1      35.834 -23.002 -17.034  0.00  0.00    +0.153 C 
ATOM      5  C   UNL     1      36.805 -22.113 -16.247  0.00  0.00    +0.057 C 
ATOM      6  C   UNL     1      37.286 -22.733 -14.972  0.00  0.00    -0.004 C 
ATOM      7  C   UNL     1      37.260 -23.191 -11.369  0.00  0.00    +0.096 C 
ATOM      8  C   UNL     1      38.244 -23.788 -14.827  0.00  0.00    +0.011 C 
ATOM      9  C   UNL     1      38.362 -24.069 -13.460  0.00  0.00    +0.051 C 
ATOM     10  C   UNL     1      36.275 -24.255 -10.860  0.00  0.00    +0.022 C 
ATOM     11  C   UNL     1      36.884 -22.385 -13.698  0.00  0.00    +0.061 C 
ATOM     12  C   UNL     1      34.839 -24.066 -11.366  0.00  0.00    +0.002 C 
ATOM     13  C   UNL     1      34.566 -24.819 -12.673  0.00  0.00    +0.002 C 
ATOM     14  C   UNL     1      33.377 -24.223 -13.432  0.00  0.00    +0.021 C 
ATOM     15  C   UNL     1      34.504 -23.171 -16.305  0.00  0.00    +0.241 C 
ATOM     16  C   UNL     1      33.258 -24.779 -14.852  0.00  0.00    +0.089 C 
ATOM     17  C   UNL     1      39.018 -24.536 -15.741  0.00  0.00    +0.001 C 
ATOM     18  C   UNL     1      39.221 -25.070 -12.978  0.00  0.00    +0.015 C 
ATOM     19  C   UNL     1      39.878 -25.531 -15.268  0.00  0.00    +0.000 C 
ATOM     20  C   UNL     1      39.977 -25.793 -13.905  0.00  0.00    +0.001 C 
ATOM     21  H   UNL     1      35.125 -25.055 -15.795  0.00  0.00    +0.149 HD
ENDROOT
BRANCH   4  23
ATOM     22  O   UNL     1      37.032 -20.643 -18.199  0.00  0.00    -0.275 OA
ATOM     23  N   UNL     1      35.518 -22.400 -18.306  0.00  0.00    -0.298 N 
ATOM     24  C   UNL     1      36.148 -21.260 -18.789  0.00  0.00    +0.223 C 
ATOM     25  H   UNL     1      34.821 -22.818 -18.861  0.00  0.00    +0.150 HD
BRANCH  24  26
ATOM     26  C   UNL     1      35.594 -20.816 -20.145  0.00  0.00    +0.088 C 
BRANCH  26  27
ATOM     27  C   UNL     1      36.267 -19.520 -20.641  0.00  0.00    +0.010 C 
BRANCH  27  28
ATOM     28  C   UNL     1      35.370 -18.620 -21.519  0.00  0.00    +0.000 C 
ATOM     29  C   UNL     1      35.956 -18.530 -22.931  0.00  0.00    +0.000 C 
ATOM     30  C   UNL     1      35.209 -17.214 -20.940  0.00  0.00    +0.000 C 
ENDBRANCH  27  28
ENDBRANCH  26  27
BRANCH  26  31
ATOM     31  C   UNL     1      34.071 -20.623 -20.006  0.00  0.00    +0.118 C 
BRANCH  31  33
ATOM     32  O   UNL     1      33.542 -23.002 -20.085  0.00  0.00    -0.250 OA
ATOM     33  C   UNL     1      33.347 -21.893 -19.609  0.00  0.00    +0.314 C 
BRANCH  33  34
ATOM     34  O   UNL     1      32.436 -21.657 -18.629  0.00  0.00    -0.480 OA
ATOM     35  H   UNL     1      32.533 -20.913 -18.068  0.00  0.00    +0.295 HD
ENDBRANCH  33  34
ENDBRANCH  31  33
ENDBRANCH  26  31
ENDBRANCH  24  26
ENDBRANCH   4  23
TORSDOF 7
ENDMDL
MODEL 7
REMARK VINA RESULT:      -6.0      2.067      7.903
REMARK  Name = 5289314
REMARK  7 active torsions:
REMARK  status: ('A' for Active; 'I' for Inactive)
REMARK    1  A    between atoms: C_4  and  N_23
REMARK    2  A    between atoms: C_24  and  C_26
REMARK    3  A    between atoms: C_26  and  C_27
REMARK    4  A    between atoms: C_26  and  C_31
REMARK    5  A    between atoms: C_27  and  C_28
REMARK    6  A    between atoms: C_31  and  C_33
REMARK    7  A    between atoms: C_33  and  O_34
REMARK                            x       y       z     vdW  Elec       q    Type
REMARK                         _______ _______ _______ _____ _____    ______ ____
ROOT
ATOM      1  O   UNL     1      31.428  -9.534 -21.103  0.00  0.00    -0.273 OA
ATOM      2  N   UNL     1      31.389  -5.651 -24.652  0.00  0.00    -0.286 N 
ATOM      3  N   UNL     1      33.026  -7.855 -21.222  0.00  0.00    -0.303 N 
ATOM      4  C   UNL     1      32.995  -9.557 -22.949  0.00  0.00    +0.153 C 
ATOM      5  C   UNL     1      32.124  -9.229 -24.167  0.00  0.00    +0.057 C 
ATOM      6  C   UNL     1      32.082  -7.770 -24.500  0.00  0.00    -0.004 C 
ATOM      7  C   UNL     1      30.548  -4.478 -24.489  0.00  0.00    +0.096 C 
ATOM      8  C   UNL     1      33.114  -6.990 -25.115  0.00  0.00    +0.011 C 
ATOM      9  C   UNL     1      32.653  -5.670 -25.202  0.00  0.00    +0.051 C 
ATOM     10  C   UNL     1      30.875  -3.616 -23.260  0.00  0.00    +0.022 C 
ATOM     11  C   UNL     1      31.023  -6.915 -24.268  0.00  0.00    +0.061 C 
ATOM     12  C   UNL     1      30.604  -4.315 -21.921  0.00  0.00    +0.002 C 
ATOM     13  C   UNL     1      31.826  -5.071 -21.388  0.00  0.00    +0.002 C 
ATOM     14  C   UNL     1      31.426  -6.164 -20.392  0.00  0.00    +0.021 C 
ATOM     15  C   UNL     1      32.392  -9.010 -21.658  0.00  0.00    +0.241 C 
ATOM     16  C   UNL     1      32.590  -7.099 -20.060  0.00  0.00    +0.089 C 
ATOM     17  C   UNL     1      34.405  -7.288 -25.599  0.00  0.00    +0.001 C 
ATOM     18  C   UNL     1      33.437  -4.643 -25.752  0.00  0.00    +0.015 C 
ATOM     19  C   UNL     1      35.190  -6.272 -26.152  0.00  0.00    +0.000 C 
ATOM     20  C   UNL     1      34.710  -4.968 -26.226  0.00  0.00    +0.001 C 
ATOM     21  H   UNL     1      33.809  -7.533 -21.725  0.00  0.00    +0.149 HD
ENDROOT
BRANCH   4  23
ATOM     22  O   UNL     1      34.174 -11.470 -24.767  0.00  0.00    -0.275 OA
ATOM     23  N   UNL     1      33.094 -10.985 -22.769  0.00  0.00    -0.298 N 
ATOM     24  C   UNL     1      33.681 -11.832 -23.701  0.00  0.00    +0.223 C 
ATOM     25  H   UNL     1      32.728 -11.379 -21.945  0.00  0.00    +0.150 HD
BRANCH  24  26
ATOM     26  C   UNL     1      33.618 -13.301 -23.275  0.00  0.00    +0.088 C 
BRANCH  26  27
ATOM     27  C   UNL     1      33.739 -14.252 -24.484  0.00  0.00    +0.010 C 
BRANCH  27  28
ATOM     28  C   UNL     1      33.868 -15.747 -24.120  0.00  0.00    +0.000 C 
ATOM     29  C   UNL     1      34.983 -15.931 -23.087  0.00  0.00    +0.000 C 
ATOM     30  C   UNL     1      34.151 -16.623 -25.341  0.00  0.00    +0.000 C 
ENDBRANCH  27  28
ENDBRANCH  26  27
BRANCH  26  31
ATOM     31  C   UNL     1      32.290 -13.532 -22.527  0.00  0.00    +0.118 C 
BRANCH  31  33
ATOM     32  O   UNL     1      32.920 -14.648 -20.453  0.00  0.00    -0.250 OA
ATOM     33  C   UNL     1      32.469 -13.669 -21.030  0.00  0.00    +0.314 C 
BRANCH  33  34
ATOM     34  O   UNL     1      32.071 -12.544 -20.379  0.00  0.00    -0.480 OA
ATOM     35  H   UNL     1      31.444 -11.971 -20.775  0.00  0.00    +0.295 HD
ENDBRANCH  33  34
ENDBRANCH  31  33
ENDBRANCH  26  31
ENDBRANCH  24  26
ENDBRANCH   4  23
TORSDOF 7
ENDMDL
