MODEL 1
REMARK VINA RESULT:      -5.1      0.000      0.000
REMARK  Name = 1136
REMARK  3 active torsions:
REMARK  status: ('A' for Active; 'I' for Inactive)
REMARK    1  A    between atoms: C_3  and  C_7
REMARK    2  A    between atoms: C_7  and  C_8
REMARK    3  A    between atoms: C_8  and  O_9
REMARK                            x       y       z     vdW  Elec       q    Type
REMARK                         _______ _______ _______ _____ _____    ______ ____
ROOT
ATOM      1  S   UNL     1      35.492 -18.409 -23.164  0.00  0.00    -0.109 S 
ATOM      2  N   UNL     1      35.348 -17.715 -20.678  0.00  0.00    -0.266 NA
ATOM      3  C   UNL     1      34.946 -16.848 -22.778  0.00  0.00    +0.087 C 
ATOM      4  C   UNL     1      34.929 -16.640 -21.436  0.00  0.00    +0.043 C 
ATOM      5  C   UNL     1      34.517 -15.409 -20.731  0.00  0.00    +0.048 C 
ATOM      6  C   UNL     1      35.669 -18.704 -21.482  0.00  0.00    +0.183 C 
ENDROOT
BRANCH   3   7
ATOM      7  C   UNL     1      34.559 -15.905 -23.892  0.00  0.00    +0.048 C 
BRANCH   7   8
ATOM      8  C   UNL     1      34.552 -16.598 -25.253  0.00  0.00    +0.138 C 
BRANCH   8   9
ATOM      9  O   UNL     1      33.885 -15.800 -26.222  0.00  0.00    -0.382 OA
ATOM     10  H   UNL     1      34.538 -15.284 -26.720  0.00  0.00    +0.210 HD
ENDBRANCH   8   9
ENDBRANCH   7   8
ENDBRANCH   3   7
TORSDOF 3
ENDMDL
MODEL 2
REMARK VINA RESULT:      -5.0      3.495      4.700
REMARK  Name = 1136
REMARK  3 active torsions:
REMARK  status: ('A' for Active; 'I' for Inactive)
REMARK    1  A    between atoms: C_3  and  C_7
REMARK    2  A    between atoms: C_7  and  C_8
REMARK    3  A    between atoms: C_8  and  O_9
REMARK                            x       y       z     vdW  Elec       q    Type
REMARK                         _______ _______ _______ _____ _____    ______ ____
ROOT
ATOM      1  S   UNL     1      33.509 -14.162 -24.287  0.00  0.00    -0.109 S 
ATOM      2  N   UNL     1      33.496 -15.942 -26.162  0.00  0.00    -0.266 NA
ATOM      3  C   UNL     1      34.201 -15.683 -23.980  0.00  0.00    +0.087 C 
ATOM      4  C   UNL     1      34.116 -16.500 -25.061  0.00  0.00    +0.043 C 
ATOM      5  C   UNL     1      34.607 -17.889 -25.169  0.00  0.00    +0.048 C 
ATOM      6  C   UNL     1      33.135 -14.713 -25.869  0.00  0.00    +0.183 C 
ENDROOT
BRANCH   3   7
ATOM      7  C   UNL     1      34.807 -15.959 -22.625  0.00  0.00    +0.048 C 
BRANCH   7   8
ATOM      8  C   UNL     1      34.396 -14.913 -21.590  0.00  0.00    +0.138 C 
BRANCH   8   9
ATOM      9  O   UNL     1      34.879 -15.263 -20.300  0.00  0.00    -0.382 OA
ATOM     10  H   UNL     1      34.161 -15.663 -19.784  0.00  0.00    +0.210 HD
ENDBRANCH   8   9
ENDBRANCH   7   8
ENDBRANCH   3   7
TORSDOF 3
ENDMDL
MODEL 3
REMARK VINA RESULT:      -5.0      1.412      2.214
REMARK  Name = 1136
REMARK  3 active torsions:
REMARK  status: ('A' for Active; 'I' for Inactive)
REMARK    1  A    between atoms: C_3  and  C_7
REMARK    2  A    between atoms: C_7  and  C_8
REMARK    3  A    between atoms: C_8  and  O_9
REMARK                            x       y       z     vdW  Elec       q    Type
REMARK                         _______ _______ _______ _____ _____    ______ ____
ROOT
ATOM      1  S   UNL     1      34.317 -15.386 -22.606  0.00  0.00    -0.109 S 
ATOM      2  N   UNL     1      35.069 -16.502 -20.398  0.00  0.00    -0.266 NA
ATOM      3  C   UNL     1      34.910 -16.977 -22.651  0.00  0.00    +0.087 C 
ATOM      4  C   UNL     1      35.260 -17.417 -21.415  0.00  0.00    +0.043 C 
ATOM      5  C   UNL     1      35.811 -18.742 -21.064  0.00  0.00    +0.048 C 
ATOM      6  C   UNL     1      34.577 -15.396 -20.909  0.00  0.00    +0.183 C 
ENDROOT
BRANCH   3   7
ATOM      7  C   UNL     1      34.982 -17.701 -23.974  0.00  0.00    +0.048 C 
BRANCH   7   8
ATOM      8  C   UNL     1      34.755 -16.760 -25.155  0.00  0.00    +0.138 C 
BRANCH   8   9
ATOM      9  O   UNL     1      33.640 -17.183 -25.929  0.00  0.00    -0.382 OA
ATOM     10  H   UNL     1      33.941 -17.789 -26.624  0.00  0.00    +0.210 HD
ENDBRANCH   8   9
ENDBRANCH   7   8
ENDBRANCH   3   7
TORSDOF 3
ENDMDL
MODEL 4
REMARK VINA RESULT:      -5.0     12.120     12.835
REMARK  Name = 1136
REMARK  3 active torsions:
REMARK  status: ('A' for Active; 'I' for Inactive)
REMARK    1  A    between atoms: C_3  and  C_7
REMARK    2  A    between atoms: C_7  and  C_8
REMARK    3  A    between atoms: C_8  and  O_9
REMARK                            x       y       z     vdW  Elec       q    Type
REMARK                         _______ _______ _______ _____ _____    ______ ____
ROOT
ATOM      1  S   UNL     1      35.967 -25.415 -14.920  0.00  0.00    -0.109 S 
ATOM      2  N   UNL     1      38.103 -26.869 -14.832  0.00  0.00    -0.266 NA
ATOM      3  C   UNL     1      37.385 -24.752 -14.258  0.00  0.00    +0.087 C 
ATOM      4  C   UNL     1      38.413 -25.638 -14.287  0.00  0.00    +0.043 C 
ATOM      5  C   UNL     1      39.791 -25.419 -13.803  0.00  0.00    +0.048 C 
ATOM      6  C   UNL     1      36.841 -26.865 -15.200  0.00  0.00    +0.183 C 
ENDROOT
BRANCH   3   7
ATOM      7  C   UNL     1      37.365 -23.334 -13.740  0.00  0.00    +0.048 C 
BRANCH   7   8
ATOM      8  C   UNL     1      37.200 -23.282 -12.223  0.00  0.00    +0.138 C 
BRANCH   8   9
ATOM      9  O   UNL     1      38.395 -22.828 -11.600  0.00  0.00    -0.382 OA
ATOM     10  H   UNL     1      38.492 -21.874 -11.747  0.00  0.00    +0.210 HD
ENDBRANCH   8   9
ENDBRANCH   7   8
ENDBRANCH   3   7
TORSDOF 3
ENDMDL
MODEL 5
REMARK VINA RESULT:      -4.9      3.473      4.506
REMARK  Name = 1136
REMARK  3 active torsions:
REMARK  status: ('A' for Active; 'I' for Inactive)
REMARK    1  A    between atoms: C_3  and  C_7
REMARK    2  A    between atoms: C_7  and  C_8
REMARK    3  A    between atoms: C_8  and  O_9
REMARK                            x       y       z     vdW  Elec       q    Type
REMARK                         _______ _______ _______ _____ _____    ______ ____
ROOT
ATOM      1  S   UNL     1      34.619 -16.650 -21.145  0.00  0.00    -0.109 S 
ATOM      2  N   UNL     1      34.936 -16.897 -23.699  0.00  0.00    -0.266 NA
ATOM      3  C   UNL     1      34.601 -18.205 -21.828  0.00  0.00    +0.087 C 
ATOM      4  C   UNL     1      34.781 -18.165 -23.173  0.00  0.00    +0.043 C 
ATOM      5  C   UNL     1      34.823 -19.313 -24.101  0.00  0.00    +0.048 C 
ATOM      6  C   UNL     1      34.868 -16.020 -22.723  0.00  0.00    +0.183 C 
ENDROOT
BRANCH   3   7
ATOM      7  C   UNL     1      34.401 -19.403 -20.931  0.00  0.00    +0.048 C 
BRANCH   7   8
ATOM      8  C   UNL     1      32.936 -19.826 -20.858  0.00  0.00    +0.138 C 
BRANCH   8   9
ATOM      9  O   UNL     1      32.696 -20.618 -19.702  0.00  0.00    -0.382 OA
ATOM     10  H   UNL     1      32.881 -20.093 -18.908  0.00  0.00    +0.210 HD
ENDBRANCH   8   9
ENDBRANCH   7   8
ENDBRANCH   3   7
TORSDOF 3
ENDMDL
MODEL 6
REMARK VINA RESULT:      -4.9      3.216      4.007
REMARK  Name = 1136
REMARK  3 active torsions:
REMARK  status: ('A' for Active; 'I' for Inactive)
REMARK    1  A    between atoms: C_3  and  C_7
REMARK    2  A    between atoms: C_7  and  C_8
REMARK    3  A    between atoms: C_8  and  O_9
REMARK                            x       y       z     vdW  Elec       q    Type
REMARK                         _______ _______ _______ _____ _____    ______ ____
ROOT
ATOM      1  S   UNL     1      34.824 -19.065 -23.612  0.00  0.00    -0.109 S 
ATOM      2  N   UNL     1      35.012 -16.516 -23.226  0.00  0.00    -0.266 NA
ATOM      3  C   UNL     1      34.665 -18.460 -22.033  0.00  0.00    +0.087 C 
ATOM      4  C   UNL     1      34.787 -17.108 -21.999  0.00  0.00    +0.043 C 
ATOM      5  C   UNL     1      34.705 -16.236 -20.810  0.00  0.00    +0.048 C 
ATOM      6  C   UNL     1      35.051 -17.451 -24.149  0.00  0.00    +0.183 C 
ENDROOT
BRANCH   3   7
ATOM      7  C   UNL     1      34.418 -19.422 -20.895  0.00  0.00    +0.048 C 
BRANCH   7   8
ATOM      8  C   UNL     1      32.966 -19.893 -20.848  0.00  0.00    +0.138 C 
BRANCH   8   9
ATOM      9  O   UNL     1      32.698 -20.582 -19.634  0.00  0.00    -0.382 OA
ATOM     10  H   UNL     1      33.534 -20.865 -19.233  0.00  0.00    +0.210 HD
ENDBRANCH   8   9
ENDBRANCH   7   8
ENDBRANCH   3   7
TORSDOF 3
ENDMDL
MODEL 7
REMARK VINA RESULT:      -4.9      3.138      3.962
REMARK  Name = 1136
REMARK  3 active torsions:
REMARK  status: ('A' for Active; 'I' for Inactive)
REMARK    1  A    between atoms: C_3  and  C_7
REMARK    2  A    between atoms: C_7  and  C_8
REMARK    3  A    between atoms: C_8  and  O_9
REMARK                            x       y       z     vdW  Elec       q    Type
REMARK                         _______ _______ _______ _____ _____    ______ ____
ROOT
ATOM      1  S   UNL     1      34.908 -16.958 -23.439  0.00  0.00    -0.109 S 
ATOM      2  N   UNL     1      33.998 -16.831 -25.856  0.00  0.00    -0.266 NA
ATOM      3  C   UNL     1      34.158 -15.525 -23.960  0.00  0.00    +0.087 C 
ATOM      4  C   UNL     1      33.735 -15.620 -25.247  0.00  0.00    +0.043 C 
ATOM      5  C   UNL     1      33.044 -14.580 -26.035  0.00  0.00    +0.048 C 
ATOM      6  C   UNL     1      34.614 -17.614 -24.998  0.00  0.00    +0.183 C 
ENDROOT
BRANCH   3   7
ATOM      7  C   UNL     1      34.039 -14.364 -23.002  0.00  0.00    +0.048 C 
BRANCH   7   8
ATOM      8  C   UNL     1      32.679 -14.329 -22.309  0.00  0.00    +0.138 C 
BRANCH   8   9
ATOM      9  O   UNL     1      31.890 -13.253 -22.800  0.00  0.00    -0.382 OA
ATOM     10  H   UNL     1      32.427 -12.446 -22.826  0.00  0.00    +0.210 HD
ENDBRANCH   8   9
ENDBRANCH   7   8
ENDBRANCH   3   7
TORSDOF 3
ENDMDL
MODEL 8
REMARK VINA RESULT:      -4.8     12.281     12.972
REMARK  Name = 1136
REMARK  3 active torsions:
REMARK  status: ('A' for Active; 'I' for Inactive)
REMARK    1  A    between atoms: C_3  and  C_7
REMARK    2  A    between atoms: C_7  and  C_8
REMARK    3  A    between atoms: C_8  and  O_9
REMARK                            x       y       z     vdW  Elec       q    Type
REMARK                         _______ _______ _______ _____ _____    ______ ____
ROOT
ATOM      1  S   UNL     1      35.461 -24.300 -12.610  0.00  0.00    -0.109 S 
ATOM      2  N   UNL     1      37.814 -24.359 -11.541  0.00  0.00    -0.266 NA
ATOM      3  C   UNL     1      36.764 -24.889 -13.527  0.00  0.00    +0.087 C 
ATOM      4  C   UNL     1      37.926 -24.855 -12.825  0.00  0.00    +0.043 C 
ATOM      5  C   UNL     1      39.261 -25.284 -13.290  0.00  0.00    +0.048 C 
ATOM      6  C   UNL     1      36.560 -24.034 -11.319  0.00  0.00    +0.183 C 
ENDROOT
BRANCH   3   7
ATOM      7  C   UNL     1      36.520 -25.363 -14.939  0.00  0.00    +0.048 C 
BRANCH   7   8
ATOM      8  C   UNL     1      36.674 -26.876 -15.070  0.00  0.00    +0.138 C 
BRANCH   8   9
ATOM      9  O   UNL     1      36.737 -27.261 -16.437  0.00  0.00    -0.382 OA
ATOM     10  H   UNL     1      36.210 -26.645 -16.970  0.00  0.00    +0.210 HD
ENDBRANCH   8   9
ENDBRANCH   7   8
ENDBRANCH   3   7
TORSDOF 3
ENDMDL
MODEL 9
REMARK VINA RESULT:      -4.8      3.166      4.081
REMARK  Name = 1136
REMARK  3 active torsions:
REMARK  status: ('A' for Active; 'I' for Inactive)
REMARK    1  A    between atoms: C_3  and  C_7
REMARK    2  A    between atoms: C_7  and  C_8
REMARK    3  A    between atoms: C_8  and  O_9
REMARK                            x       y       z     vdW  Elec       q    Type
REMARK                         _______ _______ _______ _____ _____    ______ ____
ROOT
ATOM      1  S   UNL     1      35.005 -17.117 -23.512  0.00  0.00    -0.109 S 
ATOM      2  N   UNL     1      33.980 -16.582 -25.824  0.00  0.00    -0.266 NA
ATOM      3  C   UNL     1      34.241 -15.618 -23.744  0.00  0.00    +0.087 C 
ATOM      4  C   UNL     1      33.756 -15.492 -25.006  0.00  0.00    +0.043 C 
ATOM      5  C   UNL     1      33.035 -14.334 -25.572  0.00  0.00    +0.048 C 
ATOM      6  C   UNL     1      34.630 -17.499 -25.143  0.00  0.00    +0.183 C 
ENDROOT
BRANCH   3   7
ATOM      7  C   UNL     1      34.177 -14.636 -22.598  0.00  0.00    +0.048 C 
BRANCH   7   8
ATOM      8  C   UNL     1      33.810 -15.316 -21.282  0.00  0.00    +0.138 C 
BRANCH   8   9
ATOM      9  O   UNL     1      34.886 -15.239 -20.356  0.00  0.00    -0.382 OA
ATOM     10  H   UNL     1      34.805 -15.955 -19.707  0.00  0.00    +0.210 HD
ENDBRANCH   8   9
ENDBRANCH   7   8
ENDBRANCH   3   7
TORSDOF 3
ENDMDL
