MODEL 1
REMARK VINA RESULT:      -7.3      0.000      0.000
REMARK  Name = 5289593
REMARK  8 active torsions:
REMARK  status: ('A' for Active; 'I' for Inactive)
REMARK    1  A    between atoms: C_1  and  O_2
REMARK    2  A    between atoms: C_1  and  C_4
REMARK    3  A    between atoms: C_1  and  C_13
REMARK    4  A    between atoms: C_4  and  C_7
REMARK    5  A    between atoms: C_4  and  O_11
REMARK    6  A    between atoms: N_6  and  O_9
REMARK    7  A    between atoms: C_13  and  C_16
REMARK    8  A    between atoms: C_13  and  O_17
REMARK                            x       y       z     vdW  Elec       q    Type
REMARK                         _______ _______ _______ _____ _____    ______ ____
ROOT
ATOM      1  C   UNL     1      37.027 -25.259 -12.681  0.00  0.00    +0.184 C 
ENDROOT
BRANCH   1   2
ATOM      2  O   UNL     1      36.865 -26.578 -12.158  0.00  0.00    -0.379 OA
ATOM      3  H   UNL     1      37.430 -26.687 -11.377  0.00  0.00    +0.211 HD
ENDBRANCH   1   2
BRANCH   1   4
ATOM      4  C   UNL     1      37.059 -25.353 -14.219  0.00  0.00    +0.219 C 
BRANCH   4   7
ATOM      5  O   UNL     1      38.419 -27.299 -14.683  0.00  0.00    -0.270 OA
ATOM      6  N   UNL     1      39.165 -25.235 -15.396  0.00  0.00    -0.195 N 
ATOM      7  C   UNL     1      38.280 -26.082 -14.775  0.00  0.00    +0.274 C 
ATOM      8  H   UNL     1      39.013 -24.264 -15.445  0.00  0.00    +0.182 HD
BRANCH   6   9
ATOM      9  O   UNL     1      40.298 -25.841 -15.955  0.00  0.00    -0.295 OA
ATOM     10  H   UNL     1      41.090 -25.340 -15.703  0.00  0.00    +0.241 HD
ENDBRANCH   6   9
ENDBRANCH   4   7
BRANCH   4  11
ATOM     11  O   UNL     1      35.891 -26.002 -14.697  0.00  0.00    -0.374 OA
ATOM     12  H   UNL     1      35.699 -26.774 -14.141  0.00  0.00    +0.211 HD
ENDBRANCH   4  11
ENDBRANCH   1   4
BRANCH   1  13
ATOM     13  C   UNL     1      35.934 -24.344 -12.104  0.00  0.00    +0.244 C 
BRANCH  13  16
ATOM     14  O   UNL     1      37.002 -23.005 -10.441  0.00  0.00    -0.243 OA
ATOM     15  O   UNL     1      35.389 -24.491  -9.811  0.00  0.00    -0.243 OA
ATOM     16  C   UNL     1      36.134 -23.897 -10.644  0.00  0.00    +0.394 C 
ENDBRANCH  13  16
BRANCH  13  17
ATOM     17  O   UNL     1      34.681 -25.024 -12.143  0.00  0.00    -0.372 OA
ATOM     18  H   UNL     1      34.784 -25.914 -11.771  0.00  0.00    +0.211 HD
ENDBRANCH  13  17
ENDBRANCH   1  13
TORSDOF 8
ENDMDL
MODEL 2
REMARK VINA RESULT:      -7.2      2.074      4.930
REMARK  Name = 5289593
REMARK  8 active torsions:
REMARK  status: ('A' for Active; 'I' for Inactive)
REMARK    1  A    between atoms: C_1  and  O_2
REMARK    2  A    between atoms: C_1  and  C_4
REMARK    3  A    between atoms: C_1  and  C_13
REMARK    4  A    between atoms: C_4  and  C_7
REMARK    5  A    between atoms: C_4  and  O_11
REMARK    6  A    between atoms: N_6  and  O_9
REMARK    7  A    between atoms: C_13  and  C_16
REMARK    8  A    between atoms: C_13  and  O_17
REMARK                            x       y       z     vdW  Elec       q    Type
REMARK                         _______ _______ _______ _____ _____    ______ ____
ROOT
ATOM      1  C   UNL     1      38.559 -25.257 -12.986  0.00  0.00    +0.184 C 
ENDROOT
BRANCH   1   2
ATOM      2  O   UNL     1      38.336 -23.849 -13.064  0.00  0.00    -0.379 OA
ATOM      3  H   UNL     1      37.632 -23.669 -13.707  0.00  0.00    +0.211 HD
ENDBRANCH   1   2
BRANCH   1   4
ATOM      4  C   UNL     1      37.326 -25.901 -12.322  0.00  0.00    +0.219 C 
BRANCH   4   7
ATOM      5  O   UNL     1      36.432 -24.334 -10.711  0.00  0.00    -0.270 OA
ATOM      6  N   UNL     1      35.268 -24.685 -12.671  0.00  0.00    -0.195 N 
ATOM      7  C   UNL     1      36.304 -24.896 -11.795  0.00  0.00    +0.274 C 
ATOM      8  H   UNL     1      35.205 -25.159 -13.531  0.00  0.00    +0.182 HD
BRANCH   6   9
ATOM      9  O   UNL     1      34.306 -23.751 -12.265  0.00  0.00    -0.295 OA
ATOM     10  H   UNL     1      34.545 -23.400 -11.393  0.00  0.00    +0.241 HD
ENDBRANCH   6   9
ENDBRANCH   4   7
BRANCH   4  11
ATOM     11  O   UNL     1      36.673 -26.771 -13.234  0.00  0.00    -0.374 OA
ATOM     12  H   UNL     1      36.735 -26.405 -14.131  0.00  0.00    +0.211 HD
ENDBRANCH   4  11
ENDBRANCH   1   4
BRANCH   1  13
ATOM     13  C   UNL     1      38.907 -25.797 -14.382  0.00  0.00    +0.244 C 
BRANCH  13  16
ATOM     14  O   UNL     1      40.970 -24.602 -14.252  0.00  0.00    -0.243 OA
ATOM     15  O   UNL     1      40.672 -26.137 -15.914  0.00  0.00    -0.243 OA
ATOM     16  C   UNL     1      40.324 -25.475 -14.893  0.00  0.00    +0.394 C 
ENDBRANCH  13  16
BRANCH  13  17
ATOM     17  O   UNL     1      38.005 -25.246 -15.340  0.00  0.00    -0.372 OA
ATOM     18  H   UNL     1      37.169 -25.737 -15.316  0.00  0.00    +0.211 HD
ENDBRANCH  13  17
ENDBRANCH   1  13
TORSDOF 8
ENDMDL
MODEL 3
REMARK VINA RESULT:      -7.1      1.602      2.200
REMARK  Name = 5289593
REMARK  8 active torsions:
REMARK  status: ('A' for Active; 'I' for Inactive)
REMARK    1  A    between atoms: C_1  and  O_2
REMARK    2  A    between atoms: C_1  and  C_4
REMARK    3  A    between atoms: C_1  and  C_13
REMARK    4  A    between atoms: C_4  and  C_7
REMARK    5  A    between atoms: C_4  and  O_11
REMARK    6  A    between atoms: N_6  and  O_9
REMARK    7  A    between atoms: C_13  and  C_16
REMARK    8  A    between atoms: C_13  and  O_17
REMARK                            x       y       z     vdW  Elec       q    Type
REMARK                         _______ _______ _______ _____ _____    ______ ____
ROOT
ATOM      1  C   UNL     1      36.736 -24.557 -13.321  0.00  0.00    +0.184 C 
ENDROOT
BRANCH   1   2
ATOM      2  O   UNL     1      37.994 -23.882 -13.285  0.00  0.00    -0.379 OA
ATOM      3  H   UNL     1      37.877 -22.965 -13.576  0.00  0.00    +0.211 HD
ENDBRANCH   1   2
BRANCH   1   4
ATOM      4  C   UNL     1      37.000 -26.071 -13.202  0.00  0.00    +0.219 C 
BRANCH   4   7
ATOM      5  O   UNL     1      38.590 -27.077 -14.722  0.00  0.00    -0.270 OA
ATOM      6  N   UNL     1      36.383 -26.921 -15.377  0.00  0.00    -0.195 N 
ATOM      7  C   UNL     1      37.429 -26.734 -14.508  0.00  0.00    +0.274 C 
ATOM      8  H   UNL     1      35.468 -26.630 -15.164  0.00  0.00    +0.182 HD
BRANCH   6   9
ATOM      9  O   UNL     1      36.700 -27.552 -16.588  0.00  0.00    -0.295 OA
ATOM     10  H   UNL     1      36.866 -26.881 -17.268  0.00  0.00    +0.241 HD
ENDBRANCH   6   9
ENDBRANCH   4   7
BRANCH   4  11
ATOM     11  O   UNL     1      37.993 -26.322 -12.220  0.00  0.00    -0.374 OA
ATOM     12  H   UNL     1      37.887 -25.697 -11.485  0.00  0.00    +0.211 HD
ENDBRANCH   4  11
ENDBRANCH   1   4
BRANCH   1  13
ATOM     13  C   UNL     1      35.810 -23.967 -12.245  0.00  0.00    +0.244 C 
BRANCH  13  16
ATOM     14  O   UNL     1      36.163 -24.249  -9.900  0.00  0.00    -0.243 OA
ATOM     15  O   UNL     1      37.300 -22.611 -11.012  0.00  0.00    -0.243 OA
ATOM     16  C   UNL     1      36.487 -23.577 -10.917  0.00  0.00    +0.394 C 
ENDBRANCH  13  16
BRANCH  13  17
ATOM     17  O   UNL     1      34.805 -24.922 -11.912  0.00  0.00    -0.372 OA
ATOM     18  H   UNL     1      34.439 -24.714 -11.038  0.00  0.00    +0.211 HD
ENDBRANCH  13  17
ENDBRANCH   1  13
TORSDOF 8
ENDMDL
MODEL 4
REMARK VINA RESULT:      -6.8      2.509      4.734
REMARK  Name = 5289593
REMARK  8 active torsions:
REMARK  status: ('A' for Active; 'I' for Inactive)
REMARK    1  A    between atoms: C_1  and  O_2
REMARK    2  A    between atoms: C_1  and  C_4
REMARK    3  A    between atoms: C_1  and  C_13
REMARK    4  A    between atoms: C_4  and  C_7
REMARK    5  A    between atoms: C_4  and  O_11
REMARK    6  A    between atoms: N_6  and  O_9
REMARK    7  A    between atoms: C_13  and  C_16
REMARK    8  A    between atoms: C_13  and  O_17
REMARK                            x       y       z     vdW  Elec       q    Type
REMARK                         _______ _______ _______ _____ _____    ______ ____
ROOT
ATOM      1  C   UNL     1      38.151 -24.630 -13.698  0.00  0.00    +0.184 C 
ENDROOT
BRANCH   1   2
ATOM      2  O   UNL     1      38.207 -23.634 -14.720  0.00  0.00    -0.379 OA
ATOM      3  H   UNL     1      38.874 -22.969 -14.486  0.00  0.00    +0.211 HD
ENDBRANCH   1   2
BRANCH   1   4
ATOM      4  C   UNL     1      36.672 -24.844 -13.318  0.00  0.00    +0.219 C 
BRANCH   4   7
ATOM      5  O   UNL     1      35.525 -24.944 -15.445  0.00  0.00    -0.270 OA
ATOM      6  N   UNL     1      34.985 -23.247 -13.978  0.00  0.00    -0.195 N 
ATOM      7  C   UNL     1      35.680 -24.362 -14.374  0.00  0.00    +0.274 C 
ATOM      8  H   UNL     1      35.143 -22.813 -13.109  0.00  0.00    +0.182 HD
BRANCH   6   9
ATOM      9  O   UNL     1      34.034 -22.765 -14.889  0.00  0.00    -0.295 OA
ATOM     10  H   UNL     1      34.166 -21.813 -15.019  0.00  0.00    +0.241 HD
ENDBRANCH   6   9
ENDBRANCH   4   7
BRANCH   4  11
ATOM     11  O   UNL     1      36.424 -26.217 -13.059  0.00  0.00    -0.374 OA
ATOM     12  H   UNL     1      36.020 -26.626 -13.842  0.00  0.00    +0.211 HD
ENDBRANCH   4  11
ENDBRANCH   1   4
BRANCH   1  13
ATOM     13  C   UNL     1      38.894 -25.889 -14.172  0.00  0.00    +0.244 C 
BRANCH  13  16
ATOM     14  O   UNL     1      40.877 -24.566 -14.291  0.00  0.00    -0.243 OA
ATOM     15  O   UNL     1      41.014 -26.816 -14.642  0.00  0.00    -0.243 OA
ATOM     16  C   UNL     1      40.411 -25.733 -14.388  0.00  0.00    +0.394 C 
ENDBRANCH  13  16
BRANCH  13  17
ATOM     17  O   UNL     1      38.356 -26.312 -15.423  0.00  0.00    -0.372 OA
ATOM     18  H   UNL     1      37.556 -25.800 -15.620  0.00  0.00    +0.211 HD
ENDBRANCH  13  17
ENDBRANCH   1  13
TORSDOF 8
ENDMDL
MODEL 5
REMARK VINA RESULT:      -6.7      1.383      1.718
REMARK  Name = 5289593
REMARK  8 active torsions:
REMARK  status: ('A' for Active; 'I' for Inactive)
REMARK    1  A    between atoms: C_1  and  O_2
REMARK    2  A    between atoms: C_1  and  C_4
REMARK    3  A    between atoms: C_1  and  C_13
REMARK    4  A    between atoms: C_4  and  C_7
REMARK    5  A    between atoms: C_4  and  O_11
REMARK    6  A    between atoms: N_6  and  O_9
REMARK    7  A    between atoms: C_13  and  C_16
REMARK    8  A    between atoms: C_13  and  O_17
REMARK                            x       y       z     vdW  Elec       q    Type
REMARK                         _______ _______ _______ _____ _____    ______ ____
ROOT
ATOM      1  C   UNL     1      37.888 -24.510 -12.452  0.00  0.00    +0.184 C 
ENDROOT
BRANCH   1   2
ATOM      2  O   UNL     1      37.814 -25.799 -11.840  0.00  0.00    -0.379 OA
ATOM      3  H   UNL     1      38.518 -26.365 -12.194  0.00  0.00    +0.211 HD
ENDBRANCH   1   2
BRANCH   1   4
ATOM      4  C   UNL     1      37.880 -24.704 -13.981  0.00  0.00    +0.219 C 
BRANCH   4   7
ATOM      5  O   UNL     1      39.837 -24.364 -15.362  0.00  0.00    -0.270 OA
ATOM      6  N   UNL     1      39.702 -26.286 -14.093  0.00  0.00    -0.195 N 
ATOM      7  C   UNL     1      39.237 -25.085 -14.569  0.00  0.00    +0.274 C 
ATOM      8  H   UNL     1      39.186 -26.832 -13.458  0.00  0.00    +0.182 HD
BRANCH   6   9
ATOM      9  O   UNL     1      40.958 -26.686 -14.570  0.00  0.00    -0.295 OA
ATOM     10  H   UNL     1      41.272 -26.048 -15.229  0.00  0.00    +0.241 HD
ENDBRANCH   6   9
ENDBRANCH   4   7
BRANCH   4  11
ATOM     11  O   UNL     1      36.935 -25.698 -14.347  0.00  0.00    -0.374 OA
ATOM     12  H   UNL     1      37.326 -26.286 -15.012  0.00  0.00    +0.211 HD
ENDBRANCH   4  11
ENDBRANCH   1   4
BRANCH   1  13
ATOM     13  C   UNL     1      36.764 -23.619 -11.900  0.00  0.00    +0.244 C 
BRANCH  13  16
ATOM     14  O   UNL     1      36.053 -24.204  -9.697  0.00  0.00    -0.243 OA
ATOM     15  O   UNL     1      34.812 -24.884 -11.488  0.00  0.00    -0.243 OA
ATOM     16  C   UNL     1      35.784 -24.300 -10.925  0.00  0.00    +0.394 C 
ENDBRANCH  13  16
BRANCH  13  17
ATOM     17  O   UNL     1      35.973 -23.132 -12.981  0.00  0.00    -0.372 OA
ATOM     18  H   UNL     1      36.021 -22.163 -13.006  0.00  0.00    +0.211 HD
ENDBRANCH  13  17
ENDBRANCH   1  13
TORSDOF 8
ENDMDL
MODEL 6
REMARK VINA RESULT:      -6.6      1.914      4.741
REMARK  Name = 5289593
REMARK  8 active torsions:
REMARK  status: ('A' for Active; 'I' for Inactive)
REMARK    1  A    between atoms: C_1  and  O_2
REMARK    2  A    between atoms: C_1  and  C_4
REMARK    3  A    between atoms: C_1  and  C_13
REMARK    4  A    between atoms: C_4  and  C_7
REMARK    5  A    between atoms: C_4  and  O_11
REMARK    6  A    between atoms: N_6  and  O_9
REMARK    7  A    between atoms: C_13  and  C_16
REMARK    8  A    between atoms: C_13  and  O_17
REMARK                            x       y       z     vdW  Elec       q    Type
REMARK                         _______ _______ _______ _____ _____    ______ ____
ROOT
ATOM      1  C   UNL     1      38.333 -25.119 -13.468  0.00  0.00    +0.184 C 
ENDROOT
BRANCH   1   2
ATOM      2  O   UNL     1      37.993 -23.743 -13.647  0.00  0.00    -0.379 OA
ATOM      3  H   UNL     1      38.770 -23.192 -13.465  0.00  0.00    +0.211 HD
ENDBRANCH   1   2
BRANCH   1   4
ATOM      4  C   UNL     1      37.465 -25.683 -12.327  0.00  0.00    +0.219 C 
BRANCH   4   7
ATOM      5  O   UNL     1      36.710 -23.999 -10.763  0.00  0.00    -0.270 OA
ATOM      6  N   UNL     1      35.296 -24.631 -12.474  0.00  0.00    -0.195 N 
ATOM      7  C   UNL     1      36.463 -24.685 -11.752  0.00  0.00    +0.274 C 
ATOM      8  H   UNL     1      35.141 -25.201 -13.261  0.00  0.00    +0.182 HD
BRANCH   6   9
ATOM      9  O   UNL     1      34.339 -23.713 -12.019  0.00  0.00    -0.295 OA
ATOM     10  H   UNL     1      34.612 -22.815 -12.262  0.00  0.00    +0.241 HD
ENDBRANCH   6   9
ENDBRANCH   4   7
BRANCH   4  11
ATOM     11  O   UNL     1      36.756 -26.831 -12.767  0.00  0.00    -0.374 OA
ATOM     12  H   UNL     1      36.691 -26.818 -13.736  0.00  0.00    +0.211 HD
ENDBRANCH   4  11
ENDBRANCH   1   4
BRANCH   1  13
ATOM     13  C   UNL     1      38.206 -25.854 -14.812  0.00  0.00    +0.244 C 
BRANCH  13  16
ATOM     14  O   UNL     1      36.431 -27.115 -15.793  0.00  0.00    -0.243 OA
ATOM     15  O   UNL     1      36.117 -24.897 -15.358  0.00  0.00    -0.243 OA
ATOM     16  C   UNL     1      36.778 -25.976 -15.378  0.00  0.00    +0.394 C 
ENDBRANCH  13  16
BRANCH  13  17
ATOM     17  O   UNL     1      38.691 -27.187 -14.669  0.00  0.00    -0.372 OA
ATOM     18  H   UNL     1      39.103 -27.289 -13.797  0.00  0.00    +0.211 HD
ENDBRANCH  13  17
ENDBRANCH   1  13
TORSDOF 8
ENDMDL
MODEL 7
REMARK VINA RESULT:      -6.5      1.695      2.147
REMARK  Name = 5289593
REMARK  8 active torsions:
REMARK  status: ('A' for Active; 'I' for Inactive)
REMARK    1  A    between atoms: C_1  and  O_2
REMARK    2  A    between atoms: C_1  and  C_4
REMARK    3  A    between atoms: C_1  and  C_13
REMARK    4  A    between atoms: C_4  and  C_7
REMARK    5  A    between atoms: C_4  and  O_11
REMARK    6  A    between atoms: N_6  and  O_9
REMARK    7  A    between atoms: C_13  and  C_16
REMARK    8  A    between atoms: C_13  and  O_17
REMARK                            x       y       z     vdW  Elec       q    Type
REMARK                         _______ _______ _______ _____ _____    ______ ____
ROOT
ATOM      1  C   UNL     1      37.628 -24.606 -12.734  0.00  0.00    +0.184 C 
ENDROOT
BRANCH   1   2
ATOM      2  O   UNL     1      37.220 -25.965 -12.569  0.00  0.00    -0.379 OA
ATOM      3  H   UNL     1      37.597 -26.504 -13.283  0.00  0.00    +0.211 HD
ENDBRANCH   1   2
BRANCH   1   4
ATOM      4  C   UNL     1      37.876 -24.359 -14.235  0.00  0.00    +0.219 C 
BRANCH   4   7
ATOM      5  O   UNL     1      35.931 -24.733 -15.624  0.00  0.00    -0.270 OA
ATOM      6  N   UNL     1      37.485 -26.426 -15.422  0.00  0.00    -0.195 N 
ATOM      7  C   UNL     1      36.978 -25.178 -15.160  0.00  0.00    +0.274 C 
ATOM      8  H   UNL     1      38.329 -26.742 -15.026  0.00  0.00    +0.182 HD
BRANCH   6   9
ATOM      9  O   UNL     1      36.725 -27.224 -16.288  0.00  0.00    -0.295 OA
ATOM     10  H   UNL     1      36.182 -27.838 -15.768  0.00  0.00    +0.241 HD
ENDBRANCH   6   9
ENDBRANCH   4   7
BRANCH   4  11
ATOM     11  O   UNL     1      37.706 -22.984 -14.543  0.00  0.00    -0.374 OA
ATOM     12  H   UNL     1      37.997 -22.445 -13.790  0.00  0.00    +0.211 HD
ENDBRANCH   4  11
ENDBRANCH   1   4
BRANCH   1  13
ATOM     13  C   UNL     1      36.590 -23.679 -12.081  0.00  0.00    +0.244 C 
BRANCH  13  16
ATOM     14  O   UNL     1      36.376 -23.888  -9.713  0.00  0.00    -0.243 OA
ATOM     15  O   UNL     1      34.900 -24.980 -11.068  0.00  0.00    -0.243 OA
ATOM     16  C   UNL     1      35.892 -24.233 -10.825  0.00  0.00    +0.394 C 
ENDBRANCH  13  16
BRANCH  13  17
ATOM     17  O   UNL     1      35.554 -23.396 -13.019  0.00  0.00    -0.372 OA
ATOM     18  H   UNL     1      35.932 -23.336 -13.910  0.00  0.00    +0.211 HD
ENDBRANCH  13  17
ENDBRANCH   1  13
TORSDOF 8
ENDMDL
MODEL 8
REMARK VINA RESULT:      -6.5      2.633      4.117
REMARK  Name = 5289593
REMARK  8 active torsions:
REMARK  status: ('A' for Active; 'I' for Inactive)
REMARK    1  A    between atoms: C_1  and  O_2
REMARK    2  A    between atoms: C_1  and  C_4
REMARK    3  A    between atoms: C_1  and  C_13
REMARK    4  A    between atoms: C_4  and  C_7
REMARK    5  A    between atoms: C_4  and  O_11
REMARK    6  A    between atoms: N_6  and  O_9
REMARK    7  A    between atoms: C_13  and  C_16
REMARK    8  A    between atoms: C_13  and  O_17
REMARK                            x       y       z     vdW  Elec       q    Type
REMARK                         _______ _______ _______ _____ _____    ______ ____
ROOT
ATOM      1  C   UNL     1      36.903 -24.325 -14.709  0.00  0.00    +0.184 C 
ENDROOT
BRANCH   1   2
ATOM      2  O   UNL     1      36.633 -25.300 -15.718  0.00  0.00    -0.379 OA
ATOM      3  H   UNL     1      36.421 -24.851 -16.552  0.00  0.00    +0.211 HD
ENDBRANCH   1   2
BRANCH   1   4
ATOM      4  C   UNL     1      37.775 -24.987 -13.625  0.00  0.00    +0.219 C 
BRANCH   4   7
ATOM      5  O   UNL     1      38.304 -27.164 -14.536  0.00  0.00    -0.270 OA
ATOM      6  N   UNL     1      40.026 -25.673 -14.170  0.00  0.00    -0.195 N 
ATOM      7  C   UNL     1      38.712 -26.071 -14.152  0.00  0.00    +0.274 C 
ATOM      8  H   UNL     1      40.308 -24.786 -13.851  0.00  0.00    +0.182 HD
BRANCH   6   9
ATOM      9  O   UNL     1      40.941 -26.610 -14.670  0.00  0.00    -0.295 OA
ATOM     10  H   UNL     1      40.681 -27.500 -14.384  0.00  0.00    +0.241 HD
ENDBRANCH   6   9
ENDBRANCH   4   7
BRANCH   4  11
ATOM     11  O   UNL     1      38.552 -24.008 -12.952  0.00  0.00    -0.374 OA
ATOM     12  H   UNL     1      38.331 -24.013 -12.007  0.00  0.00    +0.211 HD
ENDBRANCH   4  11
ENDBRANCH   1   4
BRANCH   1  13
ATOM     13  C   UNL     1      37.508 -23.072 -15.361  0.00  0.00    +0.244 C 
BRANCH  13  16
ATOM     14  O   UNL     1      37.114 -21.348 -16.966  0.00  0.00    -0.243 OA
ATOM     15  O   UNL     1      35.577 -23.016 -16.720  0.00  0.00    -0.243 OA
ATOM     16  C   UNL     1      36.655 -22.407 -16.459  0.00  0.00    +0.394 C 
ENDBRANCH  13  16
BRANCH  13  17
ATOM     17  O   UNL     1      38.749 -23.411 -15.975  0.00  0.00    -0.372 OA
ATOM     18  H   UNL     1      39.463 -22.895 -15.567  0.00  0.00    +0.211 HD
ENDBRANCH  13  17
ENDBRANCH   1  13
TORSDOF 8
ENDMDL
MODEL 9
REMARK VINA RESULT:      -6.4      2.114      4.791
REMARK  Name = 5289593
REMARK  8 active torsions:
REMARK  status: ('A' for Active; 'I' for Inactive)
REMARK    1  A    between atoms: C_1  and  O_2
REMARK    2  A    between atoms: C_1  and  C_4
REMARK    3  A    between atoms: C_1  and  C_13
REMARK    4  A    between atoms: C_4  and  C_7
REMARK    5  A    between atoms: C_4  and  O_11
REMARK    6  A    between atoms: N_6  and  O_9
REMARK    7  A    between atoms: C_13  and  C_16
REMARK    8  A    between atoms: C_13  and  O_17
REMARK                            x       y       z     vdW  Elec       q    Type
REMARK                         _______ _______ _______ _____ _____    ______ ____
ROOT
ATOM      1  C   UNL     1      36.299 -24.711 -13.984  0.00  0.00    +0.184 C 
ENDROOT
BRANCH   1   2
ATOM      2  O   UNL     1      35.007 -25.200 -13.620  0.00  0.00    -0.379 OA
ATOM      3  H   UNL     1      34.347 -24.503 -13.762  0.00  0.00    +0.211 HD
ENDBRANCH   1   2
BRANCH   1   4
ATOM      4  C   UNL     1      36.501 -23.342 -13.305  0.00  0.00    +0.219 C 
BRANCH   4   7
ATOM      5  O   UNL     1      37.802 -22.903 -11.314  0.00  0.00    -0.270 OA
ATOM      6  N   UNL     1      35.846 -24.109 -11.111  0.00  0.00    -0.195 N 
ATOM      7  C   UNL     1      36.807 -23.424 -11.812  0.00  0.00    +0.274 C 
ATOM      8  H   UNL     1      35.064 -24.511 -11.552  0.00  0.00    +0.182 HD
BRANCH   6   9
ATOM      9  O   UNL     1      36.047 -24.199  -9.727  0.00  0.00    -0.295 OA
ATOM     10  H   UNL     1      35.922 -25.118  -9.441  0.00  0.00    +0.241 HD
ENDBRANCH   6   9
ENDBRANCH   4   7
BRANCH   4  11
ATOM     11  O   UNL     1      37.549 -22.627 -13.942  0.00  0.00    -0.374 OA
ATOM     12  H   UNL     1      38.303 -22.550 -13.335  0.00  0.00    +0.211 HD
ENDBRANCH   4  11
ENDBRANCH   1   4
BRANCH   1  13
ATOM     13  C   UNL     1      37.359 -25.772 -13.645  0.00  0.00    +0.244 C 
BRANCH  13  16
ATOM     14  O   UNL     1      36.996 -26.916 -15.709  0.00  0.00    -0.243 OA
ATOM     15  O   UNL     1      39.071 -26.956 -14.761  0.00  0.00    -0.243 OA
ATOM     16  C   UNL     1      37.849 -26.632 -14.825  0.00  0.00    +0.394 C 
ENDBRANCH  13  16
BRANCH  13  17
ATOM     17  O   UNL     1      36.826 -26.682 -12.685  0.00  0.00    -0.372 OA
ATOM     18  H   UNL     1      35.974 -26.350 -12.363  0.00  0.00    +0.211 HD
ENDBRANCH  13  17
ENDBRANCH   1  13
TORSDOF 8
ENDMDL
