MODEL 1
REMARK VINA RESULT:      -7.6      0.000      0.000
REMARK  Name = 6926992
REMARK  5 active torsions:
REMARK  status: ('A' for Active; 'I' for Inactive)
REMARK    1  A    between atoms: C_1  and  C_3
REMARK    2  A    between atoms: C_1  and  CA_11
REMARK    3  A    between atoms: C_8  and  O_9
REMARK    4  A    between atoms: CA_11  and  N_12
REMARK    5  A    between atoms: CA_11  and  C_18
REMARK                            x       y       z     vdW  Elec       q    Type
REMARK                         _______ _______ _______ _____ _____    ______ ____
ROOT
ATOM      1  C   UNL     1      35.827 -18.549 -21.814  0.00  0.00    +0.016 C 
ENDROOT
BRANCH   1   3
ATOM      2  F   UNL     1      35.564 -22.360 -18.800  0.00  0.00    -0.201 F 
ATOM      3  C   UNL     1      35.020 -19.548 -21.017  0.00  0.00    -0.021 C 
ATOM      4  C   UNL     1      35.681 -20.506 -20.266  0.00  0.00    +0.028 C 
ATOM      5  C   UNL     1      33.637 -19.485 -21.054  0.00  0.00    -0.001 C 
ATOM      6  C   UNL     1      34.936 -21.428 -19.530  0.00  0.00    +0.173 C 
ATOM      7  C   UNL     1      32.893 -20.408 -20.319  0.00  0.00    +0.039 C 
ATOM      8  C   UNL     1      33.542 -21.379 -19.557  0.00  0.00    +0.161 C 
BRANCH   8   9
ATOM      9  O   UNL     1      32.814 -22.281 -18.842  0.00  0.00    -0.503 OA
ATOM     10  H   UNL     1      32.428 -22.030 -18.026  0.00  0.00    +0.292 HD
ENDBRANCH   8   9
ENDBRANCH   1   3
BRANCH   1  11
ATOM     11  CA  UNL     1      34.946 -17.590 -22.623  0.00  0.00    +0.045 C 
BRANCH  11  12
ATOM     12  N   UNL     1      35.424 -17.647 -24.042  0.00  0.00    +0.389 N 
ATOM     13  H1  UNL     1      34.701 -17.278 -24.659  0.00  0.00    -0.088 HD
ATOM     14  H2  UNL     1      35.625 -18.615 -24.294  0.00  0.00    -0.088 HD
ATOM     15  H3  UNL     1      36.271 -17.088 -24.137  0.00  0.00    -0.088 HD
ENDBRANCH  11  12
BRANCH  11  18
ATOM     16  O   UNL     1      34.988 -15.249 -22.932  0.00  0.00    -0.248 OA
ATOM     17  OXT UNL     1      34.992 -16.071 -20.799  0.00  0.00    -0.248 OA
ATOM     18  C   UNL     1      34.983 -16.162 -22.059  0.00  0.00    +0.345 C 
ENDBRANCH  11  18
ENDBRANCH   1  11
TORSDOF 5
ENDMDL
MODEL 2
REMARK VINA RESULT:      -7.3      2.021      2.317
REMARK  Name = 6926992
REMARK  5 active torsions:
REMARK  status: ('A' for Active; 'I' for Inactive)
REMARK    1  A    between atoms: C_1  and  C_3
REMARK    2  A    between atoms: C_1  and  CA_11
REMARK    3  A    between atoms: C_8  and  O_9
REMARK    4  A    between atoms: CA_11  and  N_12
REMARK    5  A    between atoms: CA_11  and  C_18
REMARK                            x       y       z     vdW  Elec       q    Type
REMARK                         _______ _______ _______ _____ _____    ______ ____
ROOT
ATOM      1  C   UNL     1      34.163 -18.211 -22.132  0.00  0.00    +0.016 C 
ENDROOT
BRANCH   1   3
ATOM      2  F   UNL     1      37.002 -21.437 -19.850  0.00  0.00    -0.201 F 
ATOM      3  C   UNL     1      34.338 -19.396 -21.211  0.00  0.00    -0.021 C 
ATOM      4  C   UNL     1      35.612 -19.873 -20.955  0.00  0.00    +0.028 C 
ATOM      5  C   UNL     1      33.219 -19.982 -20.642  0.00  0.00    -0.001 C 
ATOM      6  C   UNL     1      35.773 -20.967 -20.104  0.00  0.00    +0.173 C 
ATOM      7  C   UNL     1      33.380 -21.076 -19.792  0.00  0.00    +0.039 C 
ATOM      8  C   UNL     1      34.656 -21.569 -19.523  0.00  0.00    +0.161 C 
BRANCH   8   9
ATOM      9  O   UNL     1      34.812 -22.638 -18.695  0.00  0.00    -0.503 OA
ATOM     10  H   UNL     1      35.195 -22.524 -17.849  0.00  0.00    +0.292 HD
ENDBRANCH   8   9
ENDBRANCH   1   3
BRANCH   1  11
ATOM     11  CA  UNL     1      35.238 -18.149 -23.224  0.00  0.00    +0.045 C 
BRANCH  11  12
ATOM     12  N   UNL     1      35.664 -16.718 -23.339  0.00  0.00    +0.389 N 
ATOM     13  H1  UNL     1      36.309 -16.617 -24.123  0.00  0.00    -0.088 HD
ATOM     14  H2  UNL     1      36.128 -16.431 -22.477  0.00  0.00    -0.088 HD
ATOM     15  H3  UNL     1      34.845 -16.131 -23.496  0.00  0.00    -0.088 HD
ENDBRANCH  11  12
BRANCH  11  18
ATOM     16  O   UNL     1      34.278 -17.841 -25.360  0.00  0.00    -0.248 OA
ATOM     17  OXT UNL     1      34.835 -19.959 -24.707  0.00  0.00    -0.248 OA
ATOM     18  C   UNL     1      34.730 -18.709 -24.562  0.00  0.00    +0.345 C 
ENDBRANCH  11  18
ENDBRANCH   1  11
TORSDOF 5
ENDMDL
MODEL 3
REMARK VINA RESULT:      -7.2      3.366      5.700
REMARK  Name = 6926992
REMARK  5 active torsions:
REMARK  status: ('A' for Active; 'I' for Inactive)
REMARK    1  A    between atoms: C_1  and  C_3
REMARK    2  A    between atoms: C_1  and  CA_11
REMARK    3  A    between atoms: C_8  and  O_9
REMARK    4  A    between atoms: CA_11  and  N_12
REMARK    5  A    between atoms: CA_11  and  C_18
REMARK                            x       y       z     vdW  Elec       q    Type
REMARK                         _______ _______ _______ _____ _____    ______ ____
ROOT
ATOM      1  C   UNL     1      35.644 -19.120 -21.009  0.00  0.00    +0.016 C 
ENDROOT
BRANCH   1   3
ATOM      2  F   UNL     1      34.922 -15.148 -23.725  0.00  0.00    -0.201 F 
ATOM      3  C   UNL     1      35.279 -18.468 -22.323  0.00  0.00    -0.021 C 
ATOM      4  C   UNL     1      35.271 -17.086 -22.414  0.00  0.00    +0.028 C 
ATOM      5  C   UNL     1      34.960 -19.265 -23.409  0.00  0.00    -0.001 C 
ATOM      6  C   UNL     1      34.933 -16.484 -23.626  0.00  0.00    +0.173 C 
ATOM      7  C   UNL     1      34.622 -18.663 -24.621  0.00  0.00    +0.039 C 
ATOM      8  C   UNL     1      34.609 -17.273 -24.730  0.00  0.00    +0.161 C 
BRANCH   8   9
ATOM      9  O   UNL     1      34.277 -16.687 -25.913  0.00  0.00    -0.503 OA
ATOM     10  H   UNL     1      34.297 -17.186 -26.706  0.00  0.00    +0.292 HD
ENDBRANCH   8   9
ENDBRANCH   1   3
BRANCH   1  11
ATOM     11  CA  UNL     1      34.880 -20.427 -20.766  0.00  0.00    +0.045 C 
BRANCH  11  12
ATOM     12  N   UNL     1      33.482 -20.052 -20.381  0.00  0.00    +0.389 N 
ATOM     13  H1  UNL     1      33.268 -20.437 -19.460  0.00  0.00    -0.088 HD
ATOM     14  H2  UNL     1      32.827 -20.428 -21.067  0.00  0.00    -0.088 HD
ATOM     15  H3  UNL     1      33.398 -19.036 -20.352  0.00  0.00    -0.088 HD
ENDBRANCH  11  12
BRANCH  11  18
ATOM     16  O   UNL     1      36.469 -20.719 -19.044  0.00  0.00    -0.248 OA
ATOM     17  OXT UNL     1      35.121 -22.480 -19.598  0.00  0.00    -0.248 OA
ATOM     18  C   UNL     1      35.558 -21.299 -19.699  0.00  0.00    +0.345 C 
ENDBRANCH  11  18
ENDBRANCH   1  11
TORSDOF 5
ENDMDL
MODEL 4
REMARK VINA RESULT:      -7.1      1.189      1.805
REMARK  Name = 6926992
REMARK  5 active torsions:
REMARK  status: ('A' for Active; 'I' for Inactive)
REMARK    1  A    between atoms: C_1  and  C_3
REMARK    2  A    between atoms: C_1  and  CA_11
REMARK    3  A    between atoms: C_8  and  O_9
REMARK    4  A    between atoms: CA_11  and  N_12
REMARK    5  A    between atoms: CA_11  and  C_18
REMARK                            x       y       z     vdW  Elec       q    Type
REMARK                         _______ _______ _______ _____ _____    ______ ____
ROOT
ATOM      1  C   UNL     1      36.034 -18.361 -21.821  0.00  0.00    +0.016 C 
ENDROOT
BRANCH   1   3
ATOM      2  F   UNL     1      32.730 -21.250 -19.721  0.00  0.00    -0.201 F 
ATOM      3  C   UNL     1      35.678 -19.525 -20.927  0.00  0.00    -0.021 C 
ATOM      4  C   UNL     1      34.345 -19.851 -20.737  0.00  0.00    +0.028 C 
ATOM      5  C   UNL     1      36.691 -20.244 -20.314  0.00  0.00    -0.001 C 
ATOM      6  C   UNL     1      34.016 -20.926 -19.911  0.00  0.00    +0.173 C 
ATOM      7  C   UNL     1      36.362 -21.318 -19.487  0.00  0.00    +0.039 C 
ATOM      8  C   UNL     1      35.025 -21.660 -19.286  0.00  0.00    +0.161 C 
BRANCH   8   9
ATOM      9  O   UNL     1      34.705 -22.708 -18.478  0.00  0.00    -0.503 OA
ATOM     10  H   UNL     1      34.998 -22.720 -17.588  0.00  0.00    +0.292 HD
ENDBRANCH   8   9
ENDBRANCH   1   3
BRANCH   1  11
ATOM     11  CA  UNL     1      34.807 -17.544 -22.243  0.00  0.00    +0.045 C 
BRANCH  11  12
ATOM     12  N   UNL     1      34.720 -17.624 -23.736  0.00  0.00    +0.389 N 
ATOM     13  H1  UNL     1      34.481 -18.577 -24.012  0.00  0.00    -0.088 HD
ATOM     14  H2  UNL     1      35.619 -17.367 -24.143  0.00  0.00    -0.088 HD
ATOM     15  H3  UNL     1      33.999 -16.983 -24.068  0.00  0.00    -0.088 HD
ENDBRANCH  11  12
BRANCH  11  18
ATOM     16  O   UNL     1      34.950 -15.224 -22.662  0.00  0.00    -0.248 OA
ATOM     17  OXT UNL     1      34.866 -15.940 -20.493  0.00  0.00    -0.248 OA
ATOM     18  C   UNL     1      34.886 -16.092 -21.747  0.00  0.00    +0.345 C 
ENDBRANCH  11  18
ENDBRANCH   1  11
TORSDOF 5
ENDMDL
MODEL 5
REMARK VINA RESULT:      -7.1      2.632      5.571
REMARK  Name = 6926992
REMARK  5 active torsions:
REMARK  status: ('A' for Active; 'I' for Inactive)
REMARK    1  A    between atoms: C_1  and  C_3
REMARK    2  A    between atoms: C_1  and  CA_11
REMARK    3  A    between atoms: C_8  and  O_9
REMARK    4  A    between atoms: CA_11  and  N_12
REMARK    5  A    between atoms: CA_11  and  C_18
REMARK                            x       y       z     vdW  Elec       q    Type
REMARK                         _______ _______ _______ _____ _____    ______ ____
ROOT
ATOM      1  C   UNL     1      33.623 -20.342 -20.854  0.00  0.00    +0.016 C 
ENDROOT
BRANCH   1   3
ATOM      2  F   UNL     1      34.969 -15.673 -21.091  0.00  0.00    -0.201 F 
ATOM      3  C   UNL     1      34.190 -19.170 -21.621  0.00  0.00    -0.021 C 
ATOM      4  C   UNL     1      34.318 -17.945 -20.987  0.00  0.00    +0.028 C 
ATOM      5  C   UNL     1      34.569 -19.343 -22.941  0.00  0.00    -0.001 C 
ATOM      6  C   UNL     1      34.841 -16.862 -21.694  0.00  0.00    +0.173 C 
ATOM      7  C   UNL     1      35.091 -18.260 -23.649  0.00  0.00    +0.039 C 
ATOM      8  C   UNL     1      35.228 -17.020 -23.026  0.00  0.00    +0.161 C 
BRANCH   8   9
ATOM      9  O   UNL     1      35.736 -15.963 -23.718  0.00  0.00    -0.503 OA
ATOM     10  H   UNL     1      35.499 -15.089 -23.480  0.00  0.00    +0.292 HD
ENDBRANCH   8   9
ENDBRANCH   1   3
BRANCH   1  11
ATOM     11  CA  UNL     1      34.564 -20.837 -19.750  0.00  0.00    +0.045 C 
BRANCH  11  12
ATOM     12  N   UNL     1      35.880 -21.141 -20.399  0.00  0.00    +0.389 N 
ATOM     13  H1  UNL     1      36.608 -21.183 -19.687  0.00  0.00    -0.088 HD
ATOM     14  H2  UNL     1      36.104 -20.407 -21.072  0.00  0.00    -0.088 HD
ATOM     15  H3  UNL     1      35.821 -22.038 -20.880  0.00  0.00    -0.088 HD
ENDBRANCH  11  12
BRANCH  11  18
ATOM     16  O   UNL     1      32.733 -22.152 -19.048  0.00  0.00    -0.248 OA
ATOM     17  OXT UNL     1      34.841 -22.814 -18.465  0.00  0.00    -0.248 OA
ATOM     18  C   UNL     1      33.991 -22.055 -19.010  0.00  0.00    +0.345 C 
ENDBRANCH  11  18
ENDBRANCH   1  11
TORSDOF 5
ENDMDL
MODEL 6
REMARK VINA RESULT:      -6.9      3.112      5.511
REMARK  Name = 6926992
REMARK  5 active torsions:
REMARK  status: ('A' for Active; 'I' for Inactive)
REMARK    1  A    between atoms: C_1  and  C_3
REMARK    2  A    between atoms: C_1  and  CA_11
REMARK    3  A    between atoms: C_8  and  O_9
REMARK    4  A    between atoms: CA_11  and  N_12
REMARK    5  A    between atoms: CA_11  and  C_18
REMARK                            x       y       z     vdW  Elec       q    Type
REMARK                         _______ _______ _______ _____ _____    ______ ____
ROOT
ATOM      1  C   UNL     1      34.530 -18.992 -20.624  0.00  0.00    +0.016 C 
ENDROOT
BRANCH   1   3
ATOM      2  F   UNL     1      34.588 -19.603 -25.451  0.00  0.00    -0.201 F 
ATOM      3  C   UNL     1      34.634 -18.432 -22.024  0.00  0.00    -0.021 C 
ATOM      4  C   UNL     1      34.561 -19.295 -23.105  0.00  0.00    +0.028 C 
ATOM      5  C   UNL     1      34.801 -17.068 -22.198  0.00  0.00    -0.001 C 
ATOM      6  C   UNL     1      34.658 -18.778 -24.398  0.00  0.00    +0.173 C 
ATOM      7  C   UNL     1      34.898 -16.552 -23.490  0.00  0.00    +0.039 C 
ATOM      8  C   UNL     1      34.827 -17.406 -24.590  0.00  0.00    +0.161 C 
BRANCH   8   9
ATOM      9  O   UNL     1      34.924 -16.901 -25.851  0.00  0.00    -0.503 OA
ATOM     10  H   UNL     1      35.704 -17.035 -26.350  0.00  0.00    +0.292 HD
ENDBRANCH   8   9
ENDBRANCH   1   3
BRANCH   1  11
ATOM     11  CA  UNL     1      34.332 -20.512 -20.609  0.00  0.00    +0.045 C 
BRANCH  11  12
ATOM     12  N   UNL     1      32.947 -20.769 -20.100  0.00  0.00    +0.389 N 
ATOM     13  H1  UNL     1      32.848 -20.366 -19.167  0.00  0.00    -0.088 HD
ATOM     14  H2  UNL     1      32.783 -21.775 -20.055  0.00  0.00    -0.088 HD
ATOM     15  H3  UNL     1      32.269 -20.341 -20.729  0.00  0.00    -0.088 HD
ENDBRANCH  11  12
BRANCH  11  18
ATOM     16  O   UNL     1      35.146 -22.430 -19.497  0.00  0.00    -0.248 OA
ATOM     17  OXT UNL     1      36.401 -20.520 -19.444  0.00  0.00    -0.248 OA
ATOM     18  C   UNL     1      35.400 -21.221 -19.762  0.00  0.00    +0.345 C 
ENDBRANCH  11  18
ENDBRANCH   1  11
TORSDOF 5
ENDMDL
MODEL 7
REMARK VINA RESULT:      -6.9      2.704      5.433
REMARK  Name = 6926992
REMARK  5 active torsions:
REMARK  status: ('A' for Active; 'I' for Inactive)
REMARK    1  A    between atoms: C_1  and  C_3
REMARK    2  A    between atoms: C_1  and  CA_11
REMARK    3  A    between atoms: C_8  and  O_9
REMARK    4  A    between atoms: CA_11  and  N_12
REMARK    5  A    between atoms: CA_11  and  C_18
REMARK                            x       y       z     vdW  Elec       q    Type
REMARK                         _______ _______ _______ _____ _____    ______ ____
ROOT
ATOM      1  C   UNL     1      34.965 -20.102 -21.751  0.00  0.00    +0.016 C 
ENDROOT
BRANCH   1   3
ATOM      2  F   UNL     1      34.825 -15.399 -20.514  0.00  0.00    -0.201 F 
ATOM      3  C   UNL     1      34.923 -18.640 -22.127  0.00  0.00    -0.021 C 
ATOM      4  C   UNL     1      34.894 -17.683 -21.126  0.00  0.00    +0.028 C 
ATOM      5  C   UNL     1      34.914 -18.284 -23.466  0.00  0.00    -0.001 C 
ATOM      6  C   UNL     1      34.854 -16.332 -21.474  0.00  0.00    +0.173 C 
ATOM      7  C   UNL     1      34.873 -16.934 -23.814  0.00  0.00    +0.039 C 
ATOM      8  C   UNL     1      34.844 -15.958 -22.818  0.00  0.00    +0.161 C 
BRANCH   8   9
ATOM      9  O   UNL     1      34.802 -14.641 -23.159  0.00  0.00    -0.503 OA
ATOM     10  H   UNL     1      35.415 -14.040 -22.783  0.00  0.00    +0.292 HD
ENDBRANCH   8   9
ENDBRANCH   1   3
BRANCH   1  11
ATOM     11  CA  UNL     1      34.666 -20.339 -20.266  0.00  0.00    +0.045 C 
BRANCH  11  12
ATOM     12  N   UNL     1      35.695 -21.302 -19.760  0.00  0.00    +0.389 N 
ATOM     13  H1  UNL     1      35.658 -21.333 -18.741  0.00  0.00    -0.088 HD
ATOM     14  H2  UNL     1      36.622 -20.997 -20.058  0.00  0.00    -0.088 HD
ATOM     15  H3  UNL     1      35.505 -22.230 -20.136  0.00  0.00    -0.088 HD
ENDBRANCH  11  12
BRANCH  11  18
ATOM     16  O   UNL     1      33.155 -22.076 -19.739  0.00  0.00    -0.248 OA
ATOM     17  OXT UNL     1      32.318 -19.995 -20.179  0.00  0.00    -0.248 OA
ATOM     18  C   UNL     1      33.235 -20.853 -20.043  0.00  0.00    +0.345 C 
ENDBRANCH  11  18
ENDBRANCH   1  11
TORSDOF 5
ENDMDL
MODEL 8
REMARK VINA RESULT:      -6.8      2.757      5.694
REMARK  Name = 6926992
REMARK  5 active torsions:
REMARK  status: ('A' for Active; 'I' for Inactive)
REMARK    1  A    between atoms: C_1  and  C_3
REMARK    2  A    between atoms: C_1  and  CA_11
REMARK    3  A    between atoms: C_8  and  O_9
REMARK    4  A    between atoms: CA_11  and  N_12
REMARK    5  A    between atoms: CA_11  and  C_18
REMARK                            x       y       z     vdW  Elec       q    Type
REMARK                         _______ _______ _______ _____ _____    ______ ____
ROOT
ATOM      1  C   UNL     1      33.201 -21.353 -19.417  0.00  0.00    +0.016 C 
ENDROOT
BRANCH   1   3
ATOM      2  F   UNL     1      37.587 -19.652 -20.659  0.00  0.00    -0.201 F 
ATOM      3  C   UNL     1      34.078 -20.459 -20.262  0.00  0.00    -0.021 C 
ATOM      4  C   UNL     1      35.449 -20.473 -20.063  0.00  0.00    +0.028 C 
ATOM      5  C   UNL     1      33.495 -19.643 -21.217  0.00  0.00    -0.001 C 
ATOM      6  C   UNL     1      36.259 -19.647 -20.843  0.00  0.00    +0.173 C 
ATOM      7  C   UNL     1      34.305 -18.817 -21.995  0.00  0.00    +0.039 C 
ATOM      8  C   UNL     1      35.687 -18.818 -21.809  0.00  0.00    +0.161 C 
BRANCH   8   9
ATOM      9  O   UNL     1      36.476 -18.010 -22.568  0.00  0.00    -0.503 OA
ATOM     10  H   UNL     1      36.831 -18.325 -23.375  0.00  0.00    +0.292 HD
ENDBRANCH   8   9
ENDBRANCH   1   3
BRANCH   1  11
ATOM     11  CA  UNL     1      33.955 -22.567 -18.862  0.00  0.00    +0.045 C 
BRANCH  11  12
ATOM     12  N   UNL     1      33.931 -23.622 -19.925  0.00  0.00    +0.389 N 
ATOM     13  H1  UNL     1      33.037 -24.114 -19.896  0.00  0.00    -0.088 HD
ATOM     14  H2  UNL     1      34.689 -24.285 -19.764  0.00  0.00    -0.088 HD
ATOM     15  H3  UNL     1      34.049 -23.186 -20.839  0.00  0.00    -0.088 HD
ENDBRANCH  11  12
BRANCH  11  18
ATOM     16  O   UNL     1      34.156 -23.679 -16.788  0.00  0.00    -0.248 OA
ATOM     17  OXT UNL     1      32.127 -22.795 -17.363  0.00  0.00    -0.248 OA
ATOM     18  C   UNL     1      33.349 -23.065 -17.542  0.00  0.00    +0.345 C 
ENDBRANCH  11  18
ENDBRANCH   1  11
TORSDOF 5
ENDMDL
MODEL 9
REMARK VINA RESULT:      -6.8      3.874      5.989
REMARK  Name = 6926992
REMARK  5 active torsions:
REMARK  status: ('A' for Active; 'I' for Inactive)
REMARK    1  A    between atoms: C_1  and  C_3
REMARK    2  A    between atoms: C_1  and  CA_11
REMARK    3  A    between atoms: C_8  and  O_9
REMARK    4  A    between atoms: CA_11  and  N_12
REMARK    5  A    between atoms: CA_11  and  C_18
REMARK                            x       y       z     vdW  Elec       q    Type
REMARK                         _______ _______ _______ _____ _____    ______ ____
ROOT
ATOM      1  C   UNL     1      35.294 -17.492 -21.477  0.00  0.00    +0.016 C 
ENDROOT
BRANCH   1   3
ATOM      2  F   UNL     1      33.209 -14.091 -24.262  0.00  0.00    -0.201 F 
ATOM      3  C   UNL     1      34.830 -16.993 -22.825  0.00  0.00    -0.021 C 
ATOM      4  C   UNL     1      34.225 -15.751 -22.917  0.00  0.00    +0.028 C 
ATOM      5  C   UNL     1      35.019 -17.789 -23.944  0.00  0.00    -0.001 C 
ATOM      6  C   UNL     1      33.796 -15.291 -24.162  0.00  0.00    +0.173 C 
ATOM      7  C   UNL     1      34.590 -17.329 -25.188  0.00  0.00    +0.039 C 
ATOM      8  C   UNL     1      33.979 -16.080 -25.298  0.00  0.00    +0.161 C 
BRANCH   8   9
ATOM      9  O   UNL     1      33.558 -15.634 -26.514  0.00  0.00    -0.503 OA
ATOM     10  H   UNL     1      32.983 -16.159 -27.033  0.00  0.00    +0.292 HD
ENDBRANCH   8   9
ENDBRANCH   1   3
BRANCH   1  11
ATOM     11  CA  UNL     1      35.423 -19.018 -21.424  0.00  0.00    +0.045 C 
BRANCH  11  12
ATOM     12  N   UNL     1      34.183 -19.541 -20.768  0.00  0.00    +0.389 N 
ATOM     13  H1  UNL     1      33.764 -20.260 -21.358  0.00  0.00    -0.088 HD
ATOM     14  H2  UNL     1      33.519 -18.777 -20.639  0.00  0.00    -0.088 HD
ATOM     15  H3  UNL     1      34.421 -19.941 -19.861  0.00  0.00    -0.088 HD
ENDBRANCH  11  12
BRANCH  11  18
ATOM     16  O   UNL     1      37.776 -19.129 -21.250  0.00  0.00    -0.248 OA
ATOM     17  OXT UNL     1      36.512 -20.093 -19.608  0.00  0.00    -0.248 OA
ATOM     18  C   UNL     1      36.696 -19.462 -20.687  0.00  0.00    +0.345 C 
ENDBRANCH  11  18
ENDBRANCH   1  11
TORSDOF 5
ENDMDL
