MODEL 1
REMARK VINA RESULT:     -11.0      0.000      0.000
REMARK  Name = 4640
REMARK  6 active torsions:
REMARK  status: ('A' for Active; 'I' for Inactive)
REMARK    1  A    between atoms: C_1  and  C_3
REMARK    2  A    between atoms: C_1  and  C_17
REMARK    3  A    between atoms: C_10  and  O_13
REMARK    4  A    between atoms: C_11  and  O_15
REMARK    5  A    between atoms: C_17  and  N_18
REMARK    6  A    between atoms: N_19  and  C_25
REMARK                            x       y       z     vdW  Elec       q    Type
REMARK                         _______ _______ _______ _____ _____    ______ ____
ROOT
ATOM      1  C   UNL     1      33.548 -22.782 -18.138  0.00  0.00    +0.005 C 
ENDROOT
BRANCH   1   3
ATOM      2  N   UNL     1      32.533 -23.584 -14.721  0.00  0.00    -0.357 N 
ATOM      3  C   UNL     1      33.409 -23.124 -16.684  0.00  0.00    -0.011 A 
ATOM      4  C   UNL     1      34.477 -23.337 -15.787  0.00  0.00    +0.016 A 
ATOM      5  C   UNL     1      32.229 -23.277 -16.020  0.00  0.00    +0.030 A 
ATOM      6  C   UNL     1      33.898 -23.627 -14.550  0.00  0.00    +0.059 A 
ATOM      7  C   UNL     1      35.881 -23.317 -15.892  0.00  0.00    +0.041 C 
ATOM      8  C   UNL     1      30.827 -23.169 -16.467  0.00  0.00    +0.049 C 
ATOM      9  C   UNL     1      34.657 -23.898 -13.406  0.00  0.00    +0.057 C 
ATOM     10  C   UNL     1      36.654 -23.586 -14.756  0.00  0.00    +0.172 C 
ATOM     11  C   UNL     1      36.049 -23.872 -13.534  0.00  0.00    +0.174 C 
ATOM     12  H   UNL     1      31.871 -23.749 -14.011  0.00  0.00    +0.166 HD
BRANCH  10  13
ATOM     13  O   UNL     1      38.014 -23.565 -14.862  0.00  0.00    -0.468 OA
ATOM     14  C   UNL     1      38.676 -24.825 -14.925  0.00  0.00    +0.253 C 
ENDBRANCH  10  13
BRANCH  11  15
ATOM     15  O   UNL     1      36.815 -24.134 -12.434  0.00  0.00    -0.468 OA
ATOM     16  C   UNL     1      37.083 -23.042 -11.558  0.00  0.00    +0.253 C 
ENDBRANCH  11  15
ENDBRANCH   1   3
BRANCH   1  17
ATOM     17  C   UNL     1      34.953 -22.281 -18.481  0.00  0.00    -0.072 C 
BRANCH  17  18
ATOM     18  N   UNL     1      34.895 -21.037 -19.247  0.00  0.00    +0.389 N 
ATOM     19  N   UNL     1      34.823 -19.428 -21.607  0.00  0.00    -0.312 N 
ATOM     20  C   UNL     1      33.694 -21.006 -20.089  0.00  0.00    -0.055 C 
ATOM     21  C   UNL     1      36.094 -20.890 -20.083  0.00  0.00    -0.055 C 
ATOM     22  C   UNL     1      33.592 -19.683 -20.854  0.00  0.00    +0.068 C 
ATOM     23  C   UNL     1      36.072 -19.564 -20.847  0.00  0.00    +0.068 C 
ATOM     24  H   UNL     1      34.857 -20.259 -18.588  0.00  0.00    -0.080 HD
BRANCH  19  25
ATOM     25  C   UNL     1      34.805 -18.539 -22.688  0.00  0.00    +0.048 C 
ATOM     26  C   UNL     1      34.997 -17.157 -22.493  0.00  0.00    +0.015 C 
ATOM     27  C   UNL     1      34.593 -18.999 -24.002  0.00  0.00    +0.015 C 
ATOM     28  C   UNL     1      34.979 -16.270 -23.570  0.00  0.00    +0.001 C 
ATOM     29  C   UNL     1      34.575 -18.113 -25.080  0.00  0.00    +0.001 C 
ATOM     30  C   UNL     1      34.768 -16.749 -24.863  0.00  0.00    +0.000 C 
ENDBRANCH  19  25
ENDBRANCH  17  18
ENDBRANCH   1  17
TORSDOF 6
ENDMDL
MODEL 2
REMARK VINA RESULT:     -11.0      6.994     12.688
REMARK  Name = 4640
REMARK  6 active torsions:
REMARK  status: ('A' for Active; 'I' for Inactive)
REMARK    1  A    between atoms: C_1  and  C_3
REMARK    2  A    between atoms: C_1  and  C_17
REMARK    3  A    between atoms: C_10  and  O_13
REMARK    4  A    between atoms: C_11  and  O_15
REMARK    5  A    between atoms: C_17  and  N_18
REMARK    6  A    between atoms: N_19  and  C_25
REMARK                            x       y       z     vdW  Elec       q    Type
REMARK                         _______ _______ _______ _____ _____    ______ ____
ROOT
ATOM      1  C   UNL     1      33.797 -12.605 -24.882  0.00  0.00    +0.005 C 
ENDROOT
BRANCH   1   3
ATOM      2  N   UNL     1      34.662  -9.083 -24.444  0.00  0.00    -0.357 N 
ATOM      3  C   UNL     1      33.965 -11.167 -24.489  0.00  0.00    -0.011 A 
ATOM      4  C   UNL     1      33.284 -10.521 -23.437  0.00  0.00    +0.016 A 
ATOM      5  C   UNL     1      34.803 -10.278 -25.094  0.00  0.00    +0.030 A 
ATOM      6  C   UNL     1      33.740  -9.201 -23.427  0.00  0.00    +0.059 A 
ATOM      7  C   UNL     1      32.322 -10.913 -22.487  0.00  0.00    +0.041 C 
ATOM      8  C   UNL     1      35.734 -10.421 -26.230  0.00  0.00    +0.049 C 
ATOM      9  C   UNL     1      33.282  -8.250 -22.509  0.00  0.00    +0.057 C 
ATOM     10  C   UNL     1      31.854  -9.973 -21.562  0.00  0.00    +0.172 C 
ATOM     11  C   UNL     1      32.327  -8.663 -21.575  0.00  0.00    +0.174 C 
ATOM     12  H   UNL     1      35.149  -8.258 -24.670  0.00  0.00    +0.166 HD
BRANCH  10  13
ATOM     13  O   UNL     1      30.922 -10.359 -20.642  0.00  0.00    -0.468 OA
ATOM     14  C   UNL     1      31.386 -11.128 -19.536  0.00  0.00    +0.253 C 
ENDBRANCH  10  13
BRANCH  11  15
ATOM     15  O   UNL     1      31.861  -7.756 -20.667  0.00  0.00    -0.468 OA
ATOM     16  C   UNL     1      31.943  -6.380 -21.027  0.00  0.00    +0.253 C 
ENDBRANCH  11  15
ENDBRANCH   1   3
BRANCH   1  17
ATOM     17  C   UNL     1      32.997 -13.397 -23.844  0.00  0.00    -0.072 C 
BRANCH  17  18
ATOM     18  N   UNL     1      33.821 -14.432 -23.222  0.00  0.00    +0.389 N 
ATOM     19  N   UNL     1      34.362 -16.987 -22.065  0.00  0.00    -0.312 N 
ATOM     20  C   UNL     1      33.853 -15.637 -24.061  0.00  0.00    -0.055 C 
ATOM     21  C   UNL     1      33.306 -14.768 -21.888  0.00  0.00    -0.055 C 
ATOM     22  C   UNL     1      34.758 -16.709 -23.448  0.00  0.00    +0.068 C 
ATOM     23  C   UNL     1      34.193 -15.810 -21.203  0.00  0.00    +0.068 C 
ATOM     24  H   UNL     1      34.769 -14.070 -23.128  0.00  0.00    -0.080 HD
BRANCH  19  25
ATOM     25  C   UNL     1      34.742 -18.193 -21.463  0.00  0.00    +0.048 C 
ATOM     26  C   UNL     1      33.778 -19.144 -21.074  0.00  0.00    +0.015 C 
ATOM     27  C   UNL     1      36.098 -18.490 -21.227  0.00  0.00    +0.015 C 
ATOM     28  C   UNL     1      34.155 -20.346 -20.475  0.00  0.00    +0.001 C 
ATOM     29  C   UNL     1      36.477 -19.692 -20.628  0.00  0.00    +0.001 C 
ATOM     30  C   UNL     1      35.505 -20.620 -20.252  0.00  0.00    +0.000 C 
ENDBRANCH  19  25
ENDBRANCH  17  18
ENDBRANCH   1  17
TORSDOF 6
ENDMDL
MODEL 3
REMARK VINA RESULT:     -10.7      6.574     12.057
REMARK  Name = 4640
REMARK  6 active torsions:
REMARK  status: ('A' for Active; 'I' for Inactive)
REMARK    1  A    between atoms: C_1  and  C_3
REMARK    2  A    between atoms: C_1  and  C_17
REMARK    3  A    between atoms: C_10  and  O_13
REMARK    4  A    between atoms: C_11  and  O_15
REMARK    5  A    between atoms: C_17  and  N_18
REMARK    6  A    between atoms: N_19  and  C_25
REMARK                            x       y       z     vdW  Elec       q    Type
REMARK                         _______ _______ _______ _____ _____    ______ ____
ROOT
ATOM      1  C   UNL     1      32.979 -13.716 -24.026  0.00  0.00    +0.005 C 
ENDROOT
BRANCH   1   3
ATOM      2  N   UNL     1      33.744 -10.165 -24.423  0.00  0.00    -0.357 N 
ATOM      3  C   UNL     1      33.146 -12.227 -23.949  0.00  0.00    -0.011 A 
ATOM      4  C   UNL     1      32.624 -11.396 -22.936  0.00  0.00    +0.016 A 
ATOM      5  C   UNL     1      33.827 -11.463 -24.849  0.00  0.00    +0.030 A 
ATOM      6  C   UNL     1      33.015 -10.094 -23.257  0.00  0.00    +0.059 A 
ATOM      7  C   UNL     1      31.856 -11.607 -21.775  0.00  0.00    +0.041 C 
ATOM      8  C   UNL     1      34.558 -11.813 -26.083  0.00  0.00    +0.049 C 
ATOM      9  C   UNL     1      32.676  -8.988 -22.470  0.00  0.00    +0.057 C 
ATOM     10  C   UNL     1      31.509 -10.511 -20.978  0.00  0.00    +0.172 C 
ATOM     11  C   UNL     1      31.913  -9.222 -21.322  0.00  0.00    +0.174 C 
ATOM     12  H   UNL     1      34.148  -9.394 -24.883  0.00  0.00    +0.166 HD
BRANCH  10  13
ATOM     13  O   UNL     1      30.765 -10.721 -19.853  0.00  0.00    -0.468 OA
ATOM     14  C   UNL     1      31.478 -10.916 -18.635  0.00  0.00    +0.253 C 
ENDBRANCH  10  13
BRANCH  11  15
ATOM     15  O   UNL     1      31.567  -8.162 -20.535  0.00  0.00    -0.468 OA
ATOM     16  C   UNL     1      32.609  -7.264 -20.164  0.00  0.00    +0.253 C 
ENDBRANCH  11  15
ENDBRANCH   1   3
BRANCH   1  17
ATOM     17  C   UNL     1      34.266 -14.460 -23.660  0.00  0.00    -0.072 C 
BRANCH  17  18
ATOM     18  N   UNL     1      33.970 -15.777 -23.097  0.00  0.00    +0.389 N 
ATOM     19  N   UNL     1      34.491 -18.140 -21.578  0.00  0.00    -0.312 N 
ATOM     20  C   UNL     1      33.998 -15.727 -21.630  0.00  0.00    -0.055 C 
ATOM     21  C   UNL     1      34.935 -16.772 -23.580  0.00  0.00    -0.055 C 
ATOM     22  C   UNL     1      33.635 -17.086 -21.026  0.00  0.00    +0.068 C 
ATOM     23  C   UNL     1      34.602 -18.166 -23.042  0.00  0.00    +0.068 C 
ATOM     24  H   UNL     1      33.035 -16.050 -23.399  0.00  0.00    -0.080 HD
BRANCH  19  25
ATOM     25  C   UNL     1      34.641 -19.347 -20.886  0.00  0.00    +0.048 C 
ATOM     26  C   UNL     1      33.518 -20.069 -20.436  0.00  0.00    +0.015 C 
ATOM     27  C   UNL     1      35.919 -19.876 -20.617  0.00  0.00    +0.015 C 
ATOM     28  C   UNL     1      33.667 -21.273 -19.746  0.00  0.00    +0.001 C 
ATOM     29  C   UNL     1      36.068 -21.079 -19.928  0.00  0.00    +0.001 C 
ATOM     30  C   UNL     1      34.942 -21.777 -19.492  0.00  0.00    +0.000 C 
ENDBRANCH  19  25
ENDBRANCH  17  18
ENDBRANCH   1  17
TORSDOF 6
ENDMDL
MODEL 4
REMARK VINA RESULT:     -10.5      2.421      4.117
REMARK  Name = 4640
REMARK  6 active torsions:
REMARK  status: ('A' for Active; 'I' for Inactive)
REMARK    1  A    between atoms: C_1  and  C_3
REMARK    2  A    between atoms: C_1  and  C_17
REMARK    3  A    between atoms: C_10  and  O_13
REMARK    4  A    between atoms: C_11  and  O_15
REMARK    5  A    between atoms: C_17  and  N_18
REMARK    6  A    between atoms: N_19  and  C_25
REMARK                            x       y       z     vdW  Elec       q    Type
REMARK                         _______ _______ _______ _____ _____    ______ ____
ROOT
ATOM      1  C   UNL     1      35.298 -22.514 -16.923  0.00  0.00    +0.005 C 
ENDROOT
BRANCH   1   3
ATOM      2  N   UNL     1      34.540 -25.004 -14.359  0.00  0.00    -0.357 N 
ATOM      3  C   UNL     1      34.720 -23.446 -15.899  0.00  0.00    -0.011 A 
ATOM      4  C   UNL     1      33.360 -23.518 -15.532  0.00  0.00    +0.016 A 
ATOM      5  C   UNL     1      35.428 -24.358 -15.176  0.00  0.00    +0.030 A 
ATOM      6  C   UNL     1      33.270 -24.511 -14.555  0.00  0.00    +0.059 A 
ATOM      7  C   UNL     1      32.188 -22.842 -15.924  0.00  0.00    +0.041 C 
ATOM      8  C   UNL     1      36.864 -24.701 -15.160  0.00  0.00    +0.049 C 
ATOM      9  C   UNL     1      32.060 -24.866 -13.949  0.00  0.00    +0.057 C 
ATOM     10  C   UNL     1      30.970 -23.186 -15.326  0.00  0.00    +0.172 C 
ATOM     11  C   UNL     1      30.910 -24.183 -14.354  0.00  0.00    +0.174 C 
ATOM     12  H   UNL     1      34.776 -25.718 -13.724  0.00  0.00    +0.166 HD
BRANCH  10  13
ATOM     13  O   UNL     1      29.838 -22.529 -15.709  0.00  0.00    -0.468 OA
ATOM     14  C   UNL     1      29.163 -23.024 -16.863  0.00  0.00    +0.253 C 
ENDBRANCH  10  13
BRANCH  11  15
ATOM     15  O   UNL     1      29.715 -24.507 -13.778  0.00  0.00    -0.468 OA
ATOM     16  C   UNL     1      28.979 -25.573 -14.372  0.00  0.00    +0.253 C 
ENDBRANCH  11  15
ENDBRANCH   1   3
BRANCH   1  17
ATOM     17  C   UNL     1      34.621 -22.664 -18.287  0.00  0.00    -0.072 C 
BRANCH  17  18
ATOM     18  N   UNL     1      34.662 -21.409 -19.036  0.00  0.00    +0.389 N 
ATOM     19  N   UNL     1      34.697 -19.768 -21.375  0.00  0.00    -0.312 N 
ATOM     20  C   UNL     1      33.455 -21.262 -19.859  0.00  0.00    -0.055 C 
ATOM     21  C   UNL     1      35.856 -21.356 -19.889  0.00  0.00    -0.055 C 
ATOM     22  C   UNL     1      33.459 -19.925 -20.606  0.00  0.00    +0.068 C 
ATOM     23  C   UNL     1      35.940 -20.023 -20.636  0.00  0.00    +0.068 C 
ATOM     24  H   UNL     1      34.700 -20.640 -18.367  0.00  0.00    -0.080 HD
BRANCH  19  25
ATOM     25  C   UNL     1      34.741 -18.866 -22.444  0.00  0.00    +0.048 C 
ATOM     26  C   UNL     1      34.560 -19.304 -23.771  0.00  0.00    +0.015 C 
ATOM     27  C   UNL     1      34.968 -17.493 -22.225  0.00  0.00    +0.015 C 
ATOM     28  C   UNL     1      34.604 -18.405 -24.837  0.00  0.00    +0.001 C 
ATOM     29  C   UNL     1      35.011 -16.593 -23.291  0.00  0.00    +0.001 C 
ATOM     30  C   UNL     1      34.829 -17.049 -24.596  0.00  0.00    +0.000 C 
ENDBRANCH  19  25
ENDBRANCH  17  18
ENDBRANCH   1  17
TORSDOF 6
ENDMDL
MODEL 5
REMARK VINA RESULT:     -10.4      1.089      1.632
REMARK  Name = 4640
REMARK  6 active torsions:
REMARK  status: ('A' for Active; 'I' for Inactive)
REMARK    1  A    between atoms: C_1  and  C_3
REMARK    2  A    between atoms: C_1  and  C_17
REMARK    3  A    between atoms: C_10  and  O_13
REMARK    4  A    between atoms: C_11  and  O_15
REMARK    5  A    between atoms: C_17  and  N_18
REMARK    6  A    between atoms: N_19  and  C_25
REMARK                            x       y       z     vdW  Elec       q    Type
REMARK                         _______ _______ _______ _____ _____    ______ ____
ROOT
ATOM      1  C   UNL     1      34.925 -22.426 -17.577  0.00  0.00    +0.005 C 
ENDROOT
BRANCH   1   3
ATOM      2  N   UNL     1      32.901 -23.799 -14.863  0.00  0.00    -0.357 N 
ATOM      3  C   UNL     1      34.343 -23.033 -16.335  0.00  0.00    -0.011 A 
ATOM      4  C   UNL     1      35.081 -23.494 -15.226  0.00  0.00    +0.016 A 
ATOM      5  C   UNL     1      33.014 -23.224 -16.100  0.00  0.00    +0.030 A 
ATOM      6  C   UNL     1      34.147 -23.976 -14.306  0.00  0.00    +0.059 A 
ATOM      7  C   UNL     1      36.450 -23.558 -14.900  0.00  0.00    +0.041 C 
ATOM      8  C   UNL     1      31.818 -22.927 -16.913  0.00  0.00    +0.049 C 
ATOM      9  C   UNL     1      34.515 -24.519 -13.070  0.00  0.00    +0.057 C 
ATOM     10  C   UNL     1      36.833 -24.099 -13.667  0.00  0.00    +0.172 C 
ATOM     11  C   UNL     1      35.879 -24.572 -12.768  0.00  0.00    +0.174 C 
ATOM     12  H   UNL     1      32.051 -24.049 -14.434  0.00  0.00    +0.166 HD
BRANCH  10  13
ATOM     13  O   UNL     1      38.160 -24.159 -13.356  0.00  0.00    -0.468 OA
ATOM     14  C   UNL     1      38.860 -25.340 -13.737  0.00  0.00    +0.253 C 
ENDBRANCH  10  13
BRANCH  11  15
ATOM     15  O   UNL     1      36.267 -25.098 -11.570  0.00  0.00    -0.468 OA
ATOM     16  C   UNL     1      35.876 -24.391 -10.396  0.00  0.00    +0.253 C 
ENDBRANCH  11  15
ENDBRANCH   1   3
BRANCH   1  17
ATOM     17  C   UNL     1      34.163 -22.846 -18.836  0.00  0.00    -0.072 C 
BRANCH  17  18
ATOM     18  N   UNL     1      34.261 -21.822 -19.876  0.00  0.00    +0.389 N 
ATOM     19  N   UNL     1      34.485 -19.168 -20.910  0.00  0.00    -0.312 N 
ATOM     20  C   UNL     1      35.520 -21.080 -19.751  0.00  0.00    -0.055 C 
ATOM     21  C   UNL     1      33.125 -20.895 -19.794  0.00  0.00    -0.055 C 
ATOM     22  C   UNL     1      35.661 -20.042 -20.868  0.00  0.00    +0.068 C 
ATOM     23  C   UNL     1      33.185 -19.852 -20.913  0.00  0.00    +0.068 C 
ATOM     24  H   UNL     1      34.241 -22.288 -20.783  0.00  0.00    -0.080 HD
BRANCH  19  25
ATOM     25  C   UNL     1      34.571 -17.917 -21.531  0.00  0.00    +0.048 C 
ATOM     26  C   UNL     1      34.401 -16.728 -20.795  0.00  0.00    +0.015 C 
ATOM     27  C   UNL     1      34.829 -17.809 -22.912  0.00  0.00    +0.015 C 
ATOM     28  C   UNL     1      34.487 -15.481 -21.414  0.00  0.00    +0.001 C 
ATOM     29  C   UNL     1      34.916 -16.563 -23.532  0.00  0.00    +0.001 C 
ATOM     30  C   UNL     1      34.745 -15.399 -22.783  0.00  0.00    +0.000 C 
ENDBRANCH  19  25
ENDBRANCH  17  18
ENDBRANCH   1  17
TORSDOF 6
ENDMDL
MODEL 6
REMARK VINA RESULT:     -10.4      9.174     14.220
REMARK  Name = 4640
REMARK  6 active torsions:
REMARK  status: ('A' for Active; 'I' for Inactive)
REMARK    1  A    between atoms: C_1  and  C_3
REMARK    2  A    between atoms: C_1  and  C_17
REMARK    3  A    between atoms: C_10  and  O_13
REMARK    4  A    between atoms: C_11  and  O_15
REMARK    5  A    between atoms: C_17  and  N_18
REMARK    6  A    between atoms: N_19  and  C_25
REMARK                            x       y       z     vdW  Elec       q    Type
REMARK                         _______ _______ _______ _____ _____    ______ ____
ROOT
ATOM      1  C   UNL     1      31.401 -10.900 -22.142  0.00  0.00    +0.005 C 
ENDROOT
BRANCH   1   3
ATOM      2  N   UNL     1      32.017  -8.144 -19.824  0.00  0.00    -0.357 N 
ATOM      3  C   UNL     1      31.636  -9.605 -21.421  0.00  0.00    -0.011 A 
ATOM      4  C   UNL     1      31.672  -8.329 -22.020  0.00  0.00    +0.016 A 
ATOM      5  C   UNL     1      31.847  -9.477 -20.081  0.00  0.00    +0.030 A 
ATOM      6  C   UNL     1      31.916  -7.419 -20.990  0.00  0.00    +0.059 A 
ATOM      7  C   UNL     1      31.525  -7.844 -23.334  0.00  0.00    +0.041 C 
ATOM      8  C   UNL     1      31.911 -10.474 -18.995  0.00  0.00    +0.049 C 
ATOM      9  C   UNL     1      32.019  -6.041 -21.209  0.00  0.00    +0.057 C 
ATOM     10  C   UNL     1      31.626  -6.468 -23.569  0.00  0.00    +0.172 C 
ATOM     11  C   UNL     1      31.869  -5.582 -22.521  0.00  0.00    +0.174 C 
ATOM     12  H   UNL     1      32.188  -7.759 -18.934  0.00  0.00    +0.166 HD
BRANCH  10  13
ATOM     13  O   UNL     1      31.483  -6.003 -24.844  0.00  0.00    -0.468 OA
ATOM     14  C   UNL     1      32.661  -5.539 -25.497  0.00  0.00    +0.253 C 
ENDBRANCH  10  13
BRANCH  11  15
ATOM     15  O   UNL     1      31.966  -4.242 -22.764  0.00  0.00    -0.468 OA
ATOM     16  C   UNL     1      30.771  -3.475 -22.644  0.00  0.00    +0.253 C 
ENDBRANCH  11  15
ENDBRANCH   1   3
BRANCH   1  17
ATOM     17  C   UNL     1      32.635 -11.358 -22.922  0.00  0.00    -0.072 C 
BRANCH  17  18
ATOM     18  N   UNL     1      32.682 -12.816 -23.025  0.00  0.00    +0.389 N 
ATOM     19  N   UNL     1      33.776 -15.424 -22.625  0.00  0.00    -0.312 N 
ATOM     20  C   UNL     1      32.680 -13.426 -21.690  0.00  0.00    -0.055 C 
ATOM     21  C   UNL     1      33.876 -13.242 -23.766  0.00  0.00    -0.055 C 
ATOM     22  C   UNL     1      32.672 -14.955 -21.784  0.00  0.00    +0.068 C 
ATOM     23  C   UNL     1      33.907 -14.764 -23.930  0.00  0.00    +0.068 C 
ATOM     24  H   UNL     1      31.852 -13.126 -23.530  0.00  0.00    -0.080 HD
BRANCH  19  25
ATOM     25  C   UNL     1      34.224 -16.746 -22.509  0.00  0.00    +0.048 C 
ATOM     26  C   UNL     1      34.749 -17.433 -23.621  0.00  0.00    +0.015 C 
ATOM     27  C   UNL     1      34.161 -17.428 -21.279  0.00  0.00    +0.015 C 
ATOM     28  C   UNL     1      35.195 -18.750 -23.507  0.00  0.00    +0.001 C 
ATOM     29  C   UNL     1      34.607 -18.744 -21.163  0.00  0.00    +0.001 C 
ATOM     30  C   UNL     1      35.124 -19.405 -22.277  0.00  0.00    +0.000 C 
ENDBRANCH  19  25
ENDBRANCH  17  18
ENDBRANCH   1  17
TORSDOF 6
ENDMDL
MODEL 7
REMARK VINA RESULT:     -10.3      5.095     10.640
REMARK  Name = 4640
REMARK  6 active torsions:
REMARK  status: ('A' for Active; 'I' for Inactive)
REMARK    1  A    between atoms: C_1  and  C_3
REMARK    2  A    between atoms: C_1  and  C_17
REMARK    3  A    between atoms: C_10  and  O_13
REMARK    4  A    between atoms: C_11  and  O_15
REMARK    5  A    between atoms: C_17  and  N_18
REMARK    6  A    between atoms: N_19  and  C_25
REMARK                            x       y       z     vdW  Elec       q    Type
REMARK                         _______ _______ _______ _____ _____    ______ ____
ROOT
ATOM      1  C   UNL     1      33.635 -15.888 -25.406  0.00  0.00    +0.005 C 
ENDROOT
BRANCH   1   3
ATOM      2  N   UNL     1      33.046 -12.289 -25.178  0.00  0.00    -0.357 N 
ATOM      3  C   UNL     1      33.343 -14.463 -25.039  0.00  0.00    -0.011 A 
ATOM      4  C   UNL     1      33.002 -14.003 -23.750  0.00  0.00    +0.016 A 
ATOM      5  C   UNL     1      33.367 -13.407 -25.900  0.00  0.00    +0.030 A 
ATOM      6  C   UNL     1      32.818 -12.623 -23.862  0.00  0.00    +0.059 A 
ATOM      7  C   UNL     1      32.827 -14.611 -22.492  0.00  0.00    +0.041 C 
ATOM      8  C   UNL     1      33.658 -13.322 -27.344  0.00  0.00    +0.049 C 
ATOM      9  C   UNL     1      32.467 -11.817 -22.774  0.00  0.00    +0.057 C 
ATOM     10  C   UNL     1      32.476 -13.817 -21.394  0.00  0.00    +0.172 C 
ATOM     11  C   UNL     1      32.299 -12.442 -21.535  0.00  0.00    +0.174 C 
ATOM     12  H   UNL     1      32.987 -11.379 -25.547  0.00  0.00    +0.166 HD
BRANCH  10  13
ATOM     13  O   UNL     1      32.307 -14.411 -20.177  0.00  0.00    -0.468 OA
ATOM     14  C   UNL     1      32.221 -15.834 -20.159  0.00  0.00    +0.253 C 
ENDBRANCH  10  13
BRANCH  11  15
ATOM     15  O   UNL     1      31.955 -11.681 -20.455  0.00  0.00    -0.468 OA
ATOM     16  C   UNL     1      30.682 -11.042 -20.493  0.00  0.00    +0.253 C 
ENDBRANCH  11  15
ENDBRANCH   1   3
BRANCH   1  17
ATOM     17  C   UNL     1      35.129 -16.209 -25.331  0.00  0.00    -0.072 C 
BRANCH  17  18
ATOM     18  N   UNL     1      35.391 -17.279 -24.370  0.00  0.00    +0.389 N 
ATOM     19  N   UNL     1      34.788 -19.045 -22.206  0.00  0.00    -0.312 N 
ATOM     20  C   UNL     1      34.435 -18.379 -24.551  0.00  0.00    -0.055 C 
ATOM     21  C   UNL     1      35.307 -16.769 -22.995  0.00  0.00    -0.055 C 
ATOM     22  C   UNL     1      34.733 -19.531 -23.588  0.00  0.00    +0.068 C 
ATOM     23  C   UNL     1      35.635 -17.866 -21.980  0.00  0.00    +0.068 C 
ATOM     24  H   UNL     1      36.334 -17.631 -24.534  0.00  0.00    -0.080 HD
BRANCH  19  25
ATOM     25  C   UNL     1      34.616 -19.943 -21.146  0.00  0.00    +0.048 C 
ATOM     26  C   UNL     1      35.722 -20.575 -20.545  0.00  0.00    +0.015 C 
ATOM     27  C   UNL     1      33.332 -20.243 -20.651  0.00  0.00    +0.015 C 
ATOM     28  C   UNL     1      35.551 -21.470 -19.488  0.00  0.00    +0.001 C 
ATOM     29  C   UNL     1      33.160 -21.138 -19.594  0.00  0.00    +0.001 C 
ATOM     30  C   UNL     1      34.269 -21.751 -19.014  0.00  0.00    +0.000 C 
ENDBRANCH  19  25
ENDBRANCH  17  18
ENDBRANCH   1  17
TORSDOF 6
ENDMDL
MODEL 8
REMARK VINA RESULT:     -10.3      2.464      4.234
REMARK  Name = 4640
REMARK  6 active torsions:
REMARK  status: ('A' for Active; 'I' for Inactive)
REMARK    1  A    between atoms: C_1  and  C_3
REMARK    2  A    between atoms: C_1  and  C_17
REMARK    3  A    between atoms: C_10  and  O_13
REMARK    4  A    between atoms: C_11  and  O_15
REMARK    5  A    between atoms: C_17  and  N_18
REMARK    6  A    between atoms: N_19  and  C_25
REMARK                            x       y       z     vdW  Elec       q    Type
REMARK                         _______ _______ _______ _____ _____    ______ ____
ROOT
ATOM      1  C   UNL     1      35.062 -22.332 -17.663  0.00  0.00    +0.005 C 
ENDROOT
BRANCH   1   3
ATOM      2  N   UNL     1      34.723 -24.134 -14.503  0.00  0.00    -0.357 N 
ATOM      3  C   UNL     1      34.645 -23.059 -16.419  0.00  0.00    -0.011 A 
ATOM      4  C   UNL     1      33.316 -23.347 -16.045  0.00  0.00    +0.016 A 
ATOM      5  C   UNL     1      35.493 -23.545 -15.469  0.00  0.00    +0.030 A 
ATOM      6  C   UNL     1      33.390 -24.028 -14.829  0.00  0.00    +0.059 A 
ATOM      7  C   UNL     1      32.050 -23.101 -16.610  0.00  0.00    +0.041 C 
ATOM      8  C   UNL     1      36.965 -23.521 -15.359  0.00  0.00    +0.049 C 
ATOM      9  C   UNL     1      32.254 -24.479 -14.146  0.00  0.00    +0.057 C 
ATOM     10  C   UNL     1      30.905 -23.546 -15.939  0.00  0.00    +0.172 C 
ATOM     11  C   UNL     1      31.008 -24.224 -14.726  0.00  0.00    +0.174 C 
ATOM     12  H   UNL     1      35.072 -24.571 -13.693  0.00  0.00    +0.166 HD
BRANCH  10  13
ATOM     13  O   UNL     1      29.680 -23.305 -16.490  0.00  0.00    -0.468 OA
ATOM     14  C   UNL     1      28.889 -22.287 -15.884  0.00  0.00    +0.253 C 
ENDBRANCH  10  13
BRANCH  11  15
ATOM     15  O   UNL     1      29.883 -24.651 -14.081  0.00  0.00    -0.468 OA
ATOM     16  C   UNL     1      29.235 -25.806 -14.608  0.00  0.00    +0.253 C 
ENDBRANCH  11  15
ENDBRANCH   1   3
BRANCH   1  17
ATOM     17  C   UNL     1      34.201 -22.714 -18.870  0.00  0.00    -0.072 C 
BRANCH  17  18
ATOM     18  N   UNL     1      34.281 -21.696 -19.917  0.00  0.00    +0.389 N 
ATOM     19  N   UNL     1      34.484 -19.047 -20.968  0.00  0.00    -0.312 N 
ATOM     20  C   UNL     1      35.541 -20.949 -19.813  0.00  0.00    -0.055 C 
ATOM     21  C   UNL     1      33.145 -20.771 -19.824  0.00  0.00    -0.055 C 
ATOM     22  C   UNL     1      35.663 -19.917 -20.938  0.00  0.00    +0.068 C 
ATOM     23  C   UNL     1      33.186 -19.734 -20.949  0.00  0.00    +0.068 C 
ATOM     24  H   UNL     1      34.250 -22.166 -20.821  0.00  0.00    -0.080 HD
BRANCH  19  25
ATOM     25  C   UNL     1      34.558 -17.799 -21.597  0.00  0.00    +0.048 C 
ATOM     26  C   UNL     1      34.370 -16.608 -20.870  0.00  0.00    +0.015 C 
ATOM     27  C   UNL     1      34.822 -17.698 -22.977  0.00  0.00    +0.015 C 
ATOM     28  C   UNL     1      34.444 -15.363 -21.497  0.00  0.00    +0.001 C 
ATOM     29  C   UNL     1      34.897 -16.454 -23.605  0.00  0.00    +0.001 C 
ATOM     30  C   UNL     1      34.708 -15.287 -22.865  0.00  0.00    +0.000 C 
ENDBRANCH  19  25
ENDBRANCH  17  18
ENDBRANCH   1  17
TORSDOF 6
ENDMDL
MODEL 9
REMARK VINA RESULT:     -10.3      7.246     12.814
REMARK  Name = 4640
REMARK  6 active torsions:
REMARK  status: ('A' for Active; 'I' for Inactive)
REMARK    1  A    between atoms: C_1  and  C_3
REMARK    2  A    between atoms: C_1  and  C_17
REMARK    3  A    between atoms: C_10  and  O_13
REMARK    4  A    between atoms: C_11  and  O_15
REMARK    5  A    between atoms: C_17  and  N_18
REMARK    6  A    between atoms: N_19  and  C_25
REMARK                            x       y       z     vdW  Elec       q    Type
REMARK                         _______ _______ _______ _____ _____    ______ ____
ROOT
ATOM      1  C   UNL     1      32.400 -12.993 -22.727  0.00  0.00    +0.005 C 
ENDROOT
BRANCH   1   3
ATOM      2  N   UNL     1      31.762  -9.563 -21.643  0.00  0.00    -0.357 N 
ATOM      3  C   UNL     1      32.333 -11.515 -22.475  0.00  0.00    -0.011 A 
ATOM      4  C   UNL     1      33.095 -10.535 -23.144  0.00  0.00    +0.016 A 
ATOM      5  C   UNL     1      31.523 -10.908 -21.562  0.00  0.00    +0.030 A 
ATOM      6  C   UNL     1      32.717  -9.306 -22.600  0.00  0.00    +0.059 A 
ATOM      7  C   UNL     1      34.073 -10.557 -24.157  0.00  0.00    +0.041 C 
ATOM      8  C   UNL     1      30.537 -11.450 -20.607  0.00  0.00    +0.049 C 
ATOM      9  C   UNL     1      33.269  -8.092 -23.022  0.00  0.00    +0.057 C 
ATOM     10  C   UNL     1      34.634  -9.351 -24.590  0.00  0.00    +0.172 C 
ATOM     11  C   UNL     1      34.238  -8.138 -24.029  0.00  0.00    +0.174 C 
ATOM     12  H   UNL     1      31.314  -8.878 -21.095  0.00  0.00    +0.166 HD
BRANCH  10  13
ATOM     13  O   UNL     1      35.581  -9.377 -25.572  0.00  0.00    -0.468 OA
ATOM     14  C   UNL     1      35.663 -10.564 -26.357  0.00  0.00    +0.253 C 
ENDBRANCH  10  13
BRANCH  11  15
ATOM     15  O   UNL     1      34.795  -6.968 -24.460  0.00  0.00    -0.468 OA
ATOM     16  C   UNL     1      33.959  -6.092 -25.210  0.00  0.00    +0.253 C 
ENDBRANCH  11  15
ENDBRANCH   1   3
BRANCH   1  17
ATOM     17  C   UNL     1      33.625 -13.381 -23.558  0.00  0.00    -0.072 C 
BRANCH  17  18
ATOM     18  N   UNL     1      34.322 -14.523 -22.966  0.00  0.00    +0.389 N 
ATOM     19  N   UNL     1      34.552 -17.137 -21.837  0.00  0.00    -0.312 N 
ATOM     20  C   UNL     1      34.167 -15.713 -23.810  0.00  0.00    -0.055 C 
ATOM     21  C   UNL     1      33.809 -14.797 -21.618  0.00  0.00    -0.055 C 
ATOM     22  C   UNL     1      34.939 -16.903 -23.231  0.00  0.00    +0.068 C 
ATOM     23  C   UNL     1      34.569 -15.955 -20.966  0.00  0.00    +0.068 C 
ATOM     24  H   UNL     1      35.313 -14.291 -22.900  0.00  0.00    -0.080 HD
BRANCH  19  25
ATOM     25  C   UNL     1      34.785 -18.387 -21.252  0.00  0.00    +0.048 C 
ATOM     26  C   UNL     1      36.096 -18.835 -20.997  0.00  0.00    +0.015 C 
ATOM     27  C   UNL     1      33.716 -19.235 -20.904  0.00  0.00    +0.015 C 
ATOM     28  C   UNL     1      36.329 -20.081 -20.414  0.00  0.00    +0.001 C 
ATOM     29  C   UNL     1      33.947 -20.481 -20.321  0.00  0.00    +0.001 C 
ATOM     30  C   UNL     1      35.254 -20.904 -20.076  0.00  0.00    +0.000 C 
ENDBRANCH  19  25
ENDBRANCH  17  18
ENDBRANCH   1  17
TORSDOF 6
ENDMDL
