MODEL 1
REMARK VINA RESULT:      -7.3      0.000      0.000
REMARK  Name = 9815453
REMARK  3 active torsions:
REMARK  status: ('A' for Active; 'I' for Inactive)
REMARK    1  A    between atoms: CA_5  and  CB_12
REMARK    2  A    between atoms: CB_12  and  CG_14
REMARK    3  A    between atoms: CG_14  and  OD1_15
REMARK                            x       y       z     vdW  Elec       q    Type
REMARK                         _______ _______ _______ _____ _____    ______ ____
ROOT
ATOM      1  O   ASP A   1      37.182 -26.365 -12.101  0.00  0.00    -0.273 OA
ATOM      2  O   ALA A   2      36.478 -23.153 -16.250  0.00  0.00    -0.273 OA
ATOM      3  N   ASP A   1      37.792 -24.642 -15.086  0.00  0.00    -0.297 N 
ATOM      4  N   ALA A   2      35.785 -25.104 -13.427  0.00  0.00    -0.297 N 
ATOM      5  CA  ASP A   1      37.863 -25.917 -14.387  0.00  0.00    +0.160 C 
ATOM      6  CA  ALA A   2      35.386 -24.746 -14.780  0.00  0.00    +0.149 C 
ATOM      7  C   ASP A   1      36.956 -25.801 -13.169  0.00  0.00    +0.241 C 
ATOM      8  C   ALA A   2      36.581 -24.057 -15.425  0.00  0.00    +0.241 C 
ATOM      9  CB  ALA A   2      34.153 -23.855 -14.772  0.00  0.00    +0.031 C 
ATOM     10  H   ASP A   1      38.628 -24.182 -15.327  0.00  0.00    +0.150 HD
ATOM     11  H   ALA A   2      35.208 -24.845 -12.673  0.00  0.00    +0.150 HD
ENDROOT
BRANCH   5  12
ATOM     12  CB  ASP A   1      39.293 -26.255 -14.000  0.00  0.00    +0.138 C 
BRANCH  12  14
ATOM     13  OD2 ASP A   1      40.964 -24.523 -14.387  0.00  0.00    -0.250 OA
ATOM     14  CG  ASP A   1      40.295 -25.461 -14.796  0.00  0.00    +0.316 C 
BRANCH  14  15
ATOM     15  OD1 ASP A   1      40.361 -25.937 -16.066  0.00  0.00    -0.480 OA
ATOM     16  HD1 ASP A   1      39.986 -25.446 -16.771  0.00  0.00    +0.295 HD
ENDBRANCH  14  15
ENDBRANCH  12  14
ENDBRANCH   5  12
TORSDOF 3
ENDMDL
MODEL 2
REMARK VINA RESULT:      -6.9      1.740      1.972
REMARK  Name = 9815453
REMARK  3 active torsions:
REMARK  status: ('A' for Active; 'I' for Inactive)
REMARK    1  A    between atoms: CA_5  and  CB_12
REMARK    2  A    between atoms: CB_12  and  CG_14
REMARK    3  A    between atoms: CG_14  and  OD1_15
REMARK                            x       y       z     vdW  Elec       q    Type
REMARK                         _______ _______ _______ _____ _____    ______ ____
ROOT
ATOM      1  O   ASP A   1      36.892 -27.145 -15.879  0.00  0.00    -0.273 OA
ATOM      2  O   ALA A   2      35.599 -23.588 -12.178  0.00  0.00    -0.273 OA
ATOM      3  N   ASP A   1      37.188 -24.881 -13.227  0.00  0.00    -0.297 N 
ATOM      4  N   ALA A   2      35.387 -25.637 -15.009  0.00  0.00    -0.297 N 
ATOM      5  CA  ASP A   1      37.741 -25.346 -14.490  0.00  0.00    +0.160 C 
ATOM      6  CA  ALA A   2      35.176 -24.307 -14.458  0.00  0.00    +0.149 C 
ATOM      7  C   ASP A   1      36.657 -26.172 -15.168  0.00  0.00    +0.241 C 
ATOM      8  C   ALA A   2      35.961 -24.240 -13.154  0.00  0.00    +0.241 C 
ATOM      9  CB  ALA A   2      33.696 -24.027 -14.244  0.00  0.00    +0.031 C 
ATOM     10  H   ASP A   1      37.701 -25.025 -12.399  0.00  0.00    +0.150 HD
ATOM     11  H   ALA A   2      34.606 -26.172 -15.277  0.00  0.00    +0.150 HD
ENDROOT
BRANCH   5  12
ATOM     12  CB  ASP A   1      39.014 -26.148 -14.274  0.00  0.00    +0.138 C 
BRANCH  12  14
ATOM     13  OD2 ASP A   1      40.924 -24.635 -14.340  0.00  0.00    -0.250 OA
ATOM     14  CG  ASP A   1      40.216 -25.471 -14.881  0.00  0.00    +0.316 C 
BRANCH  14  15
ATOM     15  OD1 ASP A   1      40.416 -25.926 -16.144  0.00  0.00    -0.480 OA
ATOM     16  HD1 ASP A   1      39.899 -26.633 -16.476  0.00  0.00    +0.295 HD
ENDBRANCH  14  15
ENDBRANCH  12  14
ENDBRANCH   5  12
TORSDOF 3
ENDMDL
MODEL 3
REMARK VINA RESULT:      -6.7      5.879      8.744
REMARK  Name = 9815453
REMARK  3 active torsions:
REMARK  status: ('A' for Active; 'I' for Inactive)
REMARK    1  A    between atoms: CA_5  and  CB_12
REMARK    2  A    between atoms: CB_12  and  CG_14
REMARK    3  A    between atoms: CG_14  and  OD1_15
REMARK                            x       y       z     vdW  Elec       q    Type
REMARK                         _______ _______ _______ _____ _____    ______ ____
ROOT
ATOM      1  O   ASP A   1      29.886 -24.684 -13.943  0.00  0.00    -0.273 OA
ATOM      2  O   ALA A   2      32.355 -22.472 -18.070  0.00  0.00    -0.273 OA
ATOM      3  N   ASP A   1      30.448 -22.764 -16.816  0.00  0.00    -0.297 N 
ATOM      4  N   ALA A   2      31.837 -24.149 -15.042  0.00  0.00    -0.297 N 
ATOM      5  CA  ASP A   1      29.859 -22.810 -15.485  0.00  0.00    +0.160 C 
ATOM      6  CA  ALA A   2      32.597 -23.127 -15.746  0.00  0.00    +0.149 C 
ATOM      7  C   ASP A   1      30.485 -23.999 -14.768  0.00  0.00    +0.241 C 
ATOM      8  C   ALA A   2      31.820 -22.795 -17.013  0.00  0.00    +0.241 C 
ATOM      9  CB  ALA A   2      34.008 -23.605 -16.054  0.00  0.00    +0.031 C 
ATOM     10  H   ASP A   1      29.854 -22.709 -17.599  0.00  0.00    +0.150 HD
ATOM     11  H   ALA A   2      32.295 -24.970 -14.750  0.00  0.00    +0.150 HD
ENDROOT
BRANCH   5  12
ATOM     12  CB  ASP A   1      28.346 -22.922 -15.554  0.00  0.00    +0.138 C 
BRANCH  12  14
ATOM     13  OD2 ASP A   1      27.745 -23.846 -17.728  0.00  0.00    -0.250 OA
ATOM     14  CG  ASP A   1      27.843 -22.889 -16.974  0.00  0.00    +0.316 C 
BRANCH  14  15
ATOM     15  OD1 ASP A   1      27.502 -21.620 -17.317  0.00  0.00    -0.480 OA
ATOM     16  HD1 ASP A   1      27.178 -21.438 -18.177  0.00  0.00    +0.295 HD
ENDBRANCH  14  15
ENDBRANCH  12  14
ENDBRANCH   5  12
TORSDOF 3
ENDMDL
MODEL 4
REMARK VINA RESULT:      -6.7     11.610     13.880
REMARK  Name = 9815453
REMARK  3 active torsions:
REMARK  status: ('A' for Active; 'I' for Inactive)
REMARK    1  A    between atoms: CA_5  and  CB_12
REMARK    2  A    between atoms: CB_12  and  CG_14
REMARK    3  A    between atoms: CG_14  and  OD1_15
REMARK                            x       y       z     vdW  Elec       q    Type
REMARK                         _______ _______ _______ _____ _____    ______ ____
ROOT
ATOM      1  O   ASP A   1      34.977 -16.694 -25.761  0.00  0.00    -0.273 OA
ATOM      2  O   ALA A   2      35.099 -16.128 -20.499  0.00  0.00    -0.273 OA
ATOM      3  N   ASP A   1      34.363 -15.417 -22.560  0.00  0.00    -0.297 N 
ATOM      4  N   ALA A   2      35.459 -17.548 -23.678  0.00  0.00    -0.297 N 
ATOM      5  CA  ASP A   1      33.792 -15.791 -23.846  0.00  0.00    +0.160 C 
ATOM      6  CA  ALA A   2      35.009 -17.744 -22.308  0.00  0.00    +0.149 C 
ATOM      7  C   ASP A   1      34.817 -16.674 -24.543  0.00  0.00    +0.241 C 
ATOM      8  C   ALA A   2      34.880 -16.360 -21.685  0.00  0.00    +0.241 C 
ATOM      9  CB  ALA A   2      35.974 -18.628 -21.533  0.00  0.00    +0.031 C 
ATOM     10  H   ASP A   1      34.383 -14.467 -22.304  0.00  0.00    +0.150 HD
ATOM     11  H   ALA A   2      36.241 -18.051 -24.001  0.00  0.00    +0.150 HD
ENDROOT
BRANCH   5  12
ATOM     12  CB  ASP A   1      33.443 -14.564 -24.673  0.00  0.00    +0.138 C 
BRANCH  12  14
ATOM     13  OD2 ASP A   1      32.181 -13.182 -23.111  0.00  0.00    -0.250 OA
ATOM     14  CG  ASP A   1      33.170 -13.361 -23.808  0.00  0.00    +0.316 C 
BRANCH  14  15
ATOM     15  OD1 ASP A   1      34.195 -12.477 -23.904  0.00  0.00    -0.480 OA
ATOM     16  HD1 ASP A   1      35.015 -12.748 -24.268  0.00  0.00    +0.295 HD
ENDBRANCH  14  15
ENDBRANCH  12  14
ENDBRANCH   5  12
TORSDOF 3
ENDMDL
MODEL 5
REMARK VINA RESULT:      -6.6      2.475      4.694
REMARK  Name = 9815453
REMARK  3 active torsions:
REMARK  status: ('A' for Active; 'I' for Inactive)
REMARK    1  A    between atoms: CA_5  and  CB_12
REMARK    2  A    between atoms: CB_12  and  CG_14
REMARK    3  A    between atoms: CG_14  and  OD1_15
REMARK                            x       y       z     vdW  Elec       q    Type
REMARK                         _______ _______ _______ _____ _____    ______ ____
ROOT
ATOM      1  O   ASP A   1      38.543 -23.025 -11.576  0.00  0.00    -0.273 OA
ATOM      2  O   ALA A   2      37.811 -27.171 -14.785  0.00  0.00    -0.273 OA
ATOM      3  N   ASP A   1      36.957 -25.372 -13.633  0.00  0.00    -0.297 N 
ATOM      4  N   ALA A   2      39.410 -24.647 -12.961  0.00  0.00    -0.297 N 
ATOM      5  CA  ASP A   1      37.102 -23.965 -13.287  0.00  0.00    +0.160 C 
ATOM      6  CA  ALA A   2      39.308 -25.342 -14.236  0.00  0.00    +0.149 C 
ATOM      7  C   ASP A   1      38.388 -23.840 -12.483  0.00  0.00    +0.241 C 
ATOM      8  C   ALA A   2      37.983 -26.092 -14.225  0.00  0.00    +0.241 C 
ATOM      9  CB  ALA A   2      40.488 -26.277 -14.449  0.00  0.00    +0.031 C 
ATOM     10  H   ASP A   1      36.104 -25.826 -13.441  0.00  0.00    +0.150 HD
ATOM     11  H   ALA A   2      40.227 -24.753 -12.423  0.00  0.00    +0.150 HD
ENDROOT
BRANCH   5  12
ATOM     12  CB  ASP A   1      35.896 -23.460 -12.513  0.00  0.00    +0.138 C 
BRANCH  12  14
ATOM     13  OD2 ASP A   1      35.394 -25.183 -10.863  0.00  0.00    -0.250 OA
ATOM     14  CG  ASP A   1      35.112 -24.587 -11.893  0.00  0.00    +0.316 C 
BRANCH  14  15
ATOM     15  OD1 ASP A   1      34.018 -24.862 -12.648  0.00  0.00    -0.480 OA
ATOM     16  HD1 ASP A   1      33.490 -24.163 -12.981  0.00  0.00    +0.295 HD
ENDBRANCH  14  15
ENDBRANCH  12  14
ENDBRANCH   5  12
TORSDOF 3
ENDMDL
MODEL 6
REMARK VINA RESULT:      -6.5      2.786      4.523
REMARK  Name = 9815453
REMARK  3 active torsions:
REMARK  status: ('A' for Active; 'I' for Inactive)
REMARK    1  A    between atoms: CA_5  and  CB_12
REMARK    2  A    between atoms: CB_12  and  CG_14
REMARK    3  A    between atoms: CG_14  and  OD1_15
REMARK                            x       y       z     vdW  Elec       q    Type
REMARK                         _______ _______ _______ _____ _____    ______ ____
ROOT
ATOM      1  O   ASP A   1      34.838 -23.178 -17.203  0.00  0.00    -0.273 OA
ATOM      2  O   ALA A   2      32.019 -25.116 -13.163  0.00  0.00    -0.273 OA
ATOM      3  N   ASP A   1      34.053 -24.756 -14.179  0.00  0.00    -0.297 N 
ATOM      4  N   ALA A   2      32.859 -23.296 -16.033  0.00  0.00    -0.297 N 
ATOM      5  CA  ASP A   1      34.924 -23.810 -14.861  0.00  0.00    +0.160 C 
ATOM      6  CA  ALA A   2      32.212 -23.272 -14.730  0.00  0.00    +0.149 C 
ATOM      7  C   ASP A   1      34.233 -23.438 -16.166  0.00  0.00    +0.241 C 
ATOM      8  C   ALA A   2      32.707 -24.495 -13.969  0.00  0.00    +0.241 C 
ATOM      9  CB  ALA A   2      30.697 -23.265 -14.868  0.00  0.00    +0.031 C 
ATOM     10  H   ASP A   1      34.430 -25.606 -13.855  0.00  0.00    +0.150 HD
ATOM     11  H   ALA A   2      32.307 -23.207 -16.843  0.00  0.00    +0.150 HD
ENDROOT
BRANCH   5  12
ATOM     12  CB  ASP A   1      36.304 -24.402 -15.098  0.00  0.00    +0.138 C 
BRANCH  12  14
ATOM     13  OD2 ASP A   1      36.079 -26.712 -15.843  0.00  0.00    -0.250 OA
ATOM     14  CG  ASP A   1      36.305 -25.901 -14.956  0.00  0.00    +0.316 C 
BRANCH  14  15
ATOM     15  OD1 ASP A   1      36.601 -26.246 -13.677  0.00  0.00    -0.480 OA
ATOM     16  HD1 ASP A   1      36.928 -25.601 -13.081  0.00  0.00    +0.295 HD
ENDBRANCH  14  15
ENDBRANCH  12  14
ENDBRANCH   5  12
TORSDOF 3
ENDMDL
MODEL 7
REMARK VINA RESULT:      -6.5      2.000      5.204
REMARK  Name = 9815453
REMARK  3 active torsions:
REMARK  status: ('A' for Active; 'I' for Inactive)
REMARK    1  A    between atoms: CA_5  and  CB_12
REMARK    2  A    between atoms: CB_12  and  CG_14
REMARK    3  A    between atoms: CG_14  and  OD1_15
REMARK                            x       y       z     vdW  Elec       q    Type
REMARK                         _______ _______ _______ _____ _____    ______ ____
ROOT
ATOM      1  O   ASP A   1      36.347 -23.099 -16.287  0.00  0.00    -0.273 OA
ATOM      2  O   ALA A   2      37.106 -26.243 -12.096  0.00  0.00    -0.273 OA
ATOM      3  N   ASP A   1      35.676 -25.170 -13.546  0.00  0.00    -0.297 N 
ATOM      4  N   ALA A   2      37.744 -24.407 -15.007  0.00  0.00    -0.297 N 
ATOM      5  CA  ASP A   1      35.357 -24.850 -14.930  0.00  0.00    +0.160 C 
ATOM      6  CA  ALA A   2      37.927 -25.669 -14.307  0.00  0.00    +0.149 C 
ATOM      7  C   ASP A   1      36.499 -23.993 -15.458  0.00  0.00    +0.241 C 
ATOM      8  C   ALA A   2      36.904 -25.700 -13.179  0.00  0.00    +0.241 C 
ATOM      9  CB  ALA A   2      39.350 -25.809 -13.786  0.00  0.00    +0.031 C 
ATOM     10  H   ASP A   1      35.000 -25.006 -12.849  0.00  0.00    +0.150 HD
ATOM     11  H   ALA A   2      38.526 -23.831 -15.167  0.00  0.00    +0.150 HD
ENDROOT
BRANCH   5  12
ATOM     12  CB  ASP A   1      34.017 -24.142 -15.039  0.00  0.00    +0.138 C 
BRANCH  12  14
ATOM     13  OD2 ASP A   1      33.067 -23.599 -12.861  0.00  0.00    -0.250 OA
ATOM     14  CG  ASP A   1      33.166 -24.357 -13.815  0.00  0.00    +0.316 C 
BRANCH  14  15
ATOM     15  OD1 ASP A   1      32.502 -25.537 -13.912  0.00  0.00    -0.480 OA
ATOM     16  HD1 ASP A   1      32.516 -26.143 -13.197  0.00  0.00    +0.295 HD
ENDBRANCH  14  15
ENDBRANCH  12  14
ENDBRANCH   5  12
TORSDOF 3
ENDMDL
MODEL 8
REMARK VINA RESULT:      -6.5     10.362     12.084
REMARK  Name = 9815453
REMARK  3 active torsions:
REMARK  status: ('A' for Active; 'I' for Inactive)
REMARK    1  A    between atoms: CA_5  and  CB_12
REMARK    2  A    between atoms: CB_12  and  CG_14
REMARK    3  A    between atoms: CG_14  and  OD1_15
REMARK                            x       y       z     vdW  Elec       q    Type
REMARK                         _______ _______ _______ _____ _____    ______ ____
ROOT
ATOM      1  O   ASP A   1      34.952 -15.567 -20.576  0.00  0.00    -0.273 OA
ATOM      2  O   ALA A   2      34.888 -16.672 -25.752  0.00  0.00    -0.273 OA
ATOM      3  N   ASP A   1      35.315 -17.317 -23.585  0.00  0.00    -0.297 N 
ATOM      4  N   ALA A   2      34.265 -15.052 -22.712  0.00  0.00    -0.297 N 
ATOM      5  CA  ASP A   1      34.841 -17.358 -22.209  0.00  0.00    +0.160 C 
ATOM      6  CA  ALA A   2      33.702 -15.542 -23.961  0.00  0.00    +0.149 C 
ATOM      7  C   ASP A   1      34.742 -15.914 -21.735  0.00  0.00    +0.241 C 
ATOM      8  C   ALA A   2      34.711 -16.521 -24.546  0.00  0.00    +0.241 C 
ATOM      9  CB  ALA A   2      33.402 -14.397 -24.916  0.00  0.00    +0.031 C 
ATOM     10  H   ASP A   1      36.087 -17.872 -23.841  0.00  0.00    +0.150 HD
ATOM     11  H   ALA A   2      34.308 -14.082 -22.555  0.00  0.00    +0.150 HD
ENDROOT
BRANCH   5  12
ATOM     12  CB  ASP A   1      35.767 -18.182 -21.330  0.00  0.00    +0.138 C 
BRANCH  12  14
ATOM     13  OD2 ASP A   1      35.527 -20.237 -20.042  0.00  0.00    -0.250 OA
ATOM     14  CG  ASP A   1      35.148 -19.498 -20.939  0.00  0.00    +0.316 C 
BRANCH  14  15
ATOM     15  OD1 ASP A   1      34.080 -19.764 -21.735  0.00  0.00    -0.480 OA
ATOM     16  HD1 ASP A   1      33.215 -19.764 -21.374  0.00  0.00    +0.295 HD
ENDBRANCH  14  15
ENDBRANCH  12  14
ENDBRANCH   5  12
TORSDOF 3
ENDMDL
MODEL 9
REMARK VINA RESULT:      -6.3     10.916     12.755
REMARK  Name = 9815453
REMARK  3 active torsions:
REMARK  status: ('A' for Active; 'I' for Inactive)
REMARK    1  A    between atoms: CA_5  and  CB_12
REMARK    2  A    between atoms: CB_12  and  CG_14
REMARK    3  A    between atoms: CG_14  and  OD1_15
REMARK                            x       y       z     vdW  Elec       q    Type
REMARK                         _______ _______ _______ _____ _____    ______ ____
ROOT
ATOM      1  O   ASP A   1      34.432 -17.427 -25.504  0.00  0.00    -0.273 OA
ATOM      2  O   ALA A   2      33.698 -14.464 -21.179  0.00  0.00    -0.273 OA
ATOM      3  N   ASP A   1      34.559 -16.352 -22.175  0.00  0.00    -0.297 N 
ATOM      4  N   ALA A   2      33.837 -15.421 -24.543  0.00  0.00    -0.297 N 
ATOM      5  CA  ASP A   1      35.300 -16.907 -23.298  0.00  0.00    +0.160 C 
ATOM      6  CA  ALA A   2      34.161 -14.398 -23.561  0.00  0.00    +0.149 C 
ATOM      7  C   ASP A   1      34.461 -16.660 -24.545  0.00  0.00    +0.241 C 
ATOM      8  C   ALA A   2      34.065 -15.056 -22.191  0.00  0.00    +0.241 C 
ATOM      9  CB  ALA A   2      33.228 -13.203 -23.683  0.00  0.00    +0.031 C 
ATOM     10  H   ASP A   1      34.404 -16.912 -21.381  0.00  0.00    +0.150 HD
ATOM     11  H   ALA A   2      33.155 -15.229 -25.227  0.00  0.00    +0.150 HD
ENDROOT
BRANCH   5  12
ATOM     12  CB  ASP A   1      35.590 -18.384 -23.092  0.00  0.00    +0.138 C 
BRANCH  12  14
ATOM     13  OD2 ASP A   1      35.835 -18.703 -20.688  0.00  0.00    -0.250 OA
ATOM     14  CG  ASP A   1      35.190 -18.850 -21.716  0.00  0.00    +0.316 C 
BRANCH  14  15
ATOM     15  OD1 ASP A   1      33.984 -19.471 -21.768  0.00  0.00    -0.480 OA
ATOM     16  HD1 ASP A   1      33.314 -19.245 -21.153  0.00  0.00    +0.295 HD
ENDBRANCH  14  15
ENDBRANCH  12  14
ENDBRANCH   5  12
TORSDOF 3
ENDMDL
