MODEL 1
REMARK VINA RESULT:      -5.8      0.000      0.000
REMARK  Name = 5936
REMARK  4 active torsions:
REMARK  status: ('A' for Active; 'I' for Inactive)
REMARK    1  A    between atoms: P_1  and  O_4
REMARK    2  A    between atoms: P_1  and  O_8
REMARK    3  A    between atoms: O_4  and  C_5
REMARK    4  A    between atoms: O_8  and  C_9
REMARK                            x       y       z     vdW  Elec       q    Type
REMARK                         _______ _______ _______ _____ _____    ______ ____
ROOT
ATOM      1  P   UNL     1      35.940 -18.624 -21.479  0.00  0.00    +0.517 P 
ATOM      2  F   UNL     1      37.417 -19.016 -21.115  0.00  0.00    -0.133 F 
ATOM      3  O   UNL     1      35.438 -17.508 -20.612  0.00  0.00    -0.223 OA
ENDROOT
BRANCH   1   4
ATOM      4  O   UNL     1      35.989 -18.316 -23.066  0.00  0.00    -0.273 OA
BRANCH   4   5
ATOM      5  C   UNL     1      34.772 -18.022 -23.727  0.00  0.00    +0.127 C 
ATOM      6  C   UNL     1      34.870 -16.644 -24.366  0.00  0.00    +0.033 C 
ATOM      7  C   UNL     1      34.485 -19.105 -24.756  0.00  0.00    +0.033 C 
ENDBRANCH   4   5
ENDBRANCH   1   4
BRANCH   1   8
ATOM      8  O   UNL     1      35.118 -20.012 -21.359  0.00  0.00    -0.273 OA
BRANCH   8   9
ATOM      9  C   UNL     1      34.271 -20.216 -20.243  0.00  0.00    +0.127 C 
ATOM     10  C   UNL     1      32.820 -20.125 -20.691  0.00  0.00    +0.033 C 
ATOM     11  C   UNL     1      34.586 -21.565 -19.615  0.00  0.00    +0.033 C 
ENDBRANCH   8   9
ENDBRANCH   1   8
TORSDOF 4
ENDMDL
MODEL 2
REMARK VINA RESULT:      -5.7      2.126      2.764
REMARK  Name = 5936
REMARK  4 active torsions:
REMARK  status: ('A' for Active; 'I' for Inactive)
REMARK    1  A    between atoms: P_1  and  O_4
REMARK    2  A    between atoms: P_1  and  O_8
REMARK    3  A    between atoms: O_4  and  C_5
REMARK    4  A    between atoms: O_8  and  C_9
REMARK                            x       y       z     vdW  Elec       q    Type
REMARK                         _______ _______ _______ _____ _____    ______ ____
ROOT
ATOM      1  P   UNL     1      35.187 -18.597 -21.885  0.00  0.00    +0.517 P 
ATOM      2  F   UNL     1      34.402 -19.577 -22.828  0.00  0.00    -0.133 F 
ATOM      3  O   UNL     1      36.569 -18.327 -22.400  0.00  0.00    -0.223 OA
ENDROOT
BRANCH   1   4
ATOM      4  O   UNL     1      34.219 -17.309 -21.754  0.00  0.00    -0.273 OA
BRANCH   4   5
ATOM      5  C   UNL     1      34.817 -16.025 -21.732  0.00  0.00    +0.127 C 
ATOM      6  C   UNL     1      34.517 -15.311 -23.041  0.00  0.00    +0.033 C 
ATOM      7  C   UNL     1      34.294 -15.249 -20.531  0.00  0.00    +0.033 C 
ENDBRANCH   4   5
ENDBRANCH   1   4
BRANCH   1   8
ATOM      8  O   UNL     1      35.120 -19.306 -20.432  0.00  0.00    -0.273 OA
BRANCH   8   9
ATOM      9  C   UNL     1      34.727 -20.663 -20.345  0.00  0.00    +0.127 C 
ATOM     10  C   UNL     1      35.637 -21.388 -19.365  0.00  0.00    +0.033 C 
ATOM     11  C   UNL     1      33.267 -20.735 -19.922  0.00  0.00    +0.033 C 
ENDBRANCH   8   9
ENDBRANCH   1   8
TORSDOF 4
ENDMDL
MODEL 3
REMARK VINA RESULT:      -5.6      2.053      4.231
REMARK  Name = 5936
REMARK  4 active torsions:
REMARK  status: ('A' for Active; 'I' for Inactive)
REMARK    1  A    between atoms: P_1  and  O_4
REMARK    2  A    between atoms: P_1  and  O_8
REMARK    3  A    between atoms: O_4  and  C_5
REMARK    4  A    between atoms: O_8  and  C_9
REMARK                            x       y       z     vdW  Elec       q    Type
REMARK                         _______ _______ _______ _____ _____    ______ ____
ROOT
ATOM      1  P   UNL     1      34.978 -18.384 -23.054  0.00  0.00    +0.517 P 
ATOM      2  F   UNL     1      36.476 -18.178 -22.629  0.00  0.00    -0.133 F 
ATOM      3  O   UNL     1      34.826 -18.395 -24.546  0.00  0.00    -0.223 OA
ENDROOT
BRANCH   1   4
ATOM      4  O   UNL     1      34.528 -19.735 -22.289  0.00  0.00    -0.273 OA
BRANCH   4   5
ATOM      5  C   UNL     1      34.349 -19.678 -20.885  0.00  0.00    +0.127 C 
ATOM      6  C   UNL     1      32.906 -20.024 -20.550  0.00  0.00    +0.033 C 
ATOM      7  C   UNL     1      35.330 -20.631 -20.217  0.00  0.00    +0.033 C 
ENDBRANCH   4   5
ENDBRANCH   1   4
BRANCH   1   8
ATOM      8  O   UNL     1      34.182 -17.199 -22.291  0.00  0.00    -0.273 OA
BRANCH   8   9
ATOM      9  C   UNL     1      34.853 -15.982 -22.020  0.00  0.00    +0.127 C 
ATOM     10  C   UNL     1      34.460 -14.949 -23.065  0.00  0.00    +0.033 C 
ATOM     11  C   UNL     1      34.508 -15.524 -20.611  0.00  0.00    +0.033 C 
ENDBRANCH   8   9
ENDBRANCH   1   8
TORSDOF 4
ENDMDL
MODEL 4
REMARK VINA RESULT:      -5.6      2.532      4.707
REMARK  Name = 5936
REMARK  4 active torsions:
REMARK  status: ('A' for Active; 'I' for Inactive)
REMARK    1  A    between atoms: P_1  and  O_4
REMARK    2  A    between atoms: P_1  and  O_8
REMARK    3  A    between atoms: O_4  and  C_5
REMARK    4  A    between atoms: O_8  and  C_9
REMARK                            x       y       z     vdW  Elec       q    Type
REMARK                         _______ _______ _______ _____ _____    ______ ____
ROOT
ATOM      1  P   UNL     1      34.572 -16.127 -21.287  0.00  0.00    +0.517 P 
ATOM      2  F   UNL     1      33.017 -16.349 -21.319  0.00  0.00    -0.133 F 
ATOM      3  O   UNL     1      34.974 -15.209 -20.172  0.00  0.00    -0.223 OA
ENDROOT
BRANCH   1   4
ATOM      4  O   UNL     1      35.187 -17.621 -21.227  0.00  0.00    -0.273 OA
BRANCH   4   5
ATOM      5  C   UNL     1      34.393 -18.690 -21.713  0.00  0.00    +0.127 C 
ATOM      6  C   UNL     1      34.897 -19.100 -23.089  0.00  0.00    +0.033 C 
ATOM      7  C   UNL     1      34.446 -19.844 -20.724  0.00  0.00    +0.033 C 
ENDBRANCH   4   5
ENDBRANCH   1   4
BRANCH   1   8
ATOM      8  O   UNL     1      34.928 -15.601 -22.775  0.00  0.00    -0.273 OA
BRANCH   8   9
ATOM      9  C   UNL     1      33.873 -15.257 -23.655  0.00  0.00    +0.127 C 
ATOM     10  C   UNL     1      33.839 -13.747 -23.832  0.00  0.00    +0.033 C 
ATOM     11  C   UNL     1      34.071 -15.979 -24.979  0.00  0.00    +0.033 C 
ENDBRANCH   8   9
ENDBRANCH   1   8
TORSDOF 4
ENDMDL
MODEL 5
REMARK VINA RESULT:      -5.6      1.851      4.368
REMARK  Name = 5936
REMARK  4 active torsions:
REMARK  status: ('A' for Active; 'I' for Inactive)
REMARK    1  A    between atoms: P_1  and  O_4
REMARK    2  A    between atoms: P_1  and  O_8
REMARK    3  A    between atoms: O_4  and  C_5
REMARK    4  A    between atoms: O_8  and  C_9
REMARK                            x       y       z     vdW  Elec       q    Type
REMARK                         _______ _______ _______ _____ _____    ______ ____
ROOT
ATOM      1  P   UNL     1      35.393 -18.297 -21.829  0.00  0.00    +0.517 P 
ATOM      2  F   UNL     1      36.938 -18.411 -22.089  0.00  0.00    -0.133 F 
ATOM      3  O   UNL     1      34.600 -18.744 -23.021  0.00  0.00    -0.223 OA
ENDROOT
BRANCH   1   4
ATOM      4  O   UNL     1      35.155 -19.138 -20.468  0.00  0.00    -0.273 OA
BRANCH   4   5
ATOM      5  C   UNL     1      34.517 -20.399 -20.566  0.00  0.00    +0.127 C 
ATOM      6  C   UNL     1      35.160 -21.362 -19.579  0.00  0.00    +0.033 C 
ATOM      7  C   UNL     1      33.028 -20.230 -20.303  0.00  0.00    +0.033 C 
ENDBRANCH   4   5
ENDBRANCH   1   4
BRANCH   1   8
ATOM      8  O   UNL     1      35.175 -16.754 -21.397  0.00  0.00    -0.273 OA
BRANCH   8   9
ATOM      9  C   UNL     1      34.058 -16.047 -21.907  0.00  0.00    +0.127 C 
ATOM     10  C   UNL     1      33.349 -15.338 -20.763  0.00  0.00    +0.033 C 
ATOM     11  C   UNL     1      34.529 -15.071 -22.974  0.00  0.00    +0.033 C 
ENDBRANCH   8   9
ENDBRANCH   1   8
TORSDOF 4
ENDMDL
MODEL 6
REMARK VINA RESULT:      -5.5      2.635      3.146
REMARK  Name = 5936
REMARK  4 active torsions:
REMARK  status: ('A' for Active; 'I' for Inactive)
REMARK    1  A    between atoms: P_1  and  O_4
REMARK    2  A    between atoms: P_1  and  O_8
REMARK    3  A    between atoms: O_4  and  C_5
REMARK    4  A    between atoms: O_8  and  C_9
REMARK                            x       y       z     vdW  Elec       q    Type
REMARK                         _______ _______ _______ _____ _____    ______ ____
ROOT
ATOM      1  P   UNL     1      34.356 -15.877 -21.201  0.00  0.00    +0.517 P 
ATOM      2  F   UNL     1      34.949 -14.635 -20.442  0.00  0.00    -0.133 F 
ATOM      3  O   UNL     1      32.864 -15.943 -21.066  0.00  0.00    -0.223 OA
ENDROOT
BRANCH   1   4
ATOM      4  O   UNL     1      34.922 -15.730 -22.708  0.00  0.00    -0.273 OA
BRANCH   4   5
ATOM      5  C   UNL     1      34.003 -15.841 -23.780  0.00  0.00    +0.127 C 
ATOM      6  C   UNL     1      33.601 -14.448 -24.241  0.00  0.00    +0.033 C 
ATOM      7  C   UNL     1      34.638 -16.648 -24.903  0.00  0.00    +0.033 C 
ENDBRANCH   4   5
ENDBRANCH   1   4
BRANCH   1   8
ATOM      8  O   UNL     1      35.160 -17.139 -20.586  0.00  0.00    -0.273 OA
BRANCH   8   9
ATOM      9  C   UNL     1      35.260 -18.329 -21.347  0.00  0.00    +0.127 C 
ATOM     10  C   UNL     1      36.539 -19.060 -20.968  0.00  0.00    +0.033 C 
ATOM     11  C   UNL     1      34.026 -19.184 -21.105  0.00  0.00    +0.033 C 
ENDBRANCH   8   9
ENDBRANCH   1   8
TORSDOF 4
ENDMDL
MODEL 7
REMARK VINA RESULT:      -5.4      3.021      4.963
REMARK  Name = 5936
REMARK  4 active torsions:
REMARK  status: ('A' for Active; 'I' for Inactive)
REMARK    1  A    between atoms: P_1  and  O_4
REMARK    2  A    between atoms: P_1  and  O_8
REMARK    3  A    between atoms: O_4  and  C_5
REMARK    4  A    between atoms: O_8  and  C_9
REMARK                            x       y       z     vdW  Elec       q    Type
REMARK                         _______ _______ _______ _____ _____    ______ ____
ROOT
ATOM      1  P   UNL     1      34.177 -15.857 -21.363  0.00  0.00    +0.517 P 
ATOM      2  F   UNL     1      32.633 -15.602 -21.233  0.00  0.00    -0.133 F 
ATOM      3  O   UNL     1      34.906 -15.473 -20.110  0.00  0.00    -0.223 OA
ENDROOT
BRANCH   1   4
ATOM      4  O   UNL     1      34.289 -17.411 -21.795  0.00  0.00    -0.273 OA
BRANCH   4   5
ATOM      5  C   UNL     1      35.534 -17.880 -22.283  0.00  0.00    +0.127 C 
ATOM      6  C   UNL     1      36.194 -18.744 -21.220  0.00  0.00    +0.033 C 
ATOM      7  C   UNL     1      35.307 -18.648 -23.577  0.00  0.00    +0.033 C 
ENDBRANCH   4   5
ENDBRANCH   1   4
BRANCH   1   8
ATOM      8  O   UNL     1      34.606 -15.035 -22.689  0.00  0.00    -0.273 OA
BRANCH   8   9
ATOM      9  C   UNL     1      33.604 -14.642 -23.610  0.00  0.00    +0.127 C 
ATOM     10  C   UNL     1      33.761 -13.161 -23.920  0.00  0.00    +0.033 C 
ATOM     11  C   UNL     1      33.711 -15.498 -24.862  0.00  0.00    +0.033 C 
ENDBRANCH   8   9
ENDBRANCH   1   8
TORSDOF 4
ENDMDL
MODEL 8
REMARK VINA RESULT:      -5.3      2.646      3.885
REMARK  Name = 5936
REMARK  4 active torsions:
REMARK  status: ('A' for Active; 'I' for Inactive)
REMARK    1  A    between atoms: P_1  and  O_4
REMARK    2  A    between atoms: P_1  and  O_8
REMARK    3  A    between atoms: O_4  and  C_5
REMARK    4  A    between atoms: O_8  and  C_9
REMARK                            x       y       z     vdW  Elec       q    Type
REMARK                         _______ _______ _______ _____ _____    ______ ____
ROOT
ATOM      1  P   UNL     1      35.071 -17.905 -21.487  0.00  0.00    +0.517 P 
ATOM      2  F   UNL     1      36.323 -18.424 -20.692  0.00  0.00    -0.133 F 
ATOM      3  O   UNL     1      33.864 -18.756 -21.228  0.00  0.00    -0.223 OA
ENDROOT
BRANCH   1   4
ATOM      4  O   UNL     1      34.944 -16.352 -21.060  0.00  0.00    -0.273 OA
BRANCH   4   5
ATOM      5  C   UNL     1      33.848 -15.609 -21.565  0.00  0.00    +0.127 C 
ATOM      6  C   UNL     1      32.993 -15.126 -20.403  0.00  0.00    +0.033 C 
ATOM      7  C   UNL     1      34.372 -14.451 -22.403  0.00  0.00    +0.033 C 
ENDBRANCH   4   5
ENDBRANCH   1   4
BRANCH   1   8
ATOM      8  O   UNL     1      35.567 -17.865 -23.027  0.00  0.00    -0.273 OA
BRANCH   8   9
ATOM      9  C   UNL     1      34.624 -18.087 -24.060  0.00  0.00    +0.127 C 
ATOM     10  C   UNL     1      34.783 -17.010 -25.123  0.00  0.00    +0.033 C 
ATOM     11  C   UNL     1      34.827 -19.482 -24.632  0.00  0.00    +0.033 C 
ENDBRANCH   8   9
ENDBRANCH   1   8
TORSDOF 4
ENDMDL
MODEL 9
REMARK VINA RESULT:      -5.3      9.190     10.608
REMARK  Name = 5936
REMARK  4 active torsions:
REMARK  status: ('A' for Active; 'I' for Inactive)
REMARK    1  A    between atoms: P_1  and  O_4
REMARK    2  A    between atoms: P_1  and  O_8
REMARK    3  A    between atoms: O_4  and  C_5
REMARK    4  A    between atoms: O_8  and  C_9
REMARK                            x       y       z     vdW  Elec       q    Type
REMARK                         _______ _______ _______ _____ _____    ______ ____
ROOT
ATOM      1  P   UNL     1      36.785 -26.506 -15.098  0.00  0.00    +0.517 P 
ATOM      2  F   UNL     1      36.828 -27.318 -13.754  0.00  0.00    -0.133 F 
ATOM      3  O   UNL     1      36.844 -27.413 -16.291  0.00  0.00    -0.223 OA
ENDROOT
BRANCH   1   4
ATOM      4  O   UNL     1      35.455 -25.595 -14.971  0.00  0.00    -0.273 OA
BRANCH   4   5
ATOM      5  C   UNL     1      35.604 -24.255 -14.538  0.00  0.00    +0.127 C 
ATOM      6  C   UNL     1      34.939 -23.328 -15.544  0.00  0.00    +0.033 C 
ATOM      7  C   UNL     1      35.001 -24.108 -13.148  0.00  0.00    +0.033 C 
ENDBRANCH   4   5
ENDBRANCH   1   4
BRANCH   1   8
ATOM      8  O   UNL     1      38.010 -25.458 -14.969  0.00  0.00    -0.273 OA
BRANCH   8   9
ATOM      9  C   UNL     1      39.007 -25.681 -13.987  0.00  0.00    +0.127 C 
ATOM     10  C   UNL     1      40.377 -25.439 -14.601  0.00  0.00    +0.033 C 
ATOM     11  C   UNL     1      38.749 -24.770 -12.797  0.00  0.00    +0.033 C 
ENDBRANCH   8   9
ENDBRANCH   1   8
TORSDOF 4
ENDMDL
