MODEL 1
REMARK VINA RESULT:      -3.9      0.000      0.000
REMARK  Name = 5179950
REMARK  2 active torsions:
REMARK  status: ('A' for Active; 'I' for Inactive)
REMARK    1  A    between atoms: C_1  and  C_4
REMARK    2  A    between atoms: C_1  and  S_5
REMARK                            x       y       z     vdW  Elec       q    Type
REMARK                         _______ _______ _______ _____ _____    ______ ____
ROOT
ATOM      1  C   UNL     1      39.373 -25.428 -13.840  0.00  0.00    +0.172 C 
ENDROOT
BRANCH   1   4
ATOM      2  O   UNL     1      40.552 -25.919 -15.821  0.00  0.00    -0.245 OA
ATOM      3  O   UNL     1      41.264 -26.834 -13.849  0.00  0.00    -0.245 OA
ATOM      4  C   UNL     1      40.513 -26.120 -14.573  0.00  0.00    +0.376 C 
ENDBRANCH   1   4
BRANCH   1   5
ATOM      5  S   UNL     1      37.885 -26.069 -14.644  0.00  0.00    -0.128 S 
ATOM      6  C   UNL     1      37.079 -24.492 -15.014  0.00  0.00    +0.070 C 
ENDBRANCH   1   5
TORSDOF 2
ENDMDL
MODEL 2
REMARK VINA RESULT:      -3.9     10.815     12.026
REMARK  Name = 5179950
REMARK  2 active torsions:
REMARK  status: ('A' for Active; 'I' for Inactive)
REMARK    1  A    between atoms: C_1  and  C_4
REMARK    2  A    between atoms: C_1  and  S_5
REMARK                            x       y       z     vdW  Elec       q    Type
REMARK                         _______ _______ _______ _____ _____    ______ ____
ROOT
ATOM      1  C   UNL     1      28.307 -22.537 -15.793  0.00  0.00    +0.172 C 
ENDROOT
BRANCH   1   4
ATOM      2  O   UNL     1      27.022 -21.382 -17.397  0.00  0.00    -0.245 OA
ATOM      3  O   UNL     1      27.546 -23.578 -17.767  0.00  0.00    -0.245 OA
ATOM      4  C   UNL     1      27.561 -22.492 -17.119  0.00  0.00    +0.376 C 
ENDBRANCH   1   4
BRANCH   1   5
ATOM      5  S   UNL     1      28.975 -24.216 -15.725  0.00  0.00    -0.128 S 
ATOM      6  C   UNL     1      30.734 -23.810 -15.838  0.00  0.00    +0.070 C 
ENDBRANCH   1   5
TORSDOF 2
ENDMDL
MODEL 3
REMARK VINA RESULT:      -3.8      1.553      1.752
REMARK  Name = 5179950
REMARK  2 active torsions:
REMARK  status: ('A' for Active; 'I' for Inactive)
REMARK    1  A    between atoms: C_1  and  C_4
REMARK    2  A    between atoms: C_1  and  S_5
REMARK                            x       y       z     vdW  Elec       q    Type
REMARK                         _______ _______ _______ _____ _____    ______ ____
ROOT
ATOM      1  C   UNL     1      38.790 -25.104 -14.641  0.00  0.00    +0.172 C 
ENDROOT
BRANCH   1   4
ATOM      2  O   UNL     1      41.109 -24.684 -14.594  0.00  0.00    -0.245 OA
ATOM      3  O   UNL     1      40.374 -26.850 -14.584  0.00  0.00    -0.245 OA
ATOM      4  C   UNL     1      40.231 -25.594 -14.591  0.00  0.00    +0.376 C 
ENDBRANCH   1   4
BRANCH   1   5
ATOM      5  S   UNL     1      38.069 -25.716 -13.099  0.00  0.00    -0.128 S 
ATOM      6  C   UNL     1      38.212 -24.204 -12.117  0.00  0.00    +0.070 C 
ENDBRANCH   1   5
TORSDOF 2
ENDMDL
MODEL 4
REMARK VINA RESULT:      -3.7      2.697      3.400
REMARK  Name = 5179950
REMARK  2 active torsions:
REMARK  status: ('A' for Active; 'I' for Inactive)
REMARK    1  A    between atoms: C_1  and  C_4
REMARK    2  A    between atoms: C_1  and  S_5
REMARK                            x       y       z     vdW  Elec       q    Type
REMARK                         _______ _______ _______ _____ _____    ______ ____
ROOT
ATOM      1  C   UNL     1      36.774 -25.422 -14.197  0.00  0.00    +0.172 C 
ENDROOT
BRANCH   1   4
ATOM      2  O   UNL     1      38.271 -27.163 -14.731  0.00  0.00    -0.245 OA
ATOM      3  O   UNL     1      36.341 -26.948 -15.941  0.00  0.00    -0.245 OA
ATOM      4  C   UNL     1      37.161 -26.635 -15.031  0.00  0.00    +0.376 C 
ENDBRANCH   1   4
BRANCH   1   5
ATOM      5  S   UNL     1      37.385 -25.819 -12.541  0.00  0.00    -0.128 S 
ATOM      6  C   UNL     1      38.119 -24.216 -12.135  0.00  0.00    +0.070 C 
ENDBRANCH   1   5
TORSDOF 2
ENDMDL
MODEL 5
REMARK VINA RESULT:      -3.7     10.418     10.699
REMARK  Name = 5179950
REMARK  2 active torsions:
REMARK  status: ('A' for Active; 'I' for Inactive)
REMARK    1  A    between atoms: C_1  and  C_4
REMARK    2  A    between atoms: C_1  and  S_5
REMARK                            x       y       z     vdW  Elec       q    Type
REMARK                         _______ _______ _______ _____ _____    ______ ____
ROOT
ATOM      1  C   UNL     1      41.070 -15.590 -15.632  0.00  0.00    +0.172 C 
ENDROOT
BRANCH   1   4
ATOM      2  O   UNL     1      41.414 -17.545 -16.903  0.00  0.00    -0.245 OA
ATOM      3  O   UNL     1      43.229 -16.330 -16.224  0.00  0.00    -0.245 OA
ATOM      4  C   UNL     1      41.994 -16.579 -16.329  0.00  0.00    +0.376 C 
ENDBRANCH   1   4
BRANCH   1   5
ATOM      5  S   UNL     1      41.649 -13.975 -16.205  0.00  0.00    -0.128 S 
ATOM      6  C   UNL     1      41.187 -14.126 -17.947  0.00  0.00    +0.070 C 
ENDBRANCH   1   5
TORSDOF 2
ENDMDL
MODEL 6
REMARK VINA RESULT:      -3.7     10.424     10.732
REMARK  Name = 5179950
REMARK  2 active torsions:
REMARK  status: ('A' for Active; 'I' for Inactive)
REMARK    1  A    between atoms: C_1  and  C_4
REMARK    2  A    between atoms: C_1  and  S_5
REMARK                            x       y       z     vdW  Elec       q    Type
REMARK                         _______ _______ _______ _____ _____    ______ ____
ROOT
ATOM      1  C   UNL     1      41.043 -15.566 -15.643  0.00  0.00    +0.172 C 
ENDROOT
BRANCH   1   4
ATOM      2  O   UNL     1      43.207 -16.313 -16.206  0.00  0.00    -0.245 OA
ATOM      3  O   UNL     1      41.399 -17.533 -16.894  0.00  0.00    -0.245 OA
ATOM      4  C   UNL     1      41.974 -16.574 -16.303  0.00  0.00    +0.376 C 
ENDBRANCH   1   4
BRANCH   1   5
ATOM      5  S   UNL     1      41.646 -13.965 -16.232  0.00  0.00    -0.128 S 
ATOM      6  C   UNL     1      41.175 -14.125 -17.971  0.00  0.00    +0.070 C 
ENDBRANCH   1   5
TORSDOF 2
ENDMDL
MODEL 7
REMARK VINA RESULT:      -3.6      4.108      4.659
REMARK  Name = 5179950
REMARK  2 active torsions:
REMARK  status: ('A' for Active; 'I' for Inactive)
REMARK    1  A    between atoms: C_1  and  C_4
REMARK    2  A    between atoms: C_1  and  S_5
REMARK                            x       y       z     vdW  Elec       q    Type
REMARK                         _______ _______ _______ _____ _____    ______ ____
ROOT
ATOM      1  C   UNL     1      36.415 -23.522 -12.779  0.00  0.00    +0.172 C 
ENDROOT
BRANCH   1   4
ATOM      2  O   UNL     1      36.668 -23.815 -10.454  0.00  0.00    -0.245 OA
ATOM      3  O   UNL     1      38.306 -22.722 -11.619  0.00  0.00    -0.245 OA
ATOM      4  C   UNL     1      37.212 -23.344 -11.494  0.00  0.00    +0.376 C 
ENDBRANCH   1   4
BRANCH   1   5
ATOM      5  S   UNL     1      37.513 -24.489 -13.843  0.00  0.00    -0.128 S 
ATOM      6  C   UNL     1      37.272 -26.109 -13.075  0.00  0.00    +0.070 C 
ENDBRANCH   1   5
TORSDOF 2
ENDMDL
MODEL 8
REMARK VINA RESULT:      -3.5      8.517      9.231
REMARK  Name = 5179950
REMARK  2 active torsions:
REMARK  status: ('A' for Active; 'I' for Inactive)
REMARK    1  A    between atoms: C_1  and  C_4
REMARK    2  A    between atoms: C_1  and  S_5
REMARK                            x       y       z     vdW  Elec       q    Type
REMARK                         _______ _______ _______ _____ _____    ______ ____
ROOT
ATOM      1  C   UNL     1      34.357 -21.255 -19.735  0.00  0.00    +0.172 C 
ENDROOT
BRANCH   1   4
ATOM      2  O   UNL     1      34.058 -23.579 -19.475  0.00  0.00    -0.245 OA
ATOM      3  O   UNL     1      32.513 -22.154 -18.573  0.00  0.00    -0.245 OA
ATOM      4  C   UNL     1      33.571 -22.445 -19.200  0.00  0.00    +0.376 C 
ENDBRANCH   1   4
BRANCH   1   5
ATOM      5  S   UNL     1      33.098 -20.216 -20.513  0.00  0.00    -0.128 S 
ATOM      6  C   UNL     1      34.185 -18.940 -21.192  0.00  0.00    +0.070 C 
ENDBRANCH   1   5
TORSDOF 2
ENDMDL
MODEL 9
REMARK VINA RESULT:      -3.4     13.200     14.403
REMARK  Name = 5179950
REMARK  2 active torsions:
REMARK  status: ('A' for Active; 'I' for Inactive)
REMARK    1  A    between atoms: C_1  and  C_4
REMARK    2  A    between atoms: C_1  and  S_5
REMARK                            x       y       z     vdW  Elec       q    Type
REMARK                         _______ _______ _______ _____ _____    ______ ____
ROOT
ATOM      1  C   UNL     1      34.498 -16.021 -23.960  0.00  0.00    +0.172 C 
ENDROOT
BRANCH   1   4
ATOM      2  O   UNL     1      34.611 -17.778 -25.527  0.00  0.00    -0.245 OA
ATOM      3  O   UNL     1      33.852 -15.730 -26.209  0.00  0.00    -0.245 OA
ATOM      4  C   UNL     1      34.290 -16.565 -25.366  0.00  0.00    +0.376 C 
ENDBRANCH   1   4
BRANCH   1   5
ATOM      5  S   UNL     1      35.136 -17.437 -23.034  0.00  0.00    -0.128 S 
ATOM      6  C   UNL     1      34.896 -16.794 -21.360  0.00  0.00    +0.070 C 
ENDBRANCH   1   5
TORSDOF 2
ENDMDL
