MODEL 1
REMARK VINA RESULT:      -6.2      0.000      0.000
REMARK  Name = 5496779
REMARK  7 active torsions:
REMARK  status: ('A' for Active; 'I' for Inactive)
REMARK    1  A    between atoms: C_1  and  C_2
REMARK    2  A    between atoms: C_1  and  C_4
REMARK    3  A    between atoms: C_1  and  C_8
REMARK    4  A    between atoms: C_4  and  C_5
REMARK    5  A    between atoms: C_5  and  C_6
REMARK    6  A    between atoms: C_8  and  O_9
REMARK    7  A    between atoms: O_9  and  S_10
REMARK                            x       y       z     vdW  Elec       q    Type
REMARK                         _______ _______ _______ _____ _____    ______ ____
ROOT
ATOM      1  C   UNL     1      30.209 -23.518 -15.765  0.00  0.00    +0.032 C 
ENDROOT
BRANCH   1   2
ATOM      2  C   UNL     1      30.006 -24.721 -14.816  0.00  0.00    +0.003 C 
ATOM      3  C   UNL     1      31.120 -24.940 -13.801  0.00  0.00    +0.000 C 
ENDBRANCH   1   2
BRANCH   1   4
ATOM      4  C   UNL     1      31.625 -22.907 -15.717  0.00  0.00    +0.003 C 
BRANCH   4   5
ATOM      5  C   UNL     1      32.427 -23.118 -17.004  0.00  0.00    +0.000 C 
BRANCH   5   6
ATOM      6  C   UNL     1      33.907 -23.420 -16.750  0.00  0.00    +0.000 C 
ATOM      7  C   UNL     1      34.300 -23.324 -15.283  0.00  0.00    +0.000 C 
ENDBRANCH   5   6
ENDBRANCH   4   5
ENDBRANCH   1   4
BRANCH   1   8
ATOM      8  C   UNL     1      29.168 -22.409 -15.532  0.00  0.00    +0.177 C 
BRANCH   8   9
ATOM      9  O   UNL     1      28.728 -21.879 -16.776  0.00  0.00    -0.200 OA
BRANCH   9  10
ATOM     10  S   UNL     1      27.180 -22.106 -17.252  0.00  0.00    +0.239 S 
ATOM     11  O   UNL     1      26.399 -22.446 -15.862  0.00  0.00    -0.116 OA
ATOM     12  O   UNL     1      26.680 -20.833 -17.735  0.00  0.00    -0.022 OA
ATOM     13  O   UNL     1      27.117 -23.282 -18.099  0.00  0.00    -0.116 OA
ENDBRANCH   9  10
ENDBRANCH   8   9
ENDBRANCH   1   8
TORSDOF 7
ENDMDL
MODEL 2
REMARK VINA RESULT:      -6.1      8.370      9.858
REMARK  Name = 5496779
REMARK  7 active torsions:
REMARK  status: ('A' for Active; 'I' for Inactive)
REMARK    1  A    between atoms: C_1  and  C_2
REMARK    2  A    between atoms: C_1  and  C_4
REMARK    3  A    between atoms: C_1  and  C_8
REMARK    4  A    between atoms: C_4  and  C_5
REMARK    5  A    between atoms: C_5  and  C_6
REMARK    6  A    between atoms: C_8  and  O_9
REMARK    7  A    between atoms: O_9  and  S_10
REMARK                            x       y       z     vdW  Elec       q    Type
REMARK                         _______ _______ _______ _____ _____    ______ ____
ROOT
ATOM      1  C   UNL     1      35.607 -18.341 -22.630  0.00  0.00    +0.032 C 
ENDROOT
BRANCH   1   2
ATOM      2  C   UNL     1      34.919 -19.307 -23.621  0.00  0.00    +0.003 C 
ATOM      3  C   UNL     1      34.422 -18.667 -24.910  0.00  0.00    +0.000 C 
ENDBRANCH   1   2
BRANCH   1   4
ATOM      4  C   UNL     1      35.340 -18.665 -21.145  0.00  0.00    +0.003 C 
BRANCH   4   5
ATOM      5  C   UNL     1      35.337 -20.165 -20.836  0.00  0.00    +0.000 C 
BRANCH   5   6
ATOM      6  C   UNL     1      34.067 -20.630 -20.117  0.00  0.00    +0.000 C 
ATOM      7  C   UNL     1      32.805 -19.937 -20.609  0.00  0.00    +0.000 C 
ENDBRANCH   5   6
ENDBRANCH   4   5
ENDBRANCH   1   4
BRANCH   1   8
ATOM      8  C   UNL     1      35.248 -16.870 -22.902  0.00  0.00    +0.177 C 
BRANCH   8   9
ATOM      9  O   UNL     1      34.045 -16.525 -22.229  0.00  0.00    -0.200 OA
BRANCH   9  10
ATOM     10  S   UNL     1      33.916 -15.071 -21.492  0.00  0.00    +0.239 S 
ATOM     11  O   UNL     1      34.904 -15.208 -20.201  0.00  0.00    -0.116 OA
ATOM     12  O   UNL     1      34.492 -14.078 -22.379  0.00  0.00    -0.022 OA
ATOM     13  O   UNL     1      32.560 -14.911 -21.001  0.00  0.00    -0.116 OA
ENDBRANCH   9  10
ENDBRANCH   8   9
ENDBRANCH   1   8
TORSDOF 7
ENDMDL
MODEL 3
REMARK VINA RESULT:      -6.1      1.405      2.254
REMARK  Name = 5496779
REMARK  7 active torsions:
REMARK  status: ('A' for Active; 'I' for Inactive)
REMARK    1  A    between atoms: C_1  and  C_2
REMARK    2  A    between atoms: C_1  and  C_4
REMARK    3  A    between atoms: C_1  and  C_8
REMARK    4  A    between atoms: C_4  and  C_5
REMARK    5  A    between atoms: C_5  and  C_6
REMARK    6  A    between atoms: C_8  and  O_9
REMARK    7  A    between atoms: O_9  and  S_10
REMARK                            x       y       z     vdW  Elec       q    Type
REMARK                         _______ _______ _______ _____ _____    ______ ____
ROOT
ATOM      1  C   UNL     1      31.511 -23.453 -16.107  0.00  0.00    +0.032 C 
ENDROOT
BRANCH   1   2
ATOM      2  C   UNL     1      32.496 -23.617 -14.928  0.00  0.00    +0.003 C 
ATOM      3  C   UNL     1      32.156 -24.734 -13.950  0.00  0.00    +0.000 C 
ENDBRANCH   1   2
BRANCH   1   4
ATOM      4  C   UNL     1      32.103 -22.713 -17.325  0.00  0.00    +0.003 C 
BRANCH   4   5
ATOM      5  C   UNL     1      33.429 -23.303 -17.815  0.00  0.00    +0.000 C 
BRANCH   5   6
ATOM      6  C   UNL     1      34.233 -22.336 -18.689  0.00  0.00    +0.000 C 
ATOM      7  C   UNL     1      33.364 -21.466 -19.585  0.00  0.00    +0.000 C 
ENDBRANCH   5   6
ENDBRANCH   4   5
ENDBRANCH   1   4
BRANCH   1   8
ATOM      8  C   UNL     1      30.201 -22.768 -15.683  0.00  0.00    +0.177 C 
BRANCH   8   9
ATOM      9  O   UNL     1      29.442 -22.404 -16.829  0.00  0.00    -0.200 OA
BRANCH   9  10
ATOM     10  S   UNL     1      27.818 -22.586 -16.818  0.00  0.00    +0.239 S 
ATOM     11  O   UNL     1      27.579 -23.945 -17.689  0.00  0.00    -0.116 OA
ATOM     12  O   UNL     1      27.418 -22.865 -15.452  0.00  0.00    -0.022 OA
ATOM     13  O   UNL     1      27.216 -21.481 -17.542  0.00  0.00    -0.116 OA
ENDBRANCH   9  10
ENDBRANCH   8   9
ENDBRANCH   1   8
TORSDOF 7
ENDMDL
MODEL 4
REMARK VINA RESULT:      -6.1      8.117      9.578
REMARK  Name = 5496779
REMARK  7 active torsions:
REMARK  status: ('A' for Active; 'I' for Inactive)
REMARK    1  A    between atoms: C_1  and  C_2
REMARK    2  A    between atoms: C_1  and  C_4
REMARK    3  A    between atoms: C_1  and  C_8
REMARK    4  A    between atoms: C_4  and  C_5
REMARK    5  A    between atoms: C_5  and  C_6
REMARK    6  A    between atoms: C_8  and  O_9
REMARK    7  A    between atoms: O_9  and  S_10
REMARK                            x       y       z     vdW  Elec       q    Type
REMARK                         _______ _______ _______ _____ _____    ______ ____
ROOT
ATOM      1  C   UNL     1      35.153 -19.168 -22.344  0.00  0.00    +0.032 C 
ENDROOT
BRANCH   1   2
ATOM      2  C   UNL     1      34.849 -19.408 -23.840  0.00  0.00    +0.003 C 
ATOM      3  C   UNL     1      34.605 -18.150 -24.662  0.00  0.00    +0.000 C 
ENDBRANCH   1   2
BRANCH   1   4
ATOM      4  C   UNL     1      33.949 -19.408 -21.409  0.00  0.00    +0.003 C 
BRANCH   4   5
ATOM      5  C   UNL     1      34.214 -20.457 -20.325  0.00  0.00    +0.000 C 
BRANCH   5   6
ATOM      6  C   UNL     1      35.687 -20.865 -20.227  0.00  0.00    +0.000 C 
ATOM      7  C   UNL     1      36.024 -21.614 -18.947  0.00  0.00    +0.000 C 
ENDBRANCH   5   6
ENDBRANCH   4   5
ENDBRANCH   1   4
BRANCH   1   8
ATOM      8  C   UNL     1      35.729 -17.766 -22.082  0.00  0.00    +0.177 C 
BRANCH   8   9
ATOM      9  O   UNL     1      34.911 -17.063 -21.157  0.00  0.00    -0.200 OA
BRANCH   9  10
ATOM     10  S   UNL     1      34.489 -15.513 -21.462  0.00  0.00    +0.239 S 
ATOM     11  O   UNL     1      32.858 -15.557 -21.476  0.00  0.00    -0.116 OA
ATOM     12  O   UNL     1      34.895 -14.716 -20.320  0.00  0.00    -0.022 OA
ATOM     13  O   UNL     1      34.937 -15.158 -22.796  0.00  0.00    -0.116 OA
ENDBRANCH   9  10
ENDBRANCH   8   9
ENDBRANCH   1   8
TORSDOF 7
ENDMDL
MODEL 5
REMARK VINA RESULT:      -6.0      8.537      9.931
REMARK  Name = 5496779
REMARK  7 active torsions:
REMARK  status: ('A' for Active; 'I' for Inactive)
REMARK    1  A    between atoms: C_1  and  C_2
REMARK    2  A    between atoms: C_1  and  C_4
REMARK    3  A    between atoms: C_1  and  C_8
REMARK    4  A    between atoms: C_4  and  C_5
REMARK    5  A    between atoms: C_5  and  C_6
REMARK    6  A    between atoms: C_8  and  O_9
REMARK    7  A    between atoms: O_9  and  S_10
REMARK                            x       y       z     vdW  Elec       q    Type
REMARK                         _______ _______ _______ _____ _____    ______ ____
ROOT
ATOM      1  C   UNL     1      35.262 -18.068 -21.764  0.00  0.00    +0.032 C 
ENDROOT
BRANCH   1   2
ATOM      2  C   UNL     1      35.685 -18.244 -23.240  0.00  0.00    +0.003 C 
ATOM      3  C   UNL     1      34.721 -19.053 -24.098  0.00  0.00    +0.000 C 
ENDBRANCH   1   2
BRANCH   1   4
ATOM      4  C   UNL     1      34.043 -18.919 -21.350  0.00  0.00    +0.003 C 
BRANCH   4   5
ATOM      5  C   UNL     1      34.413 -20.171 -20.548  0.00  0.00    +0.000 C 
BRANCH   5   6
ATOM      6  C   UNL     1      33.208 -20.835 -19.877  0.00  0.00    +0.000 C 
ATOM      7  C   UNL     1      33.570 -22.079 -19.079  0.00  0.00    +0.000 C 
ENDBRANCH   5   6
ENDBRANCH   4   5
ENDBRANCH   1   4
BRANCH   1   8
ATOM      8  C   UNL     1      35.000 -16.596 -21.403  0.00  0.00    +0.177 C 
BRANCH   8   9
ATOM      9  O   UNL     1      35.143 -15.774 -22.554  0.00  0.00    -0.200 OA
BRANCH   9  10
ATOM     10  S   UNL     1      33.863 -14.921 -23.106  0.00  0.00    +0.239 S 
ATOM     11  O   UNL     1      33.534 -15.613 -24.546  0.00  0.00    -0.116 OA
ATOM     12  O   UNL     1      32.744 -15.192 -22.225  0.00  0.00    -0.022 OA
ATOM     13  O   UNL     1      34.281 -13.553 -23.354  0.00  0.00    -0.116 OA
ENDBRANCH   9  10
ENDBRANCH   8   9
ENDBRANCH   1   8
TORSDOF 7
ENDMDL
MODEL 6
REMARK VINA RESULT:      -6.0      9.546     10.735
REMARK  Name = 5496779
REMARK  7 active torsions:
REMARK  status: ('A' for Active; 'I' for Inactive)
REMARK    1  A    between atoms: C_1  and  C_2
REMARK    2  A    between atoms: C_1  and  C_4
REMARK    3  A    between atoms: C_1  and  C_8
REMARK    4  A    between atoms: C_4  and  C_5
REMARK    5  A    between atoms: C_5  and  C_6
REMARK    6  A    between atoms: C_8  and  O_9
REMARK    7  A    between atoms: O_9  and  S_10
REMARK                            x       y       z     vdW  Elec       q    Type
REMARK                         _______ _______ _______ _____ _____    ______ ____
ROOT
ATOM      1  C   UNL     1      34.398 -16.444 -21.883  0.00  0.00    +0.032 C 
ENDROOT
BRANCH   1   2
ATOM      2  C   UNL     1      34.271 -15.425 -20.728  0.00  0.00    +0.003 C 
ATOM      3  C   UNL     1      32.852 -15.178 -20.234  0.00  0.00    +0.000 C 
ENDBRANCH   1   2
BRANCH   1   4
ATOM      4  C   UNL     1      35.308 -17.649 -21.564  0.00  0.00    +0.003 C 
BRANCH   4   5
ATOM      5  C   UNL     1      34.697 -18.999 -21.952  0.00  0.00    +0.000 C 
BRANCH   5   6
ATOM      6  C   UNL     1      34.355 -19.875 -20.743  0.00  0.00    +0.000 C 
ATOM      7  C   UNL     1      32.859 -20.032 -20.514  0.00  0.00    +0.000 C 
ENDBRANCH   5   6
ENDBRANCH   4   5
ENDBRANCH   1   4
BRANCH   1   8
ATOM      8  C   UNL     1      34.862 -15.788 -23.194  0.00  0.00    +0.177 C 
BRANCH   8   9
ATOM      9  O   UNL     1      34.661 -14.381 -23.138  0.00  0.00    -0.200 OA
BRANCH   9  10
ATOM     10  S   UNL     1      33.529 -13.685 -24.090  0.00  0.00    +0.239 S 
ATOM     11  O   UNL     1      32.258 -13.484 -23.088  0.00  0.00    -0.116 OA
ATOM     12  O   UNL     1      34.013 -12.367 -24.453  0.00  0.00    -0.022 OA
ATOM     13  O   UNL     1      33.139 -14.628 -25.122  0.00  0.00    -0.116 OA
ENDBRANCH   9  10
ENDBRANCH   8   9
ENDBRANCH   1   8
TORSDOF 7
ENDMDL
MODEL 7
REMARK VINA RESULT:      -6.0      6.911      8.688
REMARK  Name = 5496779
REMARK  7 active torsions:
REMARK  status: ('A' for Active; 'I' for Inactive)
REMARK    1  A    between atoms: C_1  and  C_2
REMARK    2  A    between atoms: C_1  and  C_4
REMARK    3  A    between atoms: C_1  and  C_8
REMARK    4  A    between atoms: C_4  and  C_5
REMARK    5  A    between atoms: C_5  and  C_6
REMARK    6  A    between atoms: C_8  and  O_9
REMARK    7  A    between atoms: O_9  and  S_10
REMARK                            x       y       z     vdW  Elec       q    Type
REMARK                         _______ _______ _______ _____ _____    ______ ____
ROOT
ATOM      1  C   UNL     1      37.533 -25.966 -13.881  0.00  0.00    +0.032 C 
ENDROOT
BRANCH   1   2
ATOM      2  C   UNL     1      38.870 -26.120 -14.640  0.00  0.00    +0.003 C 
ATOM      3  C   UNL     1      40.071 -25.457 -13.979  0.00  0.00    +0.000 C 
ENDBRANCH   1   2
BRANCH   1   4
ATOM      4  C   UNL     1      36.455 -25.179 -14.655  0.00  0.00    +0.003 C 
BRANCH   4   5
ATOM      5  C   UNL     1      36.833 -23.717 -14.918  0.00  0.00    +0.000 C 
BRANCH   5   6
ATOM      6  C   UNL     1      35.858 -23.001 -15.856  0.00  0.00    +0.000 C 
ATOM      7  C   UNL     1      34.402 -23.147 -15.441  0.00  0.00    +0.000 C 
ENDBRANCH   5   6
ENDBRANCH   4   5
ENDBRANCH   1   4
BRANCH   1   8
ATOM      8  C   UNL     1      37.719 -25.339 -12.489  0.00  0.00    +0.177 C 
BRANCH   8   9
ATOM      9  O   UNL     1      36.551 -25.531 -11.702  0.00  0.00    -0.200 OA
BRANCH   9  10
ATOM     10  S   UNL     1      35.825 -24.246 -11.000  0.00  0.00    +0.239 S 
ATOM     11  O   UNL     1      37.031 -23.155 -10.861  0.00  0.00    -0.116 OA
ATOM     12  O   UNL     1      34.863 -23.715 -11.946  0.00  0.00    -0.022 OA
ATOM     13  O   UNL     1      35.404 -24.617  -9.662  0.00  0.00    -0.116 OA
ENDBRANCH   9  10
ENDBRANCH   8   9
ENDBRANCH   1   8
TORSDOF 7
ENDMDL
MODEL 8
REMARK VINA RESULT:      -5.9      7.843      9.479
REMARK  Name = 5496779
REMARK  7 active torsions:
REMARK  status: ('A' for Active; 'I' for Inactive)
REMARK    1  A    between atoms: C_1  and  C_2
REMARK    2  A    between atoms: C_1  and  C_4
REMARK    3  A    between atoms: C_1  and  C_8
REMARK    4  A    between atoms: C_4  and  C_5
REMARK    5  A    between atoms: C_5  and  C_6
REMARK    6  A    between atoms: C_8  and  O_9
REMARK    7  A    between atoms: O_9  and  S_10
REMARK                            x       y       z     vdW  Elec       q    Type
REMARK                         _______ _______ _______ _____ _____    ______ ____
ROOT
ATOM      1  C   UNL     1      36.549 -23.494 -15.561  0.00  0.00    +0.032 C 
ENDROOT
BRANCH   1   2
ATOM      2  C   UNL     1      37.431 -22.336 -16.080  0.00  0.00    +0.003 C 
ATOM      3  C   UNL     1      36.973 -21.709 -17.389  0.00  0.00    +0.000 C 
ENDBRANCH   1   2
BRANCH   1   4
ATOM      4  C   UNL     1      35.461 -23.059 -14.558  0.00  0.00    +0.003 C 
BRANCH   4   5
ATOM      5  C   UNL     1      34.051 -23.515 -14.947  0.00  0.00    +0.000 C 
BRANCH   5   6
ATOM      6  C   UNL     1      33.752 -23.342 -16.439  0.00  0.00    +0.000 C 
ATOM      7  C   UNL     1      32.268 -23.212 -16.747  0.00  0.00    +0.000 C 
ENDBRANCH   5   6
ENDBRANCH   4   5
ENDBRANCH   1   4
BRANCH   1   8
ATOM      8  C   UNL     1      37.382 -24.633 -14.947  0.00  0.00    +0.177 C 
BRANCH   8   9
ATOM      9  O   UNL     1      38.769 -24.376 -15.120  0.00  0.00    -0.200 OA
BRANCH   9  10
ATOM     10  S   UNL     1      39.863 -25.518 -14.705  0.00  0.00    +0.239 S 
ATOM     11  O   UNL     1      40.530 -25.945 -16.131  0.00  0.00    -0.116 OA
ATOM     12  O   UNL     1      40.894 -24.870 -13.917  0.00  0.00    -0.022 OA
ATOM     13  O   UNL     1      39.160 -26.673 -14.177  0.00  0.00    -0.116 OA
ENDBRANCH   9  10
ENDBRANCH   8   9
ENDBRANCH   1   8
TORSDOF 7
ENDMDL
MODEL 9
REMARK VINA RESULT:      -5.9      6.400      7.680
REMARK  Name = 5496779
REMARK  7 active torsions:
REMARK  status: ('A' for Active; 'I' for Inactive)
REMARK    1  A    between atoms: C_1  and  C_2
REMARK    2  A    between atoms: C_1  and  C_4
REMARK    3  A    between atoms: C_1  and  C_8
REMARK    4  A    between atoms: C_4  and  C_5
REMARK    5  A    between atoms: C_5  and  C_6
REMARK    6  A    between atoms: C_8  and  O_9
REMARK    7  A    between atoms: O_9  and  S_10
REMARK                            x       y       z     vdW  Elec       q    Type
REMARK                         _______ _______ _______ _____ _____    ______ ____
ROOT
ATOM      1  C   UNL     1      34.494 -23.779 -14.396  0.00  0.00    +0.032 C 
ENDROOT
BRANCH   1   2
ATOM      2  C   UNL     1      33.158 -23.536 -15.133  0.00  0.00    +0.003 C 
ATOM      3  C   UNL     1      33.277 -23.309 -16.634  0.00  0.00    +0.000 C 
ENDBRANCH   1   2
BRANCH   1   4
ATOM      4  C   UNL     1      35.514 -24.616 -15.197  0.00  0.00    +0.003 C 
BRANCH   4   5
ATOM      5  C   UNL     1      36.965 -24.167 -14.999  0.00  0.00    +0.000 C 
BRANCH   5   6
ATOM      6  C   UNL     1      37.174 -22.672 -15.257  0.00  0.00    +0.000 C 
ATOM      7  C   UNL     1      36.916 -22.266 -16.700  0.00  0.00    +0.000 C 
ENDBRANCH   5   6
ENDBRANCH   4   5
ENDBRANCH   1   4
BRANCH   1   8
ATOM      8  C   UNL     1      34.290 -24.415 -13.011  0.00  0.00    +0.177 C 
BRANCH   8   9
ATOM      9  O   UNL     1      34.896 -23.612 -12.006  0.00  0.00    -0.200 OA
BRANCH   9  10
ATOM     10  S   UNL     1      36.089 -24.235 -11.079  0.00  0.00    +0.239 S 
ATOM     11  O   UNL     1      35.360 -24.501  -9.645  0.00  0.00    -0.116 OA
ATOM     12  O   UNL     1      36.446 -25.526 -11.635  0.00  0.00    -0.022 OA
ATOM     13  O   UNL     1      37.108 -23.220 -10.880  0.00  0.00    -0.116 OA
ENDBRANCH   9  10
ENDBRANCH   8   9
ENDBRANCH   1   8
TORSDOF 7
ENDMDL
