MODEL 1
REMARK VINA RESULT:      -8.4      0.000      0.000
REMARK  Name = 118878093
REMARK  2 active torsions:
REMARK  status: ('A' for Active; 'I' for Inactive)
REMARK    1  A    between atoms: N_6  and  C_21
REMARK    2  A    between atoms: C_13  and  C_27
REMARK                            x       y       z     vdW  Elec       q    Type
REMARK                         _______ _______ _______ _____ _____    ______ ____
ROOT
ATOM      1  O   UNL     1      29.870 -26.167 -15.463  0.00  0.00    -0.275 OA
ATOM      2  N   UNL     1      30.728 -24.138 -14.760  0.00  0.00    -0.279 N 
ATOM      3  N   UNL     1      33.474 -23.631 -14.664  0.00  0.00    -0.279 N 
ATOM      4  N   UNL     1      35.298 -22.958 -16.026  0.00  0.00    -0.322 NA
ATOM      5  N   UNL     1      37.541 -23.596 -15.417  0.00  0.00    -0.170 NA
ATOM      6  N   UNL     1      37.131 -22.317 -17.342  0.00  0.00    -0.244 N 
ATOM      7  C   UNL     1      31.130 -22.758 -14.942  0.00  0.00    +0.095 C 
ATOM      8  C   UNL     1      31.422 -24.595 -13.576  0.00  0.00    +0.095 C 
ATOM      9  C   UNL     1      31.255 -23.417 -12.608  0.00  0.00    +0.023 C 
ATOM     10  C   UNL     1      31.062 -22.195 -13.516  0.00  0.00    +0.023 C 
ATOM     11  C   UNL     1      32.898 -24.798 -13.954  0.00  0.00    +0.113 C 
ATOM     12  C   UNL     1      32.577 -22.762 -15.465  0.00  0.00    +0.113 C 
ATOM     13  C   UNL     1      30.009 -24.955 -15.608  0.00  0.00    +0.231 C 
ATOM     14  C   UNL     1      34.856 -23.611 -14.931  0.00  0.00    +0.198 C 
ATOM     15  C   UNL     1      35.683 -24.271 -14.045  0.00  0.00    +0.070 C 
ATOM     16  C   UNL     1      37.030 -24.229 -14.342  0.00  0.00    +0.116 C 
ATOM     17  C   UNL     1      36.632 -22.990 -16.205  0.00  0.00    +0.150 C 
ATOM     18  H   UNL     1      38.110 -22.366 -17.433  0.00  0.00    +0.165 HD
ENDROOT
BRANCH   6  21
ATOM     19  N   UNL     1      35.073 -20.808 -19.824  0.00  0.00    -0.207 N 
ATOM     20  N   UNL     1      36.177 -20.076 -20.049  0.00  0.00    -0.175 NA
ATOM     21  C   UNL     1      36.504 -21.588 -18.369  0.00  0.00    +0.095 C 
ATOM     22  C   UNL     1      35.216 -21.728 -18.827  0.00  0.00    +0.101 C 
ATOM     23  C   UNL     1      37.047 -20.556 -19.157  0.00  0.00    +0.134 C 
ATOM     24  C   UNL     1      33.885 -20.577 -20.611  0.00  0.00    +0.140 C 
ENDBRANCH   6  21
BRANCH  13  27
ATOM     25  F   UNL     1      27.572 -23.360 -15.298  0.00  0.00    -0.204 F 
ATOM     26  F   UNL     1      27.121 -23.512 -17.465  0.00  0.00    -0.204 F 
ATOM     27  C   UNL     1      29.358 -24.287 -16.773  0.00  0.00    +0.143 C 
ATOM     28  C   UNL     1      28.144 -23.482 -16.544  0.00  0.00    +0.273 C 
ATOM     29  C   UNL     1      29.416 -22.788 -16.858  0.00  0.00    +0.082 C 
ENDBRANCH  13  27
TORSDOF 2
ENDMDL
MODEL 2
REMARK VINA RESULT:      -7.4      3.887      7.386
REMARK  Name = 118878093
REMARK  2 active torsions:
REMARK  status: ('A' for Active; 'I' for Inactive)
REMARK    1  A    between atoms: N_6  and  C_21
REMARK    2  A    between atoms: C_13  and  C_27
REMARK                            x       y       z     vdW  Elec       q    Type
REMARK                         _______ _______ _______ _____ _____    ______ ____
ROOT
ATOM      1  O   UNL     1      36.355 -18.258 -20.147  0.00  0.00    -0.275 OA
ATOM      2  N   UNL     1      35.747 -20.481 -20.333  0.00  0.00    -0.279 N 
ATOM      3  N   UNL     1      35.405 -22.128 -18.102  0.00  0.00    -0.279 N 
ATOM      4  N   UNL     1      33.813 -22.720 -16.443  0.00  0.00    -0.322 NA
ATOM      5  N   UNL     1      34.565 -23.579 -14.321  0.00  0.00    -0.170 NA
ATOM      6  N   UNL     1      32.277 -23.315 -14.773  0.00  0.00    -0.244 N 
ATOM      7  C   UNL     1      34.798 -21.567 -20.479  0.00  0.00    +0.095 C 
ATOM      8  C   UNL     1      36.946 -21.081 -19.791  0.00  0.00    +0.095 C 
ATOM      9  C   UNL     1      37.087 -22.366 -20.614  0.00  0.00    +0.023 C 
ATOM     10  C   UNL     1      35.658 -22.690 -21.072  0.00  0.00    +0.023 C 
ATOM     11  C   UNL     1      36.678 -21.395 -18.311  0.00  0.00    +0.113 C 
ATOM     12  C   UNL     1      34.298 -21.937 -19.071  0.00  0.00    +0.113 C 
ATOM     13  C   UNL     1      35.545 -19.123 -20.469  0.00  0.00    +0.231 C 
ATOM     14  C   UNL     1      35.106 -22.621 -16.818  0.00  0.00    +0.198 C 
ATOM     15  C   UNL     1      36.168 -22.977 -16.011  0.00  0.00    +0.070 C 
ATOM     16  C   UNL     1      35.834 -23.454 -14.761  0.00  0.00    +0.116 C 
ATOM     17  C   UNL     1      33.618 -23.199 -15.200  0.00  0.00    +0.150 C 
ATOM     18  H   UNL     1      32.182 -23.670 -13.860  0.00  0.00    +0.165 HD
ENDROOT
BRANCH   6  21
ATOM     19  N   UNL     1      28.943 -22.626 -15.813  0.00  0.00    -0.207 N 
ATOM     20  N   UNL     1      29.520 -22.541 -17.023  0.00  0.00    -0.175 NA
ATOM     21  C   UNL     1      31.050 -23.025 -15.398  0.00  0.00    +0.095 C 
ATOM     22  C   UNL     1      29.816 -22.914 -14.805  0.00  0.00    +0.101 C 
ATOM     23  C   UNL     1      30.808 -22.785 -16.763  0.00  0.00    +0.134 C 
ATOM     24  C   UNL     1      27.521 -22.417 -15.679  0.00  0.00    +0.140 C 
ENDBRANCH   6  21
BRANCH  13  27
ATOM     25  F   UNL     1      34.912 -16.305 -20.954  0.00  0.00    -0.204 F 
ATOM     26  F   UNL     1      32.741 -16.747 -21.071  0.00  0.00    -0.204 F 
ATOM     27  C   UNL     1      34.240 -18.705 -21.061  0.00  0.00    +0.143 C 
ATOM     28  C   UNL     1      33.993 -17.271 -21.298  0.00  0.00    +0.273 C 
ATOM     29  C   UNL     1      34.236 -18.159 -22.461  0.00  0.00    +0.082 C 
ENDBRANCH  13  27
TORSDOF 2
ENDMDL
MODEL 3
REMARK VINA RESULT:      -7.1      4.450      8.008
REMARK  Name = 118878093
REMARK  2 active torsions:
REMARK  status: ('A' for Active; 'I' for Inactive)
REMARK    1  A    between atoms: N_6  and  C_21
REMARK    2  A    between atoms: C_13  and  C_27
REMARK                            x       y       z     vdW  Elec       q    Type
REMARK                         _______ _______ _______ _____ _____    ______ ____
ROOT
ATOM      1  O   UNL     1      35.307 -15.940 -20.653  0.00  0.00    -0.275 OA
ATOM      2  N   UNL     1      34.889 -18.081 -21.421  0.00  0.00    -0.279 N 
ATOM      3  N   UNL     1      35.540 -20.355 -19.934  0.00  0.00    -0.279 N 
ATOM      4  N   UNL     1      34.726 -21.744 -18.190  0.00  0.00    -0.322 NA
ATOM      5  N   UNL     1      36.276 -23.019 -16.857  0.00  0.00    -0.170 NA
ATOM      6  N   UNL     1      33.966 -23.127 -16.455  0.00  0.00    -0.244 N 
ATOM      7  C   UNL     1      34.060 -19.249 -21.643  0.00  0.00    +0.095 C 
ATOM      8  C   UNL     1      36.255 -18.544 -21.527  0.00  0.00    +0.095 C 
ATOM      9  C   UNL     1      36.209 -19.461 -22.755  0.00  0.00    +0.023 C 
ATOM     10  C   UNL     1      34.750 -19.931 -22.831  0.00  0.00    +0.023 C 
ATOM     11  C   UNL     1      36.574 -19.339 -20.251  0.00  0.00    +0.113 C 
ATOM     12  C   UNL     1      34.144 -20.123 -20.379  0.00  0.00    +0.113 C 
ATOM     13  C   UNL     1      34.521 -16.821 -20.994  0.00  0.00    +0.231 C 
ATOM     14  C   UNL     1      35.778 -21.263 -18.885  0.00  0.00    +0.198 C 
ATOM     15  C   UNL     1      37.089 -21.609 -18.629  0.00  0.00    +0.070 C 
ATOM     16  C   UNL     1      37.280 -22.499 -17.593  0.00  0.00    +0.116 C 
ATOM     17  C   UNL     1      35.042 -22.604 -17.205  0.00  0.00    +0.150 C 
ATOM     18  H   UNL     1      34.244 -23.752 -15.747  0.00  0.00    +0.165 HD
ENDROOT
BRANCH   6  21
ATOM     19  N   UNL     1      30.435 -22.873 -16.089  0.00  0.00    -0.207 N 
ATOM     20  N   UNL     1      30.517 -22.342 -17.320  0.00  0.00    -0.175 NA
ATOM     21  C   UNL     1      32.575 -22.933 -16.523  0.00  0.00    +0.095 C 
ATOM     22  C   UNL     1      31.639 -23.243 -15.566  0.00  0.00    +0.101 C 
ATOM     23  C   UNL     1      31.827 -22.381 -17.580  0.00  0.00    +0.134 C 
ATOM     24  C   UNL     1      29.148 -23.003 -15.448  0.00  0.00    +0.140 C 
ENDBRANCH   6  21
BRANCH  13  27
ATOM     25  F   UNL     1      33.472 -14.306 -19.921  0.00  0.00    -0.204 F 
ATOM     26  F   UNL     1      31.449 -15.183 -19.670  0.00  0.00    -0.204 F 
ATOM     27  C   UNL     1      33.057 -16.534 -20.964  0.00  0.00    +0.143 C 
ATOM     28  C   UNL     1      32.597 -15.239 -20.429  0.00  0.00    +0.273 C 
ATOM     29  C   UNL     1      32.520 -15.480 -21.891  0.00  0.00    +0.082 C 
ENDBRANCH  13  27
TORSDOF 2
ENDMDL
