MODEL 1
REMARK VINA RESULT:      -9.0      0.000      0.000
REMARK  Name = 155774
REMARK  10 active torsions:
REMARK  status: ('A' for Active; 'I' for Inactive)
REMARK    1  A    between atoms: N_1  and  C_4
REMARK    2  A    between atoms: N_1  and  C_16
REMARK    3  A    between atoms: C_4  and  C_5
REMARK    4  A    between atoms: C_5  and  N_9
REMARK    5  A    between atoms: C_16  and  C_17
REMARK    6  A    between atoms: C_17  and  O_18
REMARK    7  A    between atoms: C_17  and  C_20
REMARK    8  A    between atoms: C_20  and  O_21
REMARK    9  A    between atoms: O_21  and  C_22
REMARK   10  A    between atoms: C_27  and  O_28
REMARK                            x       y       z     vdW  Elec       q    Type
REMARK                         _______ _______ _______ _____ _____    ______ ____
ROOT
ATOM      1  N   UNL     1      31.268 -24.428 -14.706  0.00  0.00    +0.387 N 
ATOM      2  H   UNL     1      30.398 -24.271 -14.197  0.00  0.00    -0.084 HD
ATOM      3  H   UNL     1      31.126 -25.102 -15.457  0.00  0.00    -0.084 HD
ENDROOT
BRANCH   1   4
ATOM      4  C   UNL     1      32.268 -24.960 -13.788  0.00  0.00    -0.060 C 
BRANCH   4   5
ATOM      5  C   UNL     1      33.352 -23.925 -13.530  0.00  0.00    +0.068 C 
BRANCH   5   9
ATOM      6  O   UNL     1      39.372 -26.148 -13.447  0.00  0.00    -0.350 OA
ATOM      7  O   UNL     1      35.144 -24.687 -15.561  0.00  0.00    -0.253 OA
ATOM      8  N   UNL     1      36.682 -25.509 -14.032  0.00  0.00    -0.259 N 
ATOM      9  N   UNL     1      34.638 -24.553 -13.327  0.00  0.00    -0.291 N 
ATOM     10  C   UNL     1      37.614 -25.914 -15.088  0.00  0.00    +0.127 C 
ATOM     11  C   UNL     1      37.075 -25.936 -12.682  0.00  0.00    +0.127 C 
ATOM     12  C   UNL     1      39.047 -25.569 -14.712  0.00  0.00    +0.164 C 
ATOM     13  C   UNL     1      38.541 -25.613 -12.417  0.00  0.00    +0.164 C 
ATOM     14  C   UNL     1      35.467 -24.899 -14.388  0.00  0.00    +0.304 C 
ATOM     15  H   UNL     1      34.937 -24.742 -12.409  0.00  0.00    +0.151 HD
ENDBRANCH   5   9
ENDBRANCH   4   5
ENDBRANCH   1   4
BRANCH   1  16
ATOM     16  C   UNL     1      31.714 -23.171 -15.289  0.00  0.00    -0.048 C 
BRANCH  16  17
ATOM     17  C   UNL     1      31.616 -23.177 -16.816  0.00  0.00    +0.133 C 
BRANCH  17  18
ATOM     18  O   UNL     1      30.621 -22.225 -17.204  0.00  0.00    -0.383 OA
ATOM     19  H   UNL     1      29.807 -22.386 -16.701  0.00  0.00    +0.210 HD
ENDBRANCH  17  18
BRANCH  17  20
ATOM     20  C   UNL     1      32.929 -22.815 -17.508  0.00  0.00    +0.232 C 
BRANCH  20  21
ATOM     21  O   UNL     1      32.648 -22.410 -18.844  0.00  0.00    -0.473 OA
BRANCH  21  22
ATOM     22  C   UNL     1      33.561 -21.579 -19.439  0.00  0.00    +0.139 C 
ATOM     23  C   UNL     1      33.123 -20.493 -20.198  0.00  0.00    +0.040 C 
ATOM     24  C   UNL     1      34.926 -21.820 -19.288  0.00  0.00    +0.040 C 
ATOM     25  C   UNL     1      34.052 -19.648 -20.804  0.00  0.00    +0.040 C 
ATOM     26  C   UNL     1      35.855 -20.974 -19.895  0.00  0.00    +0.040 C 
ATOM     27  C   UNL     1      35.417 -19.888 -20.653  0.00  0.00    +0.134 C 
BRANCH  27  28
ATOM     28  O   UNL     1      36.324 -19.064 -21.245  0.00  0.00    -0.506 OA
ATOM     29  H   UNL     1      36.577 -18.267 -20.823  0.00  0.00    +0.292 HD
ENDBRANCH  27  28
ENDBRANCH  21  22
ENDBRANCH  20  21
ENDBRANCH  17  20
ENDBRANCH  16  17
ENDBRANCH   1  16
TORSDOF 10
ENDMDL
MODEL 2
REMARK VINA RESULT:      -8.8      1.442      2.195
REMARK  Name = 155774
REMARK  10 active torsions:
REMARK  status: ('A' for Active; 'I' for Inactive)
REMARK    1  A    between atoms: N_1  and  C_4
REMARK    2  A    between atoms: N_1  and  C_16
REMARK    3  A    between atoms: C_4  and  C_5
REMARK    4  A    between atoms: C_5  and  N_9
REMARK    5  A    between atoms: C_16  and  C_17
REMARK    6  A    between atoms: C_17  and  O_18
REMARK    7  A    between atoms: C_17  and  C_20
REMARK    8  A    between atoms: C_20  and  O_21
REMARK    9  A    between atoms: O_21  and  C_22
REMARK   10  A    between atoms: C_27  and  O_28
REMARK                            x       y       z     vdW  Elec       q    Type
REMARK                         _______ _______ _______ _____ _____    ______ ____
ROOT
ATOM      1  N   UNL     1      31.910 -23.025 -15.244  0.00  0.00    +0.387 N 
ATOM      2  H   UNL     1      32.628 -22.353 -14.974  0.00  0.00    -0.084 HD
ATOM      3  H   UNL     1      30.985 -22.598 -15.191  0.00  0.00    -0.084 HD
ENDROOT
BRANCH   1   4
ATOM      4  C   UNL     1      31.951 -24.160 -14.331  0.00  0.00    -0.060 C 
BRANCH   4   5
ATOM      5  C   UNL     1      32.786 -23.822 -13.105  0.00  0.00    +0.068 C 
BRANCH   5   9
ATOM      6  O   UNL     1      39.084 -24.575 -14.083  0.00  0.00    -0.350 OA
ATOM      7  O   UNL     1      34.862 -24.869 -11.520  0.00  0.00    -0.253 OA
ATOM      8  N   UNL     1      36.488 -24.198 -13.032  0.00  0.00    -0.259 N 
ATOM      9  N   UNL     1      34.195 -23.780 -13.426  0.00  0.00    -0.291 N 
ATOM     10  C   UNL     1      37.571 -24.735 -12.206  0.00  0.00    +0.127 C 
ATOM     11  C   UNL     1      36.941 -23.433 -14.202  0.00  0.00    +0.127 C 
ATOM     12  C   UNL     1      38.606 -25.451 -13.061  0.00  0.00    +0.164 C 
ATOM     13  C   UNL     1      38.024 -24.194 -14.960  0.00  0.00    +0.164 C 
ATOM     14  C   UNL     1      35.160 -24.322 -12.587  0.00  0.00    +0.304 C 
ATOM     15  H   UNL     1      34.480 -23.354 -14.266  0.00  0.00    +0.151 HD
ENDBRANCH   5   9
ENDBRANCH   4   5
ENDBRANCH   1   4
BRANCH   1  16
ATOM     16  C   UNL     1      32.146 -23.452 -16.616  0.00  0.00    -0.048 C 
BRANCH  16  17
ATOM     17  C   UNL     1      33.541 -23.059 -17.109  0.00  0.00    +0.133 C 
BRANCH  17  18
ATOM     18  O   UNL     1      34.491 -23.956 -16.526  0.00  0.00    -0.383 OA
ATOM     19  H   UNL     1      35.115 -23.453 -15.979  0.00  0.00    +0.210 HD
ENDBRANCH  17  18
BRANCH  17  20
ATOM     20  C   UNL     1      33.684 -23.121 -18.628  0.00  0.00    +0.232 C 
BRANCH  20  21
ATOM     21  O   UNL     1      32.958 -22.039 -19.203  0.00  0.00    -0.473 OA
BRANCH  21  22
ATOM     22  C   UNL     1      33.692 -21.078 -19.846  0.00  0.00    +0.139 C 
ATOM     23  C   UNL     1      35.086 -21.137 -19.826  0.00  0.00    +0.040 C 
ATOM     24  C   UNL     1      33.047 -20.040 -20.517  0.00  0.00    +0.040 C 
ATOM     25  C   UNL     1      35.834 -20.158 -20.481  0.00  0.00    +0.040 C 
ATOM     26  C   UNL     1      33.795 -19.061 -21.172  0.00  0.00    +0.040 C 
ATOM     27  C   UNL     1      35.189 -19.120 -21.152  0.00  0.00    +0.134 C 
BRANCH  27  28
ATOM     28  O   UNL     1      35.918 -18.164 -21.790  0.00  0.00    -0.506 OA
ATOM     29  H   UNL     1      35.551 -17.315 -21.937  0.00  0.00    +0.292 HD
ENDBRANCH  27  28
ENDBRANCH  21  22
ENDBRANCH  20  21
ENDBRANCH  17  20
ENDBRANCH  16  17
ENDBRANCH   1  16
TORSDOF 10
ENDMDL
MODEL 3
REMARK VINA RESULT:      -8.8      2.547      3.666
REMARK  Name = 155774
REMARK  10 active torsions:
REMARK  status: ('A' for Active; 'I' for Inactive)
REMARK    1  A    between atoms: N_1  and  C_4
REMARK    2  A    between atoms: N_1  and  C_16
REMARK    3  A    between atoms: C_4  and  C_5
REMARK    4  A    between atoms: C_5  and  N_9
REMARK    5  A    between atoms: C_16  and  C_17
REMARK    6  A    between atoms: C_17  and  O_18
REMARK    7  A    between atoms: C_17  and  C_20
REMARK    8  A    between atoms: C_20  and  O_21
REMARK    9  A    between atoms: O_21  and  C_22
REMARK   10  A    between atoms: C_27  and  O_28
REMARK                            x       y       z     vdW  Elec       q    Type
REMARK                         _______ _______ _______ _____ _____    ______ ____
ROOT
ATOM      1  N   UNL     1      32.705 -22.602 -18.133  0.00  0.00    +0.387 N 
ATOM      2  H   UNL     1      32.167 -21.745 -18.009  0.00  0.00    -0.084 HD
ATOM      3  H   UNL     1      32.139 -23.316 -18.589  0.00  0.00    -0.084 HD
ENDROOT
BRANCH   1   4
ATOM      4  C   UNL     1      33.118 -23.100 -16.827  0.00  0.00    -0.060 C 
BRANCH   4   5
ATOM      5  C   UNL     1      34.633 -23.212 -16.759  0.00  0.00    +0.068 C 
BRANCH   5   9
ATOM      6  O   UNL     1      37.471 -24.440 -11.134  0.00  0.00    -0.350 OA
ATOM      7  O   UNL     1      36.057 -25.429 -15.772  0.00  0.00    -0.253 OA
ATOM      8  N   UNL     1      36.150 -24.541 -13.631  0.00  0.00    -0.259 N 
ATOM      9  N   UNL     1      35.084 -23.385 -15.396  0.00  0.00    -0.291 N 
ATOM     10  C   UNL     1      36.884 -25.698 -13.112  0.00  0.00    +0.127 C 
ATOM     11  C   UNL     1      35.736 -23.576 -12.603  0.00  0.00    +0.127 C 
ATOM     12  C   UNL     1      38.001 -25.260 -12.177  0.00  0.00    +0.164 C 
ATOM     13  C   UNL     1      36.897 -23.247 -11.670  0.00  0.00    +0.164 C 
ATOM     14  C   UNL     1      35.785 -24.513 -14.988  0.00  0.00    +0.304 C 
ATOM     15  H   UNL     1      34.890 -22.681 -14.736  0.00  0.00    +0.151 HD
ENDBRANCH   5   9
ENDBRANCH   4   5
ENDBRANCH   1   4
BRANCH   1  16
ATOM     16  C   UNL     1      33.862 -22.322 -18.972  0.00  0.00    -0.048 C 
BRANCH  16  17
ATOM     17  C   UNL     1      33.557 -21.271 -20.042  0.00  0.00    +0.133 C 
BRANCH  17  18
ATOM     18  O   UNL     1      32.521 -20.417 -19.547  0.00  0.00    -0.383 OA
ATOM     19  H   UNL     1      32.871 -19.872 -18.824  0.00  0.00    +0.210 HD
ENDBRANCH  17  18
BRANCH  17  20
ATOM     20  C   UNL     1      34.765 -20.409 -20.404  0.00  0.00    +0.232 C 
BRANCH  20  21
ATOM     21  O   UNL     1      34.330 -19.068 -20.603  0.00  0.00    -0.473 OA
BRANCH  21  22
ATOM     22  C   UNL     1      34.528 -18.535 -21.850  0.00  0.00    +0.139 C 
ATOM     23  C   UNL     1      34.619 -19.375 -22.960  0.00  0.00    +0.040 C 
ATOM     24  C   UNL     1      34.640 -17.155 -22.009  0.00  0.00    +0.040 C 
ATOM     25  C   UNL     1      34.821 -18.833 -24.229  0.00  0.00    +0.040 C 
ATOM     26  C   UNL     1      34.842 -16.612 -23.278  0.00  0.00    +0.040 C 
ATOM     27  C   UNL     1      34.933 -17.453 -24.388  0.00  0.00    +0.134 C 
BRANCH  27  28
ATOM     28  O   UNL     1      35.130 -16.923 -25.626  0.00  0.00    -0.506 OA
ATOM     29  H   UNL     1      35.848 -16.340 -25.777  0.00  0.00    +0.292 HD
ENDBRANCH  27  28
ENDBRANCH  21  22
ENDBRANCH  20  21
ENDBRANCH  17  20
ENDBRANCH  16  17
ENDBRANCH   1  16
TORSDOF 10
ENDMDL
MODEL 4
REMARK VINA RESULT:      -8.7      3.457      5.159
REMARK  Name = 155774
REMARK  10 active torsions:
REMARK  status: ('A' for Active; 'I' for Inactive)
REMARK    1  A    between atoms: N_1  and  C_4
REMARK    2  A    between atoms: N_1  and  C_16
REMARK    3  A    between atoms: C_4  and  C_5
REMARK    4  A    between atoms: C_5  and  N_9
REMARK    5  A    between atoms: C_16  and  C_17
REMARK    6  A    between atoms: C_17  and  O_18
REMARK    7  A    between atoms: C_17  and  C_20
REMARK    8  A    between atoms: C_20  and  O_21
REMARK    9  A    between atoms: O_21  and  C_22
REMARK   10  A    between atoms: C_27  and  O_28
REMARK                            x       y       z     vdW  Elec       q    Type
REMARK                         _______ _______ _______ _____ _____    ______ ____
ROOT
ATOM      1  N   UNL     1      36.457 -20.819 -19.027  0.00  0.00    +0.387 N 
ATOM      2  H   UNL     1      37.462 -20.647 -19.048  0.00  0.00    -0.084 HD
ATOM      3  H   UNL     1      35.956 -19.971 -18.764  0.00  0.00    -0.084 HD
ENDROOT
BRANCH   1   4
ATOM      4  C   UNL     1      36.171 -21.853 -18.041  0.00  0.00    -0.060 C 
BRANCH   4   5
ATOM      5  C   UNL     1      37.040 -21.662 -16.807  0.00  0.00    +0.068 C 
BRANCH   5   9
ATOM      6  O   UNL     1      36.546 -25.772 -11.902  0.00  0.00    -0.350 OA
ATOM      7  O   UNL     1      38.807 -23.554 -15.703  0.00  0.00    -0.253 OA
ATOM      8  N   UNL     1      37.173 -24.406 -14.296  0.00  0.00    -0.259 N 
ATOM      9  N   UNL     1      36.711 -22.625 -15.780  0.00  0.00    -0.291 N 
ATOM     10  C   UNL     1      38.088 -25.396 -13.724  0.00  0.00    +0.127 C 
ATOM     11  C   UNL     1      35.777 -24.546 -13.856  0.00  0.00    +0.127 C 
ATOM     12  C   UNL     1      37.912 -25.496 -12.217  0.00  0.00    +0.164 C 
ATOM     13  C   UNL     1      35.700 -24.709 -12.342  0.00  0.00    +0.164 C 
ATOM     14  C   UNL     1      37.644 -23.528 -15.287  0.00  0.00    +0.304 C 
ATOM     15  H   UNL     1      35.795 -22.641 -15.419  0.00  0.00    +0.151 HD
ENDBRANCH   5   9
ENDBRANCH   4   5
ENDBRANCH   1   4
BRANCH   1  16
ATOM     16  C   UNL     1      36.015 -21.228 -20.353  0.00  0.00    -0.048 C 
BRANCH  16  17
ATOM     17  C   UNL     1      35.302 -20.096 -21.096  0.00  0.00    +0.133 C 
BRANCH  17  18
ATOM     18  O   UNL     1      34.070 -19.823 -20.421  0.00  0.00    -0.383 OA
ATOM     19  H   UNL     1      33.529 -20.628 -20.400  0.00  0.00    +0.210 HD
ENDBRANCH  17  18
BRANCH  17  20
ATOM     20  C   UNL     1      36.117 -18.805 -21.158  0.00  0.00    +0.232 C 
BRANCH  20  21
ATOM     21  O   UNL     1      35.368 -17.758 -20.550  0.00  0.00    -0.473 OA
BRANCH  21  22
ATOM     22  C   UNL     1      35.050 -16.688 -21.344  0.00  0.00    +0.139 C 
ATOM     23  C   UNL     1      35.219 -16.771 -22.726  0.00  0.00    +0.040 C 
ATOM     24  C   UNL     1      34.558 -15.516 -20.771  0.00  0.00    +0.040 C 
ATOM     25  C   UNL     1      34.894 -15.682 -23.535  0.00  0.00    +0.040 C 
ATOM     26  C   UNL     1      34.234 -14.426 -21.579  0.00  0.00    +0.040 C 
ATOM     27  C   UNL     1      34.403 -14.509 -22.961  0.00  0.00    +0.134 C 
BRANCH  27  28
ATOM     28  O   UNL     1      34.087 -13.446 -23.750  0.00  0.00    -0.506 OA
ATOM     29  H   UNL     1      33.781 -12.650 -23.361  0.00  0.00    +0.292 HD
ENDBRANCH  27  28
ENDBRANCH  21  22
ENDBRANCH  20  21
ENDBRANCH  17  20
ENDBRANCH  16  17
ENDBRANCH   1  16
TORSDOF 10
ENDMDL
MODEL 5
REMARK VINA RESULT:      -8.6      2.677      3.945
REMARK  Name = 155774
REMARK  10 active torsions:
REMARK  status: ('A' for Active; 'I' for Inactive)
REMARK    1  A    between atoms: N_1  and  C_4
REMARK    2  A    between atoms: N_1  and  C_16
REMARK    3  A    between atoms: C_4  and  C_5
REMARK    4  A    between atoms: C_5  and  N_9
REMARK    5  A    between atoms: C_16  and  C_17
REMARK    6  A    between atoms: C_17  and  O_18
REMARK    7  A    between atoms: C_17  and  C_20
REMARK    8  A    between atoms: C_20  and  O_21
REMARK    9  A    between atoms: O_21  and  C_22
REMARK   10  A    between atoms: C_27  and  O_28
REMARK                            x       y       z     vdW  Elec       q    Type
REMARK                         _______ _______ _______ _____ _____    ______ ____
ROOT
ATOM      1  N   UNL     1      35.453 -21.510 -18.296  0.00  0.00    +0.387 N 
ATOM      2  H   UNL     1      35.453 -20.504 -18.462  0.00  0.00    -0.084 HD
ATOM      3  H   UNL     1      34.844 -21.742 -17.513  0.00  0.00    -0.084 HD
ENDROOT
BRANCH   1   4
ATOM      4  C   UNL     1      36.808 -21.941 -17.975  0.00  0.00    -0.060 C 
BRANCH   4   5
ATOM      5  C   UNL     1      37.181 -21.505 -16.567  0.00  0.00    +0.068 C 
BRANCH   5   9
ATOM      6  O   UNL     1      36.574 -25.905 -11.934  0.00  0.00    -0.350 OA
ATOM      7  O   UNL     1      38.847 -23.586 -15.668  0.00  0.00    -0.253 OA
ATOM      8  N   UNL     1      37.209 -24.421 -14.253  0.00  0.00    -0.259 N 
ATOM      9  N   UNL     1      36.821 -22.512 -15.594  0.00  0.00    -0.291 N 
ATOM     10  C   UNL     1      38.071 -25.510 -13.789  0.00  0.00    +0.127 C 
ATOM     11  C   UNL     1      35.824 -24.495 -13.766  0.00  0.00    +0.127 C 
ATOM     12  C   UNL     1      37.944 -25.703 -12.286  0.00  0.00    +0.164 C 
ATOM     13  C   UNL     1      35.791 -24.758 -12.265  0.00  0.00    +0.164 C 
ATOM     14  C   UNL     1      37.705 -23.510 -15.202  0.00  0.00    +0.304 C 
ATOM     15  H   UNL     1      35.921 -22.491 -15.196  0.00  0.00    +0.151 HD
ENDBRANCH   5   9
ENDBRANCH   4   5
ENDBRANCH   1   4
BRANCH   1  16
ATOM     16  C   UNL     1      34.959 -22.190 -19.486  0.00  0.00    -0.048 C 
BRANCH  16  17
ATOM     17  C   UNL     1      33.510 -21.813 -19.804  0.00  0.00    +0.133 C 
BRANCH  17  18
ATOM     18  O   UNL     1      32.705 -22.130 -18.664  0.00  0.00    -0.383 OA
ATOM     19  H   UNL     1      32.017 -21.455 -18.557  0.00  0.00    +0.210 HD
ENDBRANCH  17  18
BRANCH  17  20
ATOM     20  C   UNL     1      33.327 -20.332 -20.130  0.00  0.00    +0.232 C 
BRANCH  20  21
ATOM     21  O   UNL     1      34.610 -19.738 -20.302  0.00  0.00    -0.473 OA
BRANCH  21  22
ATOM     22  C   UNL     1      34.770 -18.925 -21.392  0.00  0.00    +0.139 C 
ATOM     23  C   UNL     1      34.872 -17.544 -21.222  0.00  0.00    +0.040 C 
ATOM     24  C   UNL     1      34.831 -19.477 -22.671  0.00  0.00    +0.040 C 
ATOM     25  C   UNL     1      35.036 -16.716 -22.333  0.00  0.00    +0.040 C 
ATOM     26  C   UNL     1      34.994 -18.649 -23.782  0.00  0.00    +0.040 C 
ATOM     27  C   UNL     1      35.096 -17.267 -23.612  0.00  0.00    +0.134 C 
BRANCH  27  28
ATOM     28  O   UNL     1      35.255 -16.460 -24.696  0.00  0.00    -0.506 OA
ATOM     29  H   UNL     1      35.150 -16.808 -25.559  0.00  0.00    +0.292 HD
ENDBRANCH  27  28
ENDBRANCH  21  22
ENDBRANCH  20  21
ENDBRANCH  17  20
ENDBRANCH  16  17
ENDBRANCH   1  16
TORSDOF 10
ENDMDL
MODEL 6
REMARK VINA RESULT:      -8.6      9.116     14.176
REMARK  Name = 155774
REMARK  10 active torsions:
REMARK  status: ('A' for Active; 'I' for Inactive)
REMARK    1  A    between atoms: N_1  and  C_4
REMARK    2  A    between atoms: N_1  and  C_16
REMARK    3  A    between atoms: C_4  and  C_5
REMARK    4  A    between atoms: C_5  and  N_9
REMARK    5  A    between atoms: C_16  and  C_17
REMARK    6  A    between atoms: C_17  and  O_18
REMARK    7  A    between atoms: C_17  and  C_20
REMARK    8  A    between atoms: C_20  and  O_21
REMARK    9  A    between atoms: O_21  and  C_22
REMARK   10  A    between atoms: C_27  and  O_28
REMARK                            x       y       z     vdW  Elec       q    Type
REMARK                         _______ _______ _______ _____ _____    ______ ____
ROOT
ATOM      1  N   UNL     1      34.508 -14.112 -22.581  0.00  0.00    +0.387 N 
ATOM      2  H   UNL     1      34.908 -13.566 -21.818  0.00  0.00    -0.084 HD
ATOM      3  H   UNL     1      35.208 -14.285 -23.301  0.00  0.00    -0.084 HD
ENDROOT
BRANCH   1   4
ATOM      4  C   UNL     1      33.404 -13.367 -23.173  0.00  0.00    -0.060 C 
BRANCH   4   5
ATOM      5  C   UNL     1      33.936 -12.273 -24.087  0.00  0.00    +0.068 C 
BRANCH   5   9
ATOM      6  O   UNL     1      31.593  -6.308 -23.738  0.00  0.00    -0.350 OA
ATOM      7  O   UNL     1      35.149  -9.735 -24.053  0.00  0.00    -0.253 OA
ATOM      8  N   UNL     1      33.138  -8.671 -23.600  0.00  0.00    -0.259 N 
ATOM      9  N   UNL     1      33.258 -11.018 -23.852  0.00  0.00    -0.291 N 
ATOM     10  C   UNL     1      33.768  -7.349 -23.574  0.00  0.00    +0.127 C 
ATOM     11  C   UNL     1      31.724  -8.676 -23.202  0.00  0.00    +0.127 C 
ATOM     12  C   UNL     1      32.909  -6.321 -24.295  0.00  0.00    +0.164 C 
ATOM     13  C   UNL     1      30.954  -7.572 -23.919  0.00  0.00    +0.164 C 
ATOM     14  C   UNL     1      33.932  -9.803 -23.852  0.00  0.00    +0.304 C 
ATOM     15  H   UNL     1      32.288 -11.025 -23.686  0.00  0.00    +0.151 HD
ENDBRANCH   5   9
ENDBRANCH   4   5
ENDBRANCH   1   4
BRANCH   1  16
ATOM     16  C   UNL     1      34.050 -15.393 -22.061  0.00  0.00    -0.048 C 
BRANCH  16  17
ATOM     17  C   UNL     1      34.645 -16.574 -22.833  0.00  0.00    +0.133 C 
BRANCH  17  18
ATOM     18  O   UNL     1      35.750 -16.093 -23.604  0.00  0.00    -0.383 OA
ATOM     19  H   UNL     1      36.298 -15.511 -23.053  0.00  0.00    +0.210 HD
ENDBRANCH  17  18
BRANCH  17  20
ATOM     20  C   UNL     1      35.138 -17.701 -21.928  0.00  0.00    +0.232 C 
BRANCH  20  21
ATOM     21  O   UNL     1      34.175 -18.750 -21.934  0.00  0.00    -0.473 OA
BRANCH  21  22
ATOM     22  C   UNL     1      34.354 -19.756 -21.022  0.00  0.00    +0.139 C 
ATOM     23  C   UNL     1      33.247 -20.369 -20.434  0.00  0.00    +0.040 C 
ATOM     24  C   UNL     1      35.642 -20.165 -20.679  0.00  0.00    +0.040 C 
ATOM     25  C   UNL     1      33.430 -21.393 -19.505  0.00  0.00    +0.040 C 
ATOM     26  C   UNL     1      35.825 -21.189 -19.750  0.00  0.00    +0.040 C 
ATOM     27  C   UNL     1      34.718 -21.803 -19.162  0.00  0.00    +0.134 C 
BRANCH  27  28
ATOM     28  O   UNL     1      34.897 -22.801 -18.255  0.00  0.00    -0.506 OA
ATOM     29  H   UNL     1      35.056 -22.594 -17.356  0.00  0.00    +0.292 HD
ENDBRANCH  27  28
ENDBRANCH  21  22
ENDBRANCH  20  21
ENDBRANCH  17  20
ENDBRANCH  16  17
ENDBRANCH   1  16
TORSDOF 10
ENDMDL
MODEL 7
REMARK VINA RESULT:      -8.6      8.332     13.209
REMARK  Name = 155774
REMARK  10 active torsions:
REMARK  status: ('A' for Active; 'I' for Inactive)
REMARK    1  A    between atoms: N_1  and  C_4
REMARK    2  A    between atoms: N_1  and  C_16
REMARK    3  A    between atoms: C_4  and  C_5
REMARK    4  A    between atoms: C_5  and  N_9
REMARK    5  A    between atoms: C_16  and  C_17
REMARK    6  A    between atoms: C_17  and  O_18
REMARK    7  A    between atoms: C_17  and  C_20
REMARK    8  A    between atoms: C_20  and  O_21
REMARK    9  A    between atoms: O_21  and  C_22
REMARK   10  A    between atoms: C_27  and  O_28
REMARK                            x       y       z     vdW  Elec       q    Type
REMARK                         _______ _______ _______ _____ _____    ______ ____
ROOT
ATOM      1  N   UNL     1      32.824 -14.655 -22.217  0.00  0.00    +0.387 N 
ATOM      2  H   UNL     1      32.200 -14.929 -22.976  0.00  0.00    -0.084 HD
ATOM      3  H   UNL     1      32.360 -13.996 -21.593  0.00  0.00    -0.084 HD
ENDROOT
BRANCH   1   4
ATOM      4  C   UNL     1      34.004 -14.010 -22.780  0.00  0.00    -0.060 C 
BRANCH   4   5
ATOM      5  C   UNL     1      33.646 -13.285 -24.068  0.00  0.00    +0.068 C 
BRANCH   5   9
ATOM      6  O   UNL     1      33.303  -7.135 -22.266  0.00  0.00    -0.350 OA
ATOM      7  O   UNL     1      31.784 -11.836 -22.534  0.00  0.00    -0.253 OA
ATOM      8  N   UNL     1      32.809  -9.813 -23.021  0.00  0.00    -0.259 N 
ATOM      9  N   UNL     1      33.643 -11.852 -23.879  0.00  0.00    -0.291 N 
ATOM     10  C   UNL     1      31.837  -9.055 -22.229  0.00  0.00    +0.127 C 
ATOM     11  C   UNL     1      33.749  -8.981 -23.783  0.00  0.00    +0.127 C 
ATOM     12  C   UNL     1      32.524  -7.974 -21.411  0.00  0.00    +0.164 C 
ATOM     13  C   UNL     1      34.338  -7.883 -22.904  0.00  0.00    +0.164 C 
ATOM     14  C   UNL     1      32.685 -11.211 -23.103  0.00  0.00    +0.304 C 
ATOM     15  H   UNL     1      34.341 -11.312 -24.314  0.00  0.00    +0.151 HD
ENDBRANCH   5   9
ENDBRANCH   4   5
ENDBRANCH   1   4
BRANCH   1  16
ATOM     16  C   UNL     1      33.194 -15.838 -21.452  0.00  0.00    -0.048 C 
BRANCH  16  17
ATOM     17  C   UNL     1      34.711 -15.990 -21.322  0.00  0.00    +0.133 C 
BRANCH  17  18
ATOM     18  O   UNL     1      35.056 -15.871 -19.939  0.00  0.00    -0.383 OA
ATOM     19  H   UNL     1      34.294 -16.125 -19.394  0.00  0.00    +0.210 HD
ENDBRANCH  17  18
BRANCH  17  20
ATOM     20  C   UNL     1      35.230 -17.330 -21.839  0.00  0.00    +0.232 C 
BRANCH  20  21
ATOM     21  O   UNL     1      34.161 -18.271 -21.833  0.00  0.00    -0.473 OA
BRANCH  21  22
ATOM     22  C   UNL     1      34.322 -19.381 -21.047  0.00  0.00    +0.139 C 
ATOM     23  C   UNL     1      35.604 -19.853 -20.762  0.00  0.00    +0.040 C 
ATOM     24  C   UNL     1      33.207 -20.040 -20.533  0.00  0.00    +0.040 C 
ATOM     25  C   UNL     1      35.768 -20.983 -19.962  0.00  0.00    +0.040 C 
ATOM     26  C   UNL     1      33.371 -21.171 -19.733  0.00  0.00    +0.040 C 
ATOM     27  C   UNL     1      34.653 -21.643 -19.448  0.00  0.00    +0.134 C 
BRANCH  27  28
ATOM     28  O   UNL     1      34.813 -22.746 -18.668  0.00  0.00    -0.506 OA
ATOM     29  H   UNL     1      35.551 -22.812 -18.095  0.00  0.00    +0.292 HD
ENDBRANCH  27  28
ENDBRANCH  21  22
ENDBRANCH  20  21
ENDBRANCH  17  20
ENDBRANCH  16  17
ENDBRANCH   1  16
TORSDOF 10
ENDMDL
MODEL 8
REMARK VINA RESULT:      -8.5      7.442     12.543
REMARK  Name = 155774
REMARK  10 active torsions:
REMARK  status: ('A' for Active; 'I' for Inactive)
REMARK    1  A    between atoms: N_1  and  C_4
REMARK    2  A    between atoms: N_1  and  C_16
REMARK    3  A    between atoms: C_4  and  C_5
REMARK    4  A    between atoms: C_5  and  N_9
REMARK    5  A    between atoms: C_16  and  C_17
REMARK    6  A    between atoms: C_17  and  O_18
REMARK    7  A    between atoms: C_17  and  C_20
REMARK    8  A    between atoms: C_20  and  O_21
REMARK    9  A    between atoms: O_21  and  C_22
REMARK   10  A    between atoms: C_27  and  O_28
REMARK                            x       y       z     vdW  Elec       q    Type
REMARK                         _______ _______ _______ _____ _____    ______ ____
ROOT
ATOM      1  N   UNL     1      33.881 -16.064 -23.549  0.00  0.00    +0.387 N 
ATOM      2  H   UNL     1      33.355 -16.914 -23.346  0.00  0.00    -0.084 HD
ATOM      3  H   UNL     1      33.379 -15.244 -23.210  0.00  0.00    -0.084 HD
ENDROOT
BRANCH   1   4
ATOM      4  C   UNL     1      34.054 -15.942 -24.991  0.00  0.00    -0.060 C 
BRANCH   4   5
ATOM      5  C   UNL     1      33.197 -14.807 -25.531  0.00  0.00    +0.068 C 
BRANCH   5   9
ATOM      6  O   UNL     1      31.635  -9.931 -21.660  0.00  0.00    -0.350 OA
ATOM      7  O   UNL     1      34.008 -12.115 -25.413  0.00  0.00    -0.253 OA
ATOM      8  N   UNL     1      32.884 -11.761 -23.415  0.00  0.00    -0.259 N 
ATOM      9  N   UNL     1      32.853 -13.868 -24.487  0.00  0.00    -0.291 N 
ATOM     10  C   UNL     1      33.311 -10.361 -23.347  0.00  0.00    +0.127 C 
ATOM     11  C   UNL     1      32.172 -12.235 -22.221  0.00  0.00    +0.127 C 
ATOM     12  C   UNL     1      32.167  -9.464 -22.900  0.00  0.00    +0.164 C 
ATOM     13  C   UNL     1      31.091 -11.243 -21.805  0.00  0.00    +0.164 C 
ATOM     14  C   UNL     1      33.295 -12.551 -24.503  0.00  0.00    +0.304 C 
ATOM     15  H   UNL     1      32.288 -14.171 -23.740  0.00  0.00    +0.151 HD
ENDBRANCH   5   9
ENDBRANCH   4   5
ENDBRANCH   1   4
BRANCH   1  16
ATOM     16  C   UNL     1      35.170 -16.130 -22.874  0.00  0.00    -0.048 C 
BRANCH  16  17
ATOM     17  C   UNL     1      35.034 -16.564 -21.413  0.00  0.00    +0.133 C 
BRANCH  17  18
ATOM     18  O   UNL     1      34.901 -15.388 -20.608  0.00  0.00    -0.383 OA
ATOM     19  H   UNL     1      35.026 -15.621 -19.674  0.00  0.00    +0.210 HD
ENDBRANCH  17  18
BRANCH  17  20
ATOM     20  C   UNL     1      33.827 -17.465 -21.160  0.00  0.00    +0.232 C 
BRANCH  20  21
ATOM     21  O   UNL     1      34.076 -18.741 -21.741  0.00  0.00    -0.473 OA
BRANCH  21  22
ATOM     22  C   UNL     1      34.259 -19.786 -20.875  0.00  0.00    +0.139 C 
ATOM     23  C   UNL     1      33.155 -20.443 -20.332  0.00  0.00    +0.040 C 
ATOM     24  C   UNL     1      35.549 -20.193 -20.535  0.00  0.00    +0.040 C 
ATOM     25  C   UNL     1      33.341 -21.508 -19.450  0.00  0.00    +0.040 C 
ATOM     26  C   UNL     1      35.735 -21.258 -19.653  0.00  0.00    +0.040 C 
ATOM     27  C   UNL     1      34.631 -21.915 -19.110  0.00  0.00    +0.134 C 
BRANCH  27  28
ATOM     28  O   UNL     1      34.813 -22.953 -18.250  0.00  0.00    -0.506 OA
ATOM     29  H   UNL     1      35.115 -23.779 -18.571  0.00  0.00    +0.292 HD
ENDBRANCH  27  28
ENDBRANCH  21  22
ENDBRANCH  20  21
ENDBRANCH  17  20
ENDBRANCH  16  17
ENDBRANCH   1  16
TORSDOF 10
ENDMDL
MODEL 9
REMARK VINA RESULT:      -8.5      3.715      6.685
REMARK  Name = 155774
REMARK  10 active torsions:
REMARK  status: ('A' for Active; 'I' for Inactive)
REMARK    1  A    between atoms: N_1  and  C_4
REMARK    2  A    between atoms: N_1  and  C_16
REMARK    3  A    between atoms: C_4  and  C_5
REMARK    4  A    between atoms: C_5  and  N_9
REMARK    5  A    between atoms: C_16  and  C_17
REMARK    6  A    between atoms: C_17  and  O_18
REMARK    7  A    between atoms: C_17  and  C_20
REMARK    8  A    between atoms: C_20  and  O_21
REMARK    9  A    between atoms: O_21  and  C_22
REMARK   10  A    between atoms: C_27  and  O_28
REMARK                            x       y       z     vdW  Elec       q    Type
REMARK                         _______ _______ _______ _____ _____    ______ ____
ROOT
ATOM      1  N   UNL     1      32.822 -20.657 -20.383  0.00  0.00    +0.387 N 
ATOM      2  H   UNL     1      32.017 -20.524 -19.771  0.00  0.00    -0.084 HD
ATOM      3  H   UNL     1      32.619 -21.360 -21.093  0.00  0.00    -0.084 HD
ENDROOT
BRANCH   1   4
ATOM      4  C   UNL     1      33.955 -21.113 -19.588  0.00  0.00    -0.060 C 
BRANCH   4   5
ATOM      5  C   UNL     1      33.828 -22.599 -19.290  0.00  0.00    +0.068 C 
BRANCH   5   9
ATOM      6  O   UNL     1      30.565 -23.339 -13.813  0.00  0.00    -0.350 OA
ATOM      7  O   UNL     1      34.536 -23.591 -16.754  0.00  0.00    -0.253 OA
ATOM      8  N   UNL     1      32.343 -23.516 -16.003  0.00  0.00    -0.259 N 
ATOM      9  N   UNL     1      32.916 -22.837 -18.193  0.00  0.00    -0.291 N 
ATOM     10  C   UNL     1      32.708 -24.039 -14.684  0.00  0.00    +0.127 C 
ATOM     11  C   UNL     1      30.896 -23.378 -16.221  0.00  0.00    +0.127 C 
ATOM     12  C   UNL     1      31.974 -23.295 -13.580  0.00  0.00    +0.164 C 
ATOM     13  C   UNL     1      30.233 -22.683 -15.037  0.00  0.00    +0.164 C 
ATOM     14  C   UNL     1      33.348 -23.330 -16.968  0.00  0.00    +0.304 C 
ATOM     15  H   UNL     1      31.959 -22.643 -18.318  0.00  0.00    +0.151 HD
ENDBRANCH   5   9
ENDBRANCH   4   5
ENDBRANCH   1   4
BRANCH   1  16
ATOM     16  C   UNL     1      33.127 -19.399 -21.050  0.00  0.00    -0.048 C 
BRANCH  16  17
ATOM     17  C   UNL     1      34.611 -19.282 -21.408  0.00  0.00    +0.133 C 
BRANCH  17  18
ATOM     18  O   UNL     1      34.751 -19.506 -22.814  0.00  0.00    -0.383 OA
ATOM     19  H   UNL     1      33.877 -19.671 -23.203  0.00  0.00    +0.210 HD
ENDBRANCH  17  18
BRANCH  17  20
ATOM     20  C   UNL     1      35.208 -17.916 -21.073  0.00  0.00    +0.232 C 
BRANCH  20  21
ATOM     21  O   UNL     1      35.144 -17.090 -22.231  0.00  0.00    -0.473 OA
BRANCH  21  22
ATOM     22  C   UNL     1      34.275 -16.032 -22.186  0.00  0.00    +0.139 C 
ATOM     23  C   UNL     1      34.005 -15.302 -23.344  0.00  0.00    +0.040 C 
ATOM     24  C   UNL     1      33.661 -15.685 -20.983  0.00  0.00    +0.040 C 
ATOM     25  C   UNL     1      33.119 -14.225 -23.297  0.00  0.00    +0.040 C 
ATOM     26  C   UNL     1      32.776 -14.608 -20.937  0.00  0.00    +0.040 C 
ATOM     27  C   UNL     1      32.506 -13.878 -22.095  0.00  0.00    +0.134 C 
BRANCH  27  28
ATOM     28  O   UNL     1      31.642 -12.827 -22.049  0.00  0.00    -0.506 OA
ATOM     29  H   UNL     1      31.699 -12.146 -22.690  0.00  0.00    +0.292 HD
ENDBRANCH  27  28
ENDBRANCH  21  22
ENDBRANCH  20  21
ENDBRANCH  17  20
ENDBRANCH  16  17
ENDBRANCH   1  16
TORSDOF 10
ENDMDL
