MODEL 1
REMARK VINA RESULT:      -9.3      0.000      0.000
REMARK  Name = 448281
REMARK  12 active torsions:
REMARK  status: ('A' for Active; 'I' for Inactive)
REMARK    1  A    between atoms: CA_1  and  N_2
REMARK    2  A    between atoms: CA_1  and  C_15
REMARK    3  A    between atoms: CA_1  and  C_18
REMARK    4  A    between atoms: N_2  and  CA_5
REMARK    5  A    between atoms: CA_5  and  C_7
REMARK    6  A    between atoms: CA_5  and  CB_10
REMARK    7  A    between atoms: C_7  and  O_8
REMARK    8  A    between atoms: CB_10  and  CG_11
REMARK    9  A    between atoms: C_15  and  O_16
REMARK   10  A    between atoms: C_18  and  C_21
REMARK   11  A    between atoms: N_19  and  C_25
REMARK   12  A    between atoms: C_25  and  C_28
REMARK                            x       y       z     vdW  Elec       q    Type
REMARK                         _______ _______ _______ _____ _____    ______ ____
ROOT
ATOM      1  CA  UNL     1      34.759 -17.194 -23.497  0.00  0.00    +0.046 C 
ENDROOT
BRANCH   1   2
ATOM      2  N   UNL     1      35.945 -17.913 -23.056  0.00  0.00    +0.401 N 
ATOM      3  H1  UNL     1      36.145 -18.664 -23.716  0.00  0.00    -0.083 HD
ATOM      4  H2  UNL     1      36.728 -17.260 -23.014  0.00  0.00    -0.083 HD
BRANCH   2   5
ATOM      5  CA  UNL     1      35.739 -18.485 -21.725  0.00  0.00    +0.040 C 
BRANCH   5   7
ATOM      6  OXT UNL     1      37.282 -19.605 -20.198  0.00  0.00    -0.253 OA
ATOM      7  C   UNL     1      37.089 -18.980 -21.231  0.00  0.00    +0.293 C 
BRANCH   7   8
ATOM      8  O   UNL     1      38.095 -18.633 -22.078  0.00  0.00    -0.482 OA
ATOM      9  H   UNL     1      38.006 -17.882 -22.630  0.00  0.00    +0.295 HD
ENDBRANCH   7   8
ENDBRANCH   5   7
BRANCH   5  10
ATOM     10  CB  UNL     1      34.741 -19.654 -21.758  0.00  0.00    -0.010 C 
BRANCH  10  11
ATOM     11  CG  UNL     1      33.966 -19.912 -20.450  0.00  0.00    -0.002 C 
ATOM     12  CD1 UNL     1      32.460 -19.833 -20.720  0.00  0.00    -0.000 C 
ATOM     13  CD2 UNL     1      34.307 -21.267 -19.828  0.00  0.00    -0.000 C 
ENDBRANCH  10  11
ENDBRANCH   5  10
ENDBRANCH   2   5
ENDBRANCH   1   2
BRANCH   1  15
ATOM     14  OXT UNL     1      34.773 -16.685 -25.886  0.00  0.00    -0.253 OA
ATOM     15  C   UNL     1      34.599 -17.483 -24.976  0.00  0.00    +0.294 C 
BRANCH  15  16
ATOM     16  O   UNL     1      34.255 -18.782 -25.173  0.00  0.00    -0.482 OA
ATOM     17  H   UNL     1      34.713 -19.297 -25.808  0.00  0.00    +0.295 HD
ENDBRANCH  15  16
ENDBRANCH   1  15
BRANCH   1  18
ATOM     18  C   UNL     1      34.944 -15.692 -23.239  0.00  0.00    +0.032 C 
BRANCH  18  21
ATOM     19  N   UNL     1      32.990 -14.295 -22.426  0.00  0.00    -0.289 N 
ATOM     20  N   UNL     1      32.923 -14.692 -20.242  0.00  0.00    -0.314 N 
ATOM     21  C   UNL     1      34.012 -15.165 -22.172  0.00  0.00    +0.039 C 
ATOM     22  C   UNL     1      33.951 -15.396 -20.818  0.00  0.00    +0.069 C 
ATOM     23  C   UNL     1      32.364 -14.039 -21.237  0.00  0.00    +0.185 C 
ATOM     24  H   UNL     1      32.661 -14.679 -19.293  0.00  0.00    +0.148 HD
BRANCH  19  25
ATOM     25  C   UNL     1      32.624 -13.736 -23.706  0.00  0.00    +0.119 C 
BRANCH  25  28
ATOM     26 CL   UNL     1      35.727 -10.345 -26.161  0.00  0.00    -0.082 Cl
ATOM     27 CL   UNL     1      32.504  -8.772 -22.127  0.00  0.00    -0.082 Cl
ATOM     28  C   UNL     1      33.127 -12.325 -23.854  0.00  0.00    -0.001 C 
ATOM     29  C   UNL     1      32.640 -11.320 -23.019  0.00  0.00    +0.009 C 
ATOM     30  C   UNL     1      34.082 -12.024 -24.826  0.00  0.00    +0.009 C 
ATOM     31  C   UNL     1      34.549 -10.717 -24.961  0.00  0.00    +0.058 C 
ATOM     32  C   UNL     1      33.107 -10.013 -23.155  0.00  0.00    +0.058 C 
ATOM     33  C   UNL     1      34.062  -9.711 -24.126  0.00  0.00    +0.023 C 
ENDBRANCH  25  28
ENDBRANCH  19  25
ENDBRANCH  18  21
ENDBRANCH   1  18
TORSDOF 12
ENDMDL
MODEL 2
REMARK VINA RESULT:      -8.9      2.667      3.909
REMARK  Name = 448281
REMARK  12 active torsions:
REMARK  status: ('A' for Active; 'I' for Inactive)
REMARK    1  A    between atoms: CA_1  and  N_2
REMARK    2  A    between atoms: CA_1  and  C_15
REMARK    3  A    between atoms: CA_1  and  C_18
REMARK    4  A    between atoms: N_2  and  CA_5
REMARK    5  A    between atoms: CA_5  and  C_7
REMARK    6  A    between atoms: CA_5  and  CB_10
REMARK    7  A    between atoms: C_7  and  O_8
REMARK    8  A    between atoms: CB_10  and  CG_11
REMARK    9  A    between atoms: C_15  and  O_16
REMARK   10  A    between atoms: C_18  and  C_21
REMARK   11  A    between atoms: N_19  and  C_25
REMARK   12  A    between atoms: C_25  and  C_28
REMARK                            x       y       z     vdW  Elec       q    Type
REMARK                         _______ _______ _______ _____ _____    ______ ____
ROOT
ATOM      1  CA  UNL     1      33.530 -14.583 -24.033  0.00  0.00    +0.046 C 
ENDROOT
BRANCH   1   2
ATOM      2  N   UNL     1      34.735 -15.220 -23.522  0.00  0.00    +0.401 N 
ATOM      3  H1  UNL     1      35.297 -15.550 -24.306  0.00  0.00    -0.083 HD
ATOM      4  H2  UNL     1      35.259 -14.536 -22.974  0.00  0.00    -0.083 HD
BRANCH   2   5
ATOM      5  CA  UNL     1      34.398 -16.353 -22.661  0.00  0.00    +0.040 C 
BRANCH   5   7
ATOM      6  OXT UNL     1      34.902 -15.154 -20.593  0.00  0.00    -0.253 OA
ATOM      7  C   UNL     1      34.117 -15.801 -21.273  0.00  0.00    +0.293 C 
BRANCH   7   8
ATOM      8  O   UNL     1      32.866 -16.120 -20.846  0.00  0.00    -0.482 OA
ATOM      9  H   UNL     1      32.117 -15.806 -21.312  0.00  0.00    +0.295 HD
ENDBRANCH   7   8
ENDBRANCH   5   7
BRANCH   5  10
ATOM     10  CB  UNL     1      35.547 -17.372 -22.589  0.00  0.00    -0.010 C 
BRANCH  10  11
ATOM     11  CG  UNL     1      35.187 -18.819 -22.980  0.00  0.00    -0.002 C 
ATOM     12  CD1 UNL     1      34.239 -19.415 -21.935  0.00  0.00    -0.000 C 
ATOM     13  CD2 UNL     1      34.546 -18.905 -24.366  0.00  0.00    -0.000 C 
ENDBRANCH  10  11
ENDBRANCH   5  10
ENDBRANCH   2   5
ENDBRANCH   1   2
BRANCH   1  15
ATOM     14  OXT UNL     1      34.076 -15.852 -26.048  0.00  0.00    -0.253 OA
ATOM     15  C   UNL     1      33.383 -15.024 -25.475  0.00  0.00    +0.294 C 
BRANCH  15  16
ATOM     16  O   UNL     1      32.337 -14.386 -26.064  0.00  0.00    -0.482 OA
ATOM     17  H   UNL     1      31.818 -13.782 -25.570  0.00  0.00    +0.295 HD
ENDBRANCH  15  16
ENDBRANCH   1  15
BRANCH   1  18
ATOM     18  C   UNL     1      33.669 -13.059 -23.927  0.00  0.00    +0.032 C 
BRANCH  18  21
ATOM     19  N   UNL     1      32.418 -11.109 -22.894  0.00  0.00    -0.289 N 
ATOM     20  N   UNL     1      31.115 -12.059 -21.368  0.00  0.00    -0.314 N 
ATOM     21  C   UNL     1      32.676 -12.449 -22.965  0.00  0.00    +0.039 C 
ATOM     22  C   UNL     1      31.860 -13.015 -22.013  0.00  0.00    +0.069 C 
ATOM     23  C   UNL     1      31.475 -10.923 -21.921  0.00  0.00    +0.185 C 
ATOM     24  H   UNL     1      30.456 -12.196 -20.649  0.00  0.00    +0.148 HD
BRANCH  19  25
ATOM     25  C   UNL     1      33.021 -10.067 -23.691  0.00  0.00    +0.119 C 
BRANCH  25  28
ATOM     26 CL   UNL     1      30.935  -5.399 -24.699  0.00  0.00    -0.082 Cl
ATOM     27 CL   UNL     1      32.764  -6.639 -19.775  0.00  0.00    -0.082 Cl
ATOM     28  C   UNL     1      32.625  -8.700 -23.200  0.00  0.00    -0.001 C 
ATOM     29  C   UNL     1      32.853  -8.345 -21.870  0.00  0.00    +0.009 C 
ATOM     30  C   UNL     1      32.032  -7.790 -24.075  0.00  0.00    +0.009 C 
ATOM     31  C   UNL     1      31.667  -6.523 -23.619  0.00  0.00    +0.058 C 
ATOM     32  C   UNL     1      32.487  -7.078 -21.415  0.00  0.00    +0.058 C 
ATOM     33  C   UNL     1      31.894  -6.167 -22.290  0.00  0.00    +0.023 C 
ENDBRANCH  25  28
ENDBRANCH  19  25
ENDBRANCH  18  21
ENDBRANCH   1  18
TORSDOF 12
ENDMDL
MODEL 3
REMARK VINA RESULT:      -8.8      7.389     10.591
REMARK  Name = 448281
REMARK  12 active torsions:
REMARK  status: ('A' for Active; 'I' for Inactive)
REMARK    1  A    between atoms: CA_1  and  N_2
REMARK    2  A    between atoms: CA_1  and  C_15
REMARK    3  A    between atoms: CA_1  and  C_18
REMARK    4  A    between atoms: N_2  and  CA_5
REMARK    5  A    between atoms: CA_5  and  C_7
REMARK    6  A    between atoms: CA_5  and  CB_10
REMARK    7  A    between atoms: C_7  and  O_8
REMARK    8  A    between atoms: CB_10  and  CG_11
REMARK    9  A    between atoms: C_15  and  O_16
REMARK   10  A    between atoms: C_18  and  C_21
REMARK   11  A    between atoms: N_19  and  C_25
REMARK   12  A    between atoms: C_25  and  C_28
REMARK                            x       y       z     vdW  Elec       q    Type
REMARK                         _______ _______ _______ _____ _____    ______ ____
ROOT
ATOM      1  CA  UNL     1      34.742 -24.178 -14.597  0.00  0.00    +0.046 C 
ENDROOT
BRANCH   1   2
ATOM      2  N   UNL     1      35.268 -25.531 -14.700  0.00  0.00    +0.401 N 
ATOM      3  H1  UNL     1      34.717 -26.150 -14.106  0.00  0.00    -0.083 HD
ATOM      4  H2  UNL     1      35.212 -25.830 -15.674  0.00  0.00    -0.083 HD
BRANCH   2   5
ATOM      5  CA  UNL     1      36.667 -25.577 -14.274  0.00  0.00    +0.040 C 
BRANCH   5   7
ATOM      6  OXT UNL     1      38.341 -27.318 -14.645  0.00  0.00    -0.253 OA
ATOM      7  C   UNL     1      37.323 -26.740 -15.001  0.00  0.00    +0.293 C 
BRANCH   7   8
ATOM      8  O   UNL     1      36.646 -27.076 -16.132  0.00  0.00    -0.482 OA
ATOM      9  H   UNL     1      37.116 -27.301 -16.910  0.00  0.00    +0.295 HD
ENDBRANCH   7   8
ENDBRANCH   5   7
BRANCH   5  10
ATOM     10  CB  UNL     1      36.792 -25.780 -12.756  0.00  0.00    -0.010 C 
BRANCH  10  11
ATOM     11  CG  UNL     1      37.631 -24.728 -12.004  0.00  0.00    -0.002 C 
ATOM     12  CD1 UNL     1      38.917 -24.441 -12.786  0.00  0.00    -0.000 C 
ATOM     13  CD2 UNL     1      36.864 -23.424 -11.778  0.00  0.00    -0.000 C 
ENDBRANCH  10  11
ENDBRANCH   5  10
ENDBRANCH   2   5
ENDBRANCH   1   2
BRANCH   1  15
ATOM     14  OXT UNL     1      32.465 -24.956 -14.175  0.00  0.00    -0.253 OA
ATOM     15  C   UNL     1      33.428 -24.277 -13.849  0.00  0.00    +0.294 C 
BRANCH  15  16
ATOM     16  O   UNL     1      33.462 -23.518 -12.723  0.00  0.00    -0.482 OA
ATOM     17  H   UNL     1      32.748 -23.546 -12.116  0.00  0.00    +0.295 HD
ENDBRANCH  15  16
ENDBRANCH   1  15
BRANCH   1  18
ATOM     18  C   UNL     1      34.541 -23.596 -16.002  0.00  0.00    +0.032 C 
BRANCH  18  21
ATOM     19  N   UNL     1      35.812 -22.186 -17.684  0.00  0.00    -0.289 N 
ATOM     20  N   UNL     1      37.490 -21.334 -16.505  0.00  0.00    -0.314 N 
ATOM     21  C   UNL     1      35.662 -22.670 -16.415  0.00  0.00    +0.039 C 
ATOM     22  C   UNL     1      36.710 -22.130 -15.706  0.00  0.00    +0.069 C 
ATOM     23  C   UNL     1      36.924 -21.389 -17.690  0.00  0.00    +0.185 C 
ATOM     24  H   UNL     1      38.297 -20.831 -16.248  0.00  0.00    +0.148 HD
BRANCH  19  25
ATOM     25  C   UNL     1      34.965 -22.456 -18.822  0.00  0.00    +0.119 C 
BRANCH  25  28
ATOM     26 CL   UNL     1      31.760 -18.884 -20.852  0.00  0.00    -0.082 Cl
ATOM     27 CL   UNL     1      37.066 -18.758 -21.832  0.00  0.00    -0.082 Cl
ATOM     28  C   UNL     1      34.778 -21.228 -19.673  0.00  0.00    -0.001 C 
ATOM     29  C   UNL     1      35.880 -20.633 -20.287  0.00  0.00    +0.009 C 
ATOM     30  C   UNL     1      33.505 -20.688 -19.847  0.00  0.00    +0.009 C 
ATOM     31  C   UNL     1      33.332 -19.551 -20.637  0.00  0.00    +0.058 C 
ATOM     32  C   UNL     1      35.708 -19.496 -21.076  0.00  0.00    +0.058 C 
ATOM     33  C   UNL     1      34.433 -18.955 -21.252  0.00  0.00    +0.023 C 
ENDBRANCH  25  28
ENDBRANCH  19  25
ENDBRANCH  18  21
ENDBRANCH   1  18
TORSDOF 12
ENDMDL
MODEL 4
REMARK VINA RESULT:      -8.8      7.281     10.428
REMARK  Name = 448281
REMARK  12 active torsions:
REMARK  status: ('A' for Active; 'I' for Inactive)
REMARK    1  A    between atoms: CA_1  and  N_2
REMARK    2  A    between atoms: CA_1  and  C_15
REMARK    3  A    between atoms: CA_1  and  C_18
REMARK    4  A    between atoms: N_2  and  CA_5
REMARK    5  A    between atoms: CA_5  and  C_7
REMARK    6  A    between atoms: CA_5  and  CB_10
REMARK    7  A    between atoms: C_7  and  O_8
REMARK    8  A    between atoms: CB_10  and  CG_11
REMARK    9  A    between atoms: C_15  and  O_16
REMARK   10  A    between atoms: C_18  and  C_21
REMARK   11  A    between atoms: N_19  and  C_25
REMARK   12  A    between atoms: C_25  and  C_28
REMARK                            x       y       z     vdW  Elec       q    Type
REMARK                         _______ _______ _______ _____ _____    ______ ____
ROOT
ATOM      1  CA  UNL     1      34.700 -24.064 -14.583  0.00  0.00    +0.046 C 
ENDROOT
BRANCH   1   2
ATOM      2  N   UNL     1      35.176 -25.428 -14.410  0.00  0.00    +0.401 N 
ATOM      3  H1  UNL     1      34.655 -25.871 -13.653  0.00  0.00    -0.083 HD
ATOM      4  H2  UNL     1      35.034 -25.937 -15.283  0.00  0.00    -0.083 HD
BRANCH   2   5
ATOM      5  CA  UNL     1      36.602 -25.443 -14.085  0.00  0.00    +0.040 C 
BRANCH   5   7
ATOM      6  OXT UNL     1      38.375 -26.955 -14.817  0.00  0.00    -0.253 OA
ATOM      7  C   UNL     1      37.261 -26.478 -14.981  0.00  0.00    +0.293 C 
BRANCH   7   8
ATOM      8  O   UNL     1      36.462 -26.823 -16.027  0.00  0.00    -0.482 OA
ATOM      9  H   UNL     1      35.590 -26.487 -16.081  0.00  0.00    +0.295 HD
ENDBRANCH   7   8
ENDBRANCH   5   7
BRANCH   5  10
ATOM     10  CB  UNL     1      36.844 -25.806 -12.611  0.00  0.00    -0.010 C 
BRANCH  10  11
ATOM     11  CG  UNL     1      37.058 -24.618 -11.652  0.00  0.00    -0.002 C 
ATOM     12  CD1 UNL     1      37.617 -23.422 -12.430  0.00  0.00    -0.000 C 
ATOM     13  CD2 UNL     1      35.770 -24.209 -10.936  0.00  0.00    -0.000 C 
ENDBRANCH  10  11
ENDBRANCH   5  10
ENDBRANCH   2   5
ENDBRANCH   1   2
BRANCH   1  15
ATOM     14  OXT UNL     1      32.441 -23.192 -14.253  0.00  0.00    -0.253 OA
ATOM     15  C   UNL     1      33.311 -24.007 -13.979  0.00  0.00    +0.294 C 
BRANCH  15  16
ATOM     16  O   UNL     1      33.135 -25.020 -13.091  0.00  0.00    -0.482 OA
ATOM     17  H   UNL     1      33.044 -25.901 -13.396  0.00  0.00    +0.295 HD
ENDBRANCH  15  16
ENDBRANCH   1  15
BRANCH   1  18
ATOM     18  C   UNL     1      34.672 -23.714 -16.077  0.00  0.00    +0.032 C 
BRANCH  18  21
ATOM     19  N   UNL     1      35.856 -22.177 -17.712  0.00  0.00    -0.289 N 
ATOM     20  N   UNL     1      37.481 -21.265 -16.505  0.00  0.00    -0.314 N 
ATOM     21  C   UNL     1      35.736 -22.710 -16.459  0.00  0.00    +0.039 C 
ATOM     22  C   UNL     1      36.751 -22.132 -15.732  0.00  0.00    +0.069 C 
ATOM     23  C   UNL     1      36.918 -21.316 -17.691  0.00  0.00    +0.185 C 
ATOM     24  H   UNL     1      38.257 -20.724 -16.231  0.00  0.00    +0.148 HD
BRANCH  19  25
ATOM     25  C   UNL     1      35.025 -22.462 -18.858  0.00  0.00    +0.119 C 
BRANCH  25  28
ATOM     26 CL   UNL     1      37.050 -18.745 -21.897  0.00  0.00    -0.082 Cl
ATOM     27 CL   UNL     1      31.763 -18.904 -20.823  0.00  0.00    -0.082 Cl
ATOM     28  C   UNL     1      34.816 -21.233 -19.703  0.00  0.00    -0.001 C 
ATOM     29  C   UNL     1      33.536 -20.700 -19.853  0.00  0.00    +0.009 C 
ATOM     30  C   UNL     1      35.903 -20.629 -20.335  0.00  0.00    +0.009 C 
ATOM     31  C   UNL     1      35.709 -19.490 -21.117  0.00  0.00    +0.058 C 
ATOM     32  C   UNL     1      33.342 -19.562 -20.635  0.00  0.00    +0.058 C 
ATOM     33  C   UNL     1      34.429 -18.956 -21.267  0.00  0.00    +0.023 C 
ENDBRANCH  25  28
ENDBRANCH  19  25
ENDBRANCH  18  21
ENDBRANCH   1  18
TORSDOF 12
ENDMDL
MODEL 5
REMARK VINA RESULT:      -8.7      2.531      4.529
REMARK  Name = 448281
REMARK  12 active torsions:
REMARK  status: ('A' for Active; 'I' for Inactive)
REMARK    1  A    between atoms: CA_1  and  N_2
REMARK    2  A    between atoms: CA_1  and  C_15
REMARK    3  A    between atoms: CA_1  and  C_18
REMARK    4  A    between atoms: N_2  and  CA_5
REMARK    5  A    between atoms: CA_5  and  C_7
REMARK    6  A    between atoms: CA_5  and  CB_10
REMARK    7  A    between atoms: C_7  and  O_8
REMARK    8  A    between atoms: CB_10  and  CG_11
REMARK    9  A    between atoms: C_15  and  O_16
REMARK   10  A    between atoms: C_18  and  C_21
REMARK   11  A    between atoms: N_19  and  C_25
REMARK   12  A    between atoms: C_25  and  C_28
REMARK                            x       y       z     vdW  Elec       q    Type
REMARK                         _______ _______ _______ _____ _____    ______ ____
ROOT
ATOM      1  CA  UNL     1      33.935 -14.812 -22.491  0.00  0.00    +0.046 C 
ENDROOT
BRANCH   1   2
ATOM      2  N   UNL     1      33.715 -16.179 -22.936  0.00  0.00    +0.401 N 
ATOM      3  H1  UNL     1      33.626 -16.787 -22.121  0.00  0.00    -0.083 HD
ATOM      4  H2  UNL     1      32.860 -16.208 -23.493  0.00  0.00    -0.083 HD
BRANCH   2   5
ATOM      5  CA  UNL     1      34.829 -16.643 -23.762  0.00  0.00    +0.040 C 
BRANCH   5   7
ATOM      6  OXT UNL     1      34.096 -15.822 -25.943  0.00  0.00    -0.253 OA
ATOM      7  C   UNL     1      34.319 -16.759 -25.189  0.00  0.00    +0.293 C 
BRANCH   7   8
ATOM      8  O   UNL     1      34.117 -18.055 -25.549  0.00  0.00    -0.482 OA
ATOM      9  H   UNL     1      34.074 -18.289 -26.455  0.00  0.00    +0.295 HD
ENDBRANCH   7   8
ENDBRANCH   5   7
BRANCH   5  10
ATOM     10  CB  UNL     1      35.357 -18.006 -23.290  0.00  0.00    -0.010 C 
BRANCH  10  11
ATOM     11  CG  UNL     1      35.117 -18.342 -21.804  0.00  0.00    -0.002 C 
ATOM     12  CD1 UNL     1      34.055 -19.441 -21.690  0.00  0.00    -0.000 C 
ATOM     13  CD2 UNL     1      36.396 -18.786 -21.092  0.00  0.00    -0.000 C 
ENDBRANCH  10  11
ENDBRANCH   5  10
ENDBRANCH   2   5
ENDBRANCH   1   2
BRANCH   1  15
ATOM     14  OXT UNL     1      34.882 -15.204 -20.273  0.00  0.00    -0.253 OA
ATOM     15  C   UNL     1      33.949 -14.843 -20.976  0.00  0.00    +0.294 C 
BRANCH  15  16
ATOM     16  O   UNL     1      32.772 -14.381 -20.479  0.00  0.00    -0.482 OA
ATOM     17  H   UNL     1      32.282 -14.903 -19.874  0.00  0.00    +0.295 HD
ENDBRANCH  15  16
ENDBRANCH   1  15
BRANCH   1  18
ATOM     18  C   UNL     1      32.811 -13.911 -23.019  0.00  0.00    +0.032 C 
BRANCH  18  21
ATOM     19  N   UNL     1      32.962 -11.404 -23.373  0.00  0.00    -0.289 N 
ATOM     20  N   UNL     1      34.398 -11.188 -25.052  0.00  0.00    -0.314 N 
ATOM     21  C   UNL     1      33.334 -12.674 -23.713  0.00  0.00    +0.039 C 
ATOM     22  C   UNL     1      34.220 -12.515 -24.752  0.00  0.00    +0.069 C 
ATOM     23  C   UNL     1      33.626 -10.545 -24.205  0.00  0.00    +0.185 C 
ATOM     24  H   UNL     1      34.977 -10.802 -25.750  0.00  0.00    +0.148 HD
BRANCH  19  25
ATOM     25  C   UNL     1      32.038 -11.020 -22.332  0.00  0.00    +0.119 C 
BRANCH  25  28
ATOM     26 CL   UNL     1      32.666  -6.678 -19.519  0.00  0.00    -0.082 Cl
ATOM     27 CL   UNL     1      30.685  -6.497 -24.537  0.00  0.00    -0.082 Cl
ATOM     28  C   UNL     1      31.916  -9.523 -22.229  0.00  0.00    -0.001 C 
ATOM     29  C   UNL     1      31.414  -8.790 -23.305  0.00  0.00    +0.009 C 
ATOM     30  C   UNL     1      32.303  -8.871 -21.059  0.00  0.00    +0.009 C 
ATOM     31  C   UNL     1      32.189  -7.484 -20.964  0.00  0.00    +0.058 C 
ATOM     32  C   UNL     1      31.300  -7.403 -23.210  0.00  0.00    +0.058 C 
ATOM     33  C   UNL     1      31.687  -6.750 -22.039  0.00  0.00    +0.023 C 
ENDBRANCH  25  28
ENDBRANCH  19  25
ENDBRANCH  18  21
ENDBRANCH   1  18
TORSDOF 12
ENDMDL
MODEL 6
REMARK VINA RESULT:      -8.6      2.554      4.403
REMARK  Name = 448281
REMARK  12 active torsions:
REMARK  status: ('A' for Active; 'I' for Inactive)
REMARK    1  A    between atoms: CA_1  and  N_2
REMARK    2  A    between atoms: CA_1  and  C_15
REMARK    3  A    between atoms: CA_1  and  C_18
REMARK    4  A    between atoms: N_2  and  CA_5
REMARK    5  A    between atoms: CA_5  and  C_7
REMARK    6  A    between atoms: CA_5  and  CB_10
REMARK    7  A    between atoms: C_7  and  O_8
REMARK    8  A    between atoms: CB_10  and  CG_11
REMARK    9  A    between atoms: C_15  and  O_16
REMARK   10  A    between atoms: C_18  and  C_21
REMARK   11  A    between atoms: N_19  and  C_25
REMARK   12  A    between atoms: C_25  and  C_28
REMARK                            x       y       z     vdW  Elec       q    Type
REMARK                         _______ _______ _______ _____ _____    ______ ____
ROOT
ATOM      1  CA  UNL     1      33.943 -14.757 -22.413  0.00  0.00    +0.046 C 
ENDROOT
BRANCH   1   2
ATOM      2  N   UNL     1      33.750 -16.103 -22.931  0.00  0.00    +0.401 N 
ATOM      3  H1  UNL     1      33.719 -16.760 -22.151  0.00  0.00    -0.083 HD
ATOM      4  H2  UNL     1      32.872 -16.130 -23.452  0.00  0.00    -0.083 HD
BRANCH   2   5
ATOM      5  CA  UNL     1      34.842 -16.474 -23.830  0.00  0.00    +0.040 C 
BRANCH   5   7
ATOM      6  OXT UNL     1      33.921 -17.987 -25.513  0.00  0.00    -0.253 OA
ATOM      7  C   UNL     1      34.221 -16.854 -25.165  0.00  0.00    +0.293 C 
BRANCH   7   8
ATOM      8  O   UNL     1      34.038 -15.768 -25.964  0.00  0.00    -0.482 OA
ATOM      9  H   UNL     1      33.183 -15.559 -26.282  0.00  0.00    +0.295 HD
ENDBRANCH   7   8
ENDBRANCH   5   7
BRANCH   5  10
ATOM     10  CB  UNL     1      35.650 -17.660 -23.281  0.00  0.00    -0.010 C 
BRANCH  10  11
ATOM     11  CG  UNL     1      35.134 -18.273 -21.964  0.00  0.00    -0.002 C 
ATOM     12  CD1 UNL     1      34.226 -19.468 -22.273  0.00  0.00    -0.000 C 
ATOM     13  CD2 UNL     1      36.272 -18.717 -21.042  0.00  0.00    -0.000 C 
ENDBRANCH  10  11
ENDBRANCH   5  10
ENDBRANCH   2   5
ENDBRANCH   1   2
BRANCH   1  15
ATOM     14  OXT UNL     1      34.860 -15.280 -20.210  0.00  0.00    -0.253 OA
ATOM     15  C   UNL     1      33.940 -14.867 -20.901  0.00  0.00    +0.294 C 
BRANCH  15  16
ATOM     16  O   UNL     1      32.766 -14.411 -20.392  0.00  0.00    -0.482 OA
ATOM     17  H   UNL     1      32.484 -13.536 -20.574  0.00  0.00    +0.295 HD
ENDBRANCH  15  16
ENDBRANCH   1  15
BRANCH   1  18
ATOM     18  C   UNL     1      32.809 -13.848 -22.907  0.00  0.00    +0.032 C 
BRANCH  18  21
ATOM     19  N   UNL     1      32.915 -11.354 -23.361  0.00  0.00    -0.289 N 
ATOM     20  N   UNL     1      34.377 -11.177 -25.022  0.00  0.00    -0.314 N 
ATOM     21  C   UNL     1      33.319 -12.629 -23.642  0.00  0.00    +0.039 C 
ATOM     22  C   UNL     1      34.221 -12.494 -24.671  0.00  0.00    +0.069 C 
ATOM     23  C   UNL     1      33.576 -10.517 -24.216  0.00  0.00    +0.185 C 
ATOM     24  H   UNL     1      34.961 -10.807 -25.725  0.00  0.00    +0.148 HD
BRANCH  19  25
ATOM     25  C   UNL     1      31.965 -10.949 -22.352  0.00  0.00    +0.119 C 
BRANCH  25  28
ATOM     26 CL   UNL     1      30.739  -6.377 -24.532  0.00  0.00    -0.082 Cl
ATOM     27 CL   UNL     1      32.729  -6.640 -19.523  0.00  0.00    -0.082 Cl
ATOM     28  C   UNL     1      31.886  -9.449 -22.243  0.00  0.00    -0.001 C 
ATOM     29  C   UNL     1      32.297  -8.814 -21.070  0.00  0.00    +0.009 C 
ATOM     30  C   UNL     1      31.404  -8.696 -23.313  0.00  0.00    +0.009 C 
ATOM     31  C   UNL     1      31.334  -7.307 -23.211  0.00  0.00    +0.058 C 
ATOM     32  C   UNL     1      32.226  -7.425 -20.969  0.00  0.00    +0.058 C 
ATOM     33  C   UNL     1      31.744  -6.671 -22.040  0.00  0.00    +0.023 C 
ENDBRANCH  25  28
ENDBRANCH  19  25
ENDBRANCH  18  21
ENDBRANCH   1  18
TORSDOF 12
ENDMDL
MODEL 7
REMARK VINA RESULT:      -8.6      2.271      4.133
REMARK  Name = 448281
REMARK  12 active torsions:
REMARK  status: ('A' for Active; 'I' for Inactive)
REMARK    1  A    between atoms: CA_1  and  N_2
REMARK    2  A    between atoms: CA_1  and  C_15
REMARK    3  A    between atoms: CA_1  and  C_18
REMARK    4  A    between atoms: N_2  and  CA_5
REMARK    5  A    between atoms: CA_5  and  C_7
REMARK    6  A    between atoms: CA_5  and  CB_10
REMARK    7  A    between atoms: C_7  and  O_8
REMARK    8  A    between atoms: CB_10  and  CG_11
REMARK    9  A    between atoms: C_15  and  O_16
REMARK   10  A    between atoms: C_18  and  C_21
REMARK   11  A    between atoms: N_19  and  C_25
REMARK   12  A    between atoms: C_25  and  C_28
REMARK                            x       y       z     vdW  Elec       q    Type
REMARK                         _______ _______ _______ _____ _____    ______ ____
ROOT
ATOM      1  CA  UNL     1      34.006 -15.125 -22.767  0.00  0.00    +0.046 C 
ENDROOT
BRANCH   1   2
ATOM      2  N   UNL     1      33.833 -16.559 -22.937  0.00  0.00    +0.401 N 
ATOM      3  H1  UNL     1      33.717 -16.994 -22.022  0.00  0.00    -0.083 HD
ATOM      4  H2  UNL     1      33.007 -16.723 -23.514  0.00  0.00    -0.083 HD
BRANCH   2   5
ATOM      5  CA  UNL     1      34.995 -17.146 -23.604  0.00  0.00    +0.040 C 
BRANCH   5   7
ATOM      6  OXT UNL     1      33.789 -18.081 -25.513  0.00  0.00    -0.253 OA
ATOM      7  C   UNL     1      34.637 -17.318 -25.072  0.00  0.00    +0.293 C 
BRANCH   7   8
ATOM      8  O   UNL     1      35.390 -16.516 -25.872  0.00  0.00    -0.482 OA
ATOM      9  H   UNL     1      35.443 -15.597 -25.699  0.00  0.00    +0.295 HD
ENDBRANCH   7   8
ENDBRANCH   5   7
BRANCH   5  10
ATOM     10  CB  UNL     1      35.367 -18.510 -23.001  0.00  0.00    -0.010 C 
BRANCH  10  11
ATOM     11  CG  UNL     1      35.209 -18.634 -21.472  0.00  0.00    -0.002 C 
ATOM     12  CD1 UNL     1      34.035 -19.563 -21.148  0.00  0.00    -0.000 C 
ATOM     13  CD2 UNL     1      36.479 -19.154 -20.796  0.00  0.00    -0.000 C 
ENDBRANCH  10  11
ENDBRANCH   5  10
ENDBRANCH   2   5
ENDBRANCH   1   2
BRANCH   1  15
ATOM     14  OXT UNL     1      35.100 -15.211 -20.584  0.00  0.00    -0.253 OA
ATOM     15  C   UNL     1      34.151 -14.877 -21.279  0.00  0.00    +0.294 C 
BRANCH  15  16
ATOM     16  O   UNL     1      33.078 -14.193 -20.802  0.00  0.00    -0.482 OA
ATOM     17  H   UNL     1      32.882 -14.208 -19.886  0.00  0.00    +0.295 HD
ENDBRANCH  15  16
ENDBRANCH   1  15
BRANCH   1  18
ATOM     18  C   UNL     1      32.787 -14.388 -23.338  0.00  0.00    +0.032 C 
BRANCH  18  21
ATOM     19  N   UNL     1      33.661 -12.693 -25.010  0.00  0.00    -0.289 N 
ATOM     20  N   UNL     1      33.118 -13.558 -26.981  0.00  0.00    -0.314 N 
ATOM     21  C   UNL     1      33.023 -13.870 -24.738  0.00  0.00    +0.039 C 
ATOM     22  C   UNL     1      32.697 -14.386 -25.971  0.00  0.00    +0.069 C 
ATOM     23  C   UNL     1      33.694 -12.548 -26.369  0.00  0.00    +0.185 C 
ATOM     24  H   UNL     1      33.011 -13.693 -27.951  0.00  0.00    +0.148 HD
BRANCH  19  25
ATOM     25  C   UNL     1      34.206 -11.760 -24.051  0.00  0.00    +0.119 C 
BRANCH  25  28
ATOM     26 CL   UNL     1      30.404 -10.972 -20.575  0.00  0.00    -0.082 Cl
ATOM     27 CL   UNL     1      31.677  -7.208 -24.228  0.00  0.00    -0.082 Cl
ATOM     28  C   UNL     1      33.137 -10.858 -23.494  0.00  0.00    -0.001 C 
ATOM     29  C   UNL     1      32.926  -9.599 -24.055  0.00  0.00    +0.009 C 
ATOM     30  C   UNL     1      32.358 -11.283 -22.418  0.00  0.00    +0.009 C 
ATOM     31  C   UNL     1      31.366 -10.447 -21.903  0.00  0.00    +0.058 C 
ATOM     32  C   UNL     1      31.936  -8.763 -23.539  0.00  0.00    +0.058 C 
ATOM     33  C   UNL     1      31.155  -9.188 -22.464  0.00  0.00    +0.023 C 
ENDBRANCH  25  28
ENDBRANCH  19  25
ENDBRANCH  18  21
ENDBRANCH   1  18
TORSDOF 12
ENDMDL
MODEL 8
REMARK VINA RESULT:      -8.5      2.067      3.294
REMARK  Name = 448281
REMARK  12 active torsions:
REMARK  status: ('A' for Active; 'I' for Inactive)
REMARK    1  A    between atoms: CA_1  and  N_2
REMARK    2  A    between atoms: CA_1  and  C_15
REMARK    3  A    between atoms: CA_1  and  C_18
REMARK    4  A    between atoms: N_2  and  CA_5
REMARK    5  A    between atoms: CA_5  and  C_7
REMARK    6  A    between atoms: CA_5  and  CB_10
REMARK    7  A    between atoms: C_7  and  O_8
REMARK    8  A    between atoms: CB_10  and  CG_11
REMARK    9  A    between atoms: C_15  and  O_16
REMARK   10  A    between atoms: C_18  and  C_21
REMARK   11  A    between atoms: N_19  and  C_25
REMARK   12  A    between atoms: C_25  and  C_28
REMARK                            x       y       z     vdW  Elec       q    Type
REMARK                         _______ _______ _______ _____ _____    ______ ____
ROOT
ATOM      1  CA  UNL     1      34.007 -16.068 -21.150  0.00  0.00    +0.046 C 
ENDROOT
BRANCH   1   2
ATOM      2  N   UNL     1      33.837 -17.306 -21.896  0.00  0.00    +0.401 N 
ATOM      3  H1  UNL     1      32.866 -17.610 -21.823  0.00  0.00    -0.083 HD
ATOM      4  H2  UNL     1      34.082 -17.136 -22.872  0.00  0.00    -0.083 HD
BRANCH   2   5
ATOM      5  CA  UNL     1      34.710 -18.354 -21.369  0.00  0.00    +0.040 C 
BRANCH   5   7
ATOM      6  OXT UNL     1      36.996 -18.328 -22.231  0.00  0.00    -0.253 OA
ATOM      7  C   UNL     1      35.811 -18.584 -22.392  0.00  0.00    +0.293 C 
BRANCH   7   8
ATOM      8  O   UNL     1      35.325 -19.111 -23.547  0.00  0.00    -0.482 OA
ATOM      9  H   UNL     1      34.969 -18.549 -24.206  0.00  0.00    +0.295 HD
ENDBRANCH   7   8
ENDBRANCH   5   7
BRANCH   5  10
ATOM     10  CB  UNL     1      33.944 -19.665 -21.131  0.00  0.00    -0.010 C 
BRANCH  10  11
ATOM     11  CG  UNL     1      34.407 -20.505 -19.924  0.00  0.00    -0.002 C 
ATOM     12  CD1 UNL     1      33.326 -21.528 -19.563  0.00  0.00    -0.000 C 
ATOM     13  CD2 UNL     1      35.730 -21.226 -20.189  0.00  0.00    -0.000 C 
ENDBRANCH  10  11
ENDBRANCH   5  10
ENDBRANCH   2   5
ENDBRANCH   1   2
BRANCH   1  15
ATOM     14  OXT UNL     1      31.629 -16.360 -20.673  0.00  0.00    -0.253 OA
ATOM     15  C   UNL     1      32.631 -15.661 -20.662  0.00  0.00    +0.294 C 
BRANCH  15  16
ATOM     16  O   UNL     1      32.656 -14.394 -20.172  0.00  0.00    -0.482 OA
ATOM     17  H   UNL     1      33.293 -13.783 -20.484  0.00  0.00    +0.295 HD
ENDBRANCH  15  16
ENDBRANCH   1  15
BRANCH   1  18
ATOM     18  C   UNL     1      34.614 -14.996 -22.065  0.00  0.00    +0.032 C 
BRANCH  18  21
ATOM     19  N   UNL     1      33.137 -14.253 -23.989  0.00  0.00    -0.289 N 
ATOM     20  N   UNL     1      33.688 -15.625 -25.645  0.00  0.00    -0.314 N 
ATOM     21  C   UNL     1      34.099 -15.082 -23.484  0.00  0.00    +0.039 C 
ATOM     22  C   UNL     1      34.424 -15.920 -24.524  0.00  0.00    +0.069 C 
ATOM     23  C   UNL     1      32.923 -14.617 -25.289  0.00  0.00    +0.185 C 
ATOM     24  H   UNL     1      33.726 -16.070 -26.523  0.00  0.00    +0.148 HD
BRANCH  19  25
ATOM     25  C   UNL     1      32.460 -13.185 -23.292  0.00  0.00    +0.119 C 
BRANCH  25  28
ATOM     26 CL   UNL     1      32.828  -8.094 -22.241  0.00  0.00    -0.082 Cl
ATOM     27 CL   UNL     1      35.764 -10.358 -26.163  0.00  0.00    -0.082 Cl
ATOM     28  C   UNL     1      33.080 -11.848 -23.599  0.00  0.00    -0.001 C 
ATOM     29  C   UNL     1      34.023 -11.736 -24.620  0.00  0.00    +0.009 C 
ATOM     30  C   UNL     1      32.710 -10.722 -22.863  0.00  0.00    +0.009 C 
ATOM     31  C   UNL     1      33.284  -9.483 -23.149  0.00  0.00    +0.058 C 
ATOM     32  C   UNL     1      34.597 -10.497 -24.906  0.00  0.00    +0.058 C 
ATOM     33  C   UNL     1      34.227  -9.371 -24.170  0.00  0.00    +0.023 C 
ENDBRANCH  25  28
ENDBRANCH  19  25
ENDBRANCH  18  21
ENDBRANCH   1  18
TORSDOF 12
ENDMDL
MODEL 9
REMARK VINA RESULT:      -8.5      2.262      3.996
REMARK  Name = 448281
REMARK  12 active torsions:
REMARK  status: ('A' for Active; 'I' for Inactive)
REMARK    1  A    between atoms: CA_1  and  N_2
REMARK    2  A    between atoms: CA_1  and  C_15
REMARK    3  A    between atoms: CA_1  and  C_18
REMARK    4  A    between atoms: N_2  and  CA_5
REMARK    5  A    between atoms: CA_5  and  C_7
REMARK    6  A    between atoms: CA_5  and  CB_10
REMARK    7  A    between atoms: C_7  and  O_8
REMARK    8  A    between atoms: CB_10  and  CG_11
REMARK    9  A    between atoms: C_15  and  O_16
REMARK   10  A    between atoms: C_18  and  C_21
REMARK   11  A    between atoms: N_19  and  C_25
REMARK   12  A    between atoms: C_25  and  C_28
REMARK                            x       y       z     vdW  Elec       q    Type
REMARK                         _______ _______ _______ _____ _____    ______ ____
ROOT
ATOM      1  CA  UNL     1      33.991 -15.158 -22.800  0.00  0.00    +0.046 C 
ENDROOT
BRANCH   1   2
ATOM      2  N   UNL     1      33.700 -16.568 -23.008  0.00  0.00    +0.401 N 
ATOM      3  H1  UNL     1      33.456 -16.995 -22.114  0.00  0.00    -0.083 HD
ATOM      4  H2  UNL     1      32.921 -16.649 -23.663  0.00  0.00    -0.083 HD
BRANCH   2   5
ATOM      5  CA  UNL     1      34.859 -17.260 -23.570  0.00  0.00    +0.040 C 
BRANCH   5   7
ATOM      6  OXT UNL     1      35.152 -16.569 -25.895  0.00  0.00    -0.253 OA
ATOM      7  C   UNL     1      34.660 -17.332 -25.075  0.00  0.00    +0.293 C 
BRANCH   7   8
ATOM      8  O   UNL     1      33.840 -18.358 -25.427  0.00  0.00    -0.482 OA
ATOM      9  H   UNL     1      33.910 -19.185 -24.994  0.00  0.00    +0.295 HD
ENDBRANCH   7   8
ENDBRANCH   5   7
BRANCH   5  10
ATOM     10  CB  UNL     1      35.004 -18.680 -23.000  0.00  0.00    -0.010 C 
BRANCH  10  11
ATOM     11  CG  UNL     1      34.966 -18.795 -21.463  0.00  0.00    -0.002 C 
ATOM     12  CD1 UNL     1      33.905 -19.819 -21.049  0.00  0.00    -0.000 C 
ATOM     13  CD2 UNL     1      36.321 -19.191 -20.874  0.00  0.00    -0.000 C 
ENDBRANCH  10  11
ENDBRANCH   5  10
ENDBRANCH   2   5
ENDBRANCH   1   2
BRANCH   1  15
ATOM     14  OXT UNL     1      35.090 -15.452 -20.638  0.00  0.00    -0.253 OA
ATOM     15  C   UNL     1      34.190 -14.969 -21.309  0.00  0.00    +0.294 C 
BRANCH  15  16
ATOM     16  O   UNL     1      33.232 -14.150 -20.801  0.00  0.00    -0.482 OA
ATOM     17  H   UNL     1      32.598 -14.487 -20.199  0.00  0.00    +0.295 HD
ENDBRANCH  15  16
ENDBRANCH   1  15
BRANCH   1  18
ATOM     18  C   UNL     1      32.822 -14.310 -23.318  0.00  0.00    +0.032 C 
BRANCH  18  21
ATOM     19  N   UNL     1      33.661 -12.643 -25.036  0.00  0.00    -0.289 N 
ATOM     20  N   UNL     1      33.109 -13.559 -26.982  0.00  0.00    -0.314 N 
ATOM     21  C   UNL     1      33.039 -13.821 -24.732  0.00  0.00    +0.039 C 
ATOM     22  C   UNL     1      32.707 -14.369 -25.949  0.00  0.00    +0.069 C 
ATOM     23  C   UNL     1      33.679 -12.528 -26.399  0.00  0.00    +0.185 C 
ATOM     24  H   UNL     1      32.995 -13.716 -27.947  0.00  0.00    +0.148 HD
BRANCH  19  25
ATOM     25  C   UNL     1      34.204 -11.683 -24.104  0.00  0.00    +0.119 C 
BRANCH  25  28
ATOM     26 CL   UNL     1      31.518  -7.220 -24.246  0.00  0.00    -0.082 Cl
ATOM     27 CL   UNL     1      30.494 -10.980 -20.512  0.00  0.00    -0.082 Cl
ATOM     28  C   UNL     1      33.123 -10.811 -23.522  0.00  0.00    -0.001 C 
ATOM     29  C   UNL     1      32.396 -11.249 -22.415  0.00  0.00    +0.009 C 
ATOM     30  C   UNL     1      32.853  -9.566 -24.088  0.00  0.00    +0.009 C 
ATOM     31  C   UNL     1      31.852  -8.757 -23.547  0.00  0.00    +0.058 C 
ATOM     32  C   UNL     1      31.395 -10.441 -21.875  0.00  0.00    +0.058 C 
ATOM     33  C   UNL     1      31.124  -9.194 -22.441  0.00  0.00    +0.023 C 
ENDBRANCH  25  28
ENDBRANCH  19  25
ENDBRANCH  18  21
ENDBRANCH   1  18
TORSDOF 12
ENDMDL
