MODEL 1
REMARK VINA RESULT:      -6.3      0.000      0.000
REMARK  Name = 445614
REMARK  4 active torsions:
REMARK  status: ('A' for Active; 'I' for Inactive)
REMARK    1  A    between atoms: N_2  and  O_15
REMARK    2  A    between atoms: C_3  and  O_9
REMARK    3  A    between atoms: C_4  and  O_11
REMARK    4  A    between atoms: C_5  and  O_13
REMARK                            x       y       z     vdW  Elec       q    Type
REMARK                         _______ _______ _______ _____ _____    ______ ____
ROOT
ATOM      1  N   UNL     1      35.749 -25.235 -15.299  0.00  0.00    -0.252 NA
ATOM      2  N   UNL     1      37.266 -26.994 -15.243  0.00  0.00    -0.252 N 
ATOM      3  C   UNL     1      36.778 -24.101 -12.856  0.00  0.00    +0.173 C 
ATOM      4  C   UNL     1      35.330 -23.855 -13.253  0.00  0.00    +0.164 C 
ATOM      5  C   UNL     1      37.241 -25.470 -13.329  0.00  0.00    +0.198 C 
ATOM      6  C   UNL     1      35.150 -24.019 -14.755  0.00  0.00    +0.159 C 
ATOM      7  C   UNL     1      36.695 -25.872 -14.692  0.00  0.00    +0.161 C 
ATOM      8  H   UNL     1      37.995 -27.495 -14.811  0.00  0.00    +0.195 HD
ENDROOT
BRANCH   3   9
ATOM      9  O   UNL     1      37.595 -23.089 -13.439  0.00  0.00    -0.379 OA
ATOM     10  H   UNL     1      38.317 -23.504 -13.938  0.00  0.00    +0.211 HD
ENDBRANCH   3   9
BRANCH   4  11
ATOM     11  O   UNL     1      34.455 -24.754 -12.581  0.00  0.00    -0.380 OA
ATOM     12  H   UNL     1      33.591 -24.332 -12.458  0.00  0.00    +0.211 HD
ENDBRANCH   4  11
BRANCH   5  13
ATOM     13  O   UNL     1      36.769 -26.476 -12.440  0.00  0.00    -0.375 OA
ATOM     14  H   UNL     1      36.707 -27.322 -12.910  0.00  0.00    +0.211 HD
ENDBRANCH   5  13
BRANCH   2  15
ATOM     15  O   UNL     1      36.726 -27.348 -16.446  0.00  0.00    -0.288 OA
ATOM     16  H   UNL     1      36.242 -28.182 -16.350  0.00  0.00    +0.244 HD
ENDBRANCH   2  15
TORSDOF 4
ENDMDL
MODEL 2
REMARK VINA RESULT:      -6.3      2.172      3.702
REMARK  Name = 445614
REMARK  4 active torsions:
REMARK  status: ('A' for Active; 'I' for Inactive)
REMARK    1  A    between atoms: N_2  and  O_15
REMARK    2  A    between atoms: C_3  and  O_9
REMARK    3  A    between atoms: C_4  and  O_11
REMARK    4  A    between atoms: C_5  and  O_13
REMARK                            x       y       z     vdW  Elec       q    Type
REMARK                         _______ _______ _______ _____ _____    ______ ____
ROOT
ATOM      1  N   UNL     1      37.444 -25.440 -12.155  0.00  0.00    -0.252 NA
ATOM      2  N   UNL     1      35.196 -24.868 -12.024  0.00  0.00    -0.252 N 
ATOM      3  C   UNL     1      37.581 -24.778 -14.957  0.00  0.00    +0.173 C 
ATOM      4  C   UNL     1      38.530 -25.816 -14.378  0.00  0.00    +0.164 C 
ATOM      5  C   UNL     1      36.244 -24.807 -14.234  0.00  0.00    +0.198 C 
ATOM      6  C   UNL     1      38.700 -25.612 -12.881  0.00  0.00    +0.159 C 
ATOM      7  C   UNL     1      36.356 -25.057 -12.737  0.00  0.00    +0.161 C 
ATOM      8  H   UNL     1      34.354 -24.567 -12.435  0.00  0.00    +0.195 HD
ENDROOT
BRANCH   3   9
ATOM      9  O   UNL     1      38.171 -23.487 -14.825  0.00  0.00    -0.379 OA
ATOM     10  H   UNL     1      38.695 -23.289 -15.617  0.00  0.00    +0.211 HD
ENDBRANCH   3   9
BRANCH   4  11
ATOM     11  O   UNL     1      38.051 -27.135 -14.614  0.00  0.00    -0.380 OA
ATOM     12  H   UNL     1      38.799 -27.752 -14.634  0.00  0.00    +0.211 HD
ENDBRANCH   4  11
BRANCH   5  13
ATOM     13  O   UNL     1      35.451 -25.884 -14.721  0.00  0.00    -0.375 OA
ATOM     14  H   UNL     1      35.689 -26.699 -14.254  0.00  0.00    +0.211 HD
ENDBRANCH   5  13
BRANCH   2  15
ATOM     15  O   UNL     1      35.322 -25.138 -10.691  0.00  0.00    -0.288 OA
ATOM     16  H   UNL     1      34.893 -25.984 -10.491  0.00  0.00    +0.244 HD
ENDBRANCH   2  15
TORSDOF 4
ENDMDL
MODEL 3
REMARK VINA RESULT:      -6.2      2.348      2.963
REMARK  Name = 445614
REMARK  4 active torsions:
REMARK  status: ('A' for Active; 'I' for Inactive)
REMARK    1  A    between atoms: N_2  and  O_15
REMARK    2  A    between atoms: C_3  and  O_9
REMARK    3  A    between atoms: C_4  and  O_11
REMARK    4  A    between atoms: C_5  and  O_13
REMARK                            x       y       z     vdW  Elec       q    Type
REMARK                         _______ _______ _______ _____ _____    ______ ____
ROOT
ATOM      1  N   UNL     1      38.496 -26.778 -14.673  0.00  0.00    -0.252 NA
ATOM      2  N   UNL     1      40.493 -25.634 -14.348  0.00  0.00    -0.252 N 
ATOM      3  C   UNL     1      36.933 -24.364 -14.470  0.00  0.00    +0.173 C 
ATOM      4  C   UNL     1      36.310 -25.702 -14.099  0.00  0.00    +0.164 C 
ATOM      5  C   UNL     1      38.419 -24.352 -14.147  0.00  0.00    +0.198 C 
ATOM      6  C   UNL     1      37.041 -26.844 -14.788  0.00  0.00    +0.159 C 
ATOM      7  C   UNL     1      39.120 -25.676 -14.417  0.00  0.00    +0.161 C 
ATOM      8  H   UNL     1      40.998 -24.809 -14.166  0.00  0.00    +0.195 HD
ENDROOT
BRANCH   3   9
ATOM      9  O   UNL     1      36.742 -24.137 -15.864  0.00  0.00    -0.379 OA
ATOM     10  H   UNL     1      36.517 -23.205 -16.011  0.00  0.00    +0.211 HD
ENDBRANCH   3   9
BRANCH   4  11
ATOM     11  O   UNL     1      36.348 -25.911 -12.691  0.00  0.00    -0.380 OA
ATOM     12  H   UNL     1      36.313 -25.055 -12.236  0.00  0.00    +0.211 HD
ENDBRANCH   4  11
BRANCH   5  13
ATOM     13  O   UNL     1      38.611 -24.119 -12.756  0.00  0.00    -0.375 OA
ATOM     14  H   UNL     1      37.793 -24.322 -12.276  0.00  0.00    +0.211 HD
ENDBRANCH   5  13
BRANCH   2  15
ATOM     15  O   UNL     1      41.088 -26.845 -14.558  0.00  0.00    -0.288 OA
ATOM     16  H   UNL     1      40.601 -27.330 -15.242  0.00  0.00    +0.244 HD
ENDBRANCH   2  15
TORSDOF 4
ENDMDL
MODEL 4
REMARK VINA RESULT:      -6.1      2.282      3.027
REMARK  Name = 445614
REMARK  4 active torsions:
REMARK  status: ('A' for Active; 'I' for Inactive)
REMARK    1  A    between atoms: N_2  and  O_15
REMARK    2  A    between atoms: C_3  and  O_9
REMARK    3  A    between atoms: C_4  and  O_11
REMARK    4  A    between atoms: C_5  and  O_13
REMARK                            x       y       z     vdW  Elec       q    Type
REMARK                         _______ _______ _______ _____ _____    ______ ____
ROOT
ATOM      1  N   UNL     1      38.739 -24.263 -14.233  0.00  0.00    -0.252 NA
ATOM      2  N   UNL     1      39.963 -26.197 -14.642  0.00  0.00    -0.252 N 
ATOM      3  C   UNL     1      36.267 -25.727 -13.989  0.00  0.00    +0.173 C 
ATOM      4  C   UNL     1      36.245 -24.274 -14.439  0.00  0.00    +0.164 C 
ATOM      5  C   UNL     1      37.532 -26.420 -14.469  0.00  0.00    +0.198 C 
ATOM      6  C   UNL     1      37.495 -23.546 -13.968  0.00  0.00    +0.159 C 
ATOM      7  C   UNL     1      38.773 -25.540 -14.429  0.00  0.00    +0.161 C 
ATOM      8  H   UNL     1      40.023 -27.169 -14.784  0.00  0.00    +0.195 HD
ENDROOT
BRANCH   3   9
ATOM      9  O   UNL     1      36.206 -25.770 -12.566  0.00  0.00    -0.379 OA
ATOM     10  H   UNL     1      36.284 -24.871 -12.211  0.00  0.00    +0.211 HD
ENDBRANCH   3   9
BRANCH   4  11
ATOM     11  O   UNL     1      36.160 -24.178 -15.857  0.00  0.00    -0.380 OA
ATOM     12  H   UNL     1      35.985 -23.259 -16.109  0.00  0.00    +0.211 HD
ENDBRANCH   4  11
BRANCH   5  13
ATOM     13  O   UNL     1      37.394 -26.789 -15.837  0.00  0.00    -0.375 OA
ATOM     14  H   UNL     1      37.491 -27.750 -15.925  0.00  0.00    +0.211 HD
ENDBRANCH   5  13
BRANCH   2  15
ATOM     15  O   UNL     1      41.051 -25.372 -14.638  0.00  0.00    -0.288 OA
ATOM     16  H   UNL     1      41.500 -25.426 -15.496  0.00  0.00    +0.244 HD
ENDBRANCH   2  15
TORSDOF 4
ENDMDL
MODEL 5
REMARK VINA RESULT:      -6.1      2.148      3.369
REMARK  Name = 445614
REMARK  4 active torsions:
REMARK  status: ('A' for Active; 'I' for Inactive)
REMARK    1  A    between atoms: N_2  and  O_15
REMARK    2  A    between atoms: C_3  and  O_9
REMARK    3  A    between atoms: C_4  and  O_11
REMARK    4  A    between atoms: C_5  and  O_13
REMARK                            x       y       z     vdW  Elec       q    Type
REMARK                         _______ _______ _______ _____ _____    ______ ____
ROOT
ATOM      1  N   UNL     1      38.117 -24.024 -13.849  0.00  0.00    -0.252 NA
ATOM      2  N   UNL     1      37.033 -23.407 -15.810  0.00  0.00    -0.252 N 
ATOM      3  C   UNL     1      37.238 -26.761 -14.073  0.00  0.00    +0.173 C 
ATOM      4  C   UNL     1      37.540 -26.172 -12.702  0.00  0.00    +0.164 C 
ATOM      5  C   UNL     1      36.691 -25.694 -15.009  0.00  0.00    +0.198 C 
ATOM      6  C   UNL     1      38.492 -24.993 -12.822  0.00  0.00    +0.159 C 
ATOM      7  C   UNL     1      37.343 -24.329 -14.838  0.00  0.00    +0.161 C 
ATOM      8  H   UNL     1      36.456 -23.612 -16.581  0.00  0.00    +0.195 HD
ENDROOT
BRANCH   3   9
ATOM      9  O   UNL     1      38.437 -27.307 -14.615  0.00  0.00    -0.379 OA
ATOM     10  H   UNL     1      38.576 -28.198 -14.257  0.00  0.00    +0.211 HD
ENDBRANCH   3   9
BRANCH   4  11
ATOM     11  O   UNL     1      36.347 -25.741 -12.056  0.00  0.00    -0.380 OA
ATOM     12  H   UNL     1      35.775 -26.505 -11.889  0.00  0.00    +0.211 HD
ENDBRANCH   4  11
BRANCH   5  13
ATOM     13  O   UNL     1      35.311 -25.472 -14.739  0.00  0.00    -0.375 OA
ATOM     14  H   UNL     1      35.184 -25.344 -13.786  0.00  0.00    +0.211 HD
ENDBRANCH   5  13
BRANCH   2  15
ATOM     15  O   UNL     1      37.603 -22.184 -15.606  0.00  0.00    -0.288 OA
ATOM     16  H   UNL     1      37.679 -21.717 -16.453  0.00  0.00    +0.244 HD
ENDBRANCH   2  15
TORSDOF 4
ENDMDL
MODEL 6
REMARK VINA RESULT:      -6.1      2.260      3.830
REMARK  Name = 445614
REMARK  4 active torsions:
REMARK  status: ('A' for Active; 'I' for Inactive)
REMARK    1  A    between atoms: N_2  and  O_15
REMARK    2  A    between atoms: C_3  and  O_9
REMARK    3  A    between atoms: C_4  and  O_11
REMARK    4  A    between atoms: C_5  and  O_13
REMARK                            x       y       z     vdW  Elec       q    Type
REMARK                         _______ _______ _______ _____ _____    ______ ____
ROOT
ATOM      1  N   UNL     1      36.374 -23.767 -13.034  0.00  0.00    -0.252 NA
ATOM      2  N   UNL     1      38.077 -23.415 -11.493  0.00  0.00    -0.252 N 
ATOM      3  C   UNL     1      37.571 -26.209 -13.991  0.00  0.00    +0.173 C 
ATOM      4  C   UNL     1      36.680 -25.392 -14.914  0.00  0.00    +0.164 C 
ATOM      5  C   UNL     1      38.323 -25.305 -13.027  0.00  0.00    +0.198 C 
ATOM      6  C   UNL     1      35.729 -24.519 -14.108  0.00  0.00    +0.159 C 
ATOM      7  C   UNL     1      37.509 -24.120 -12.528  0.00  0.00    +0.161 C 
ATOM      8  H   UNL     1      38.934 -23.664 -11.078  0.00  0.00    +0.195 HD
ENDROOT
BRANCH   3   9
ATOM      9  O   UNL     1      36.761 -27.125 -13.258  0.00  0.00    -0.379 OA
ATOM     10  H   UNL     1      36.118 -27.537 -13.856  0.00  0.00    +0.211 HD
ENDBRANCH   3   9
BRANCH   4  11
ATOM     11  O   UNL     1      37.456 -24.562 -15.771  0.00  0.00    -0.380 OA
ATOM     12  H   UNL     1      36.901 -23.845 -16.117  0.00  0.00    +0.211 HD
ENDBRANCH   4  11
BRANCH   5  13
ATOM     13  O   UNL     1      39.444 -24.722 -13.683  0.00  0.00    -0.375 OA
ATOM     14  H   UNL     1      39.589 -25.165 -14.534  0.00  0.00    +0.211 HD
ENDBRANCH   5  13
BRANCH   2  15
ATOM     15  O   UNL     1      37.339 -22.337 -11.095  0.00  0.00    -0.288 OA
ATOM     16  H   UNL     1      36.427 -22.617 -10.921  0.00  0.00    +0.244 HD
ENDBRANCH   2  15
TORSDOF 4
ENDMDL
MODEL 7
REMARK VINA RESULT:      -6.1      2.171      3.448
REMARK  Name = 445614
REMARK  4 active torsions:
REMARK  status: ('A' for Active; 'I' for Inactive)
REMARK    1  A    between atoms: N_2  and  O_15
REMARK    2  A    between atoms: C_3  and  O_9
REMARK    3  A    between atoms: C_4  and  O_11
REMARK    4  A    between atoms: C_5  and  O_13
REMARK                            x       y       z     vdW  Elec       q    Type
REMARK                         _______ _______ _______ _____ _____    ______ ____
ROOT
ATOM      1  N   UNL     1      37.657 -23.164 -13.772  0.00  0.00    -0.252 NA
ATOM      2  N   UNL     1      37.936 -23.834 -11.564  0.00  0.00    -0.252 N 
ATOM      3  C   UNL     1      35.109 -24.494 -13.988  0.00  0.00    +0.173 C 
ATOM      4  C   UNL     1      35.958 -24.281 -15.232  0.00  0.00    +0.164 C 
ATOM      5  C   UNL     1      35.987 -24.699 -12.764  0.00  0.00    +0.198 C 
ATOM      6  C   UNL     1      36.920 -23.120 -15.033  0.00  0.00    +0.159 C 
ATOM      7  C   UNL     1      37.241 -23.837 -12.751  0.00  0.00    +0.161 C 
ATOM      8  H   UNL     1      37.640 -24.327 -10.765  0.00  0.00    +0.195 HD
ENDROOT
BRANCH   3   9
ATOM      9  O   UNL     1      34.276 -23.353 -13.796  0.00  0.00    -0.379 OA
ATOM     10  H   UNL     1      33.417 -23.505 -14.220  0.00  0.00    +0.211 HD
ENDBRANCH   3   9
BRANCH   4  11
ATOM     11  O   UNL     1      36.704 -25.451 -15.549  0.00  0.00    -0.380 OA
ATOM     12  H   UNL     1      36.778 -25.537 -16.511  0.00  0.00    +0.211 HD
ENDBRANCH   4  11
BRANCH   5  13
ATOM     13  O   UNL     1      36.468 -26.038 -12.731  0.00  0.00    -0.375 OA
ATOM     14  H   UNL     1      37.178 -26.112 -12.074  0.00  0.00    +0.211 HD
ENDBRANCH   5  13
BRANCH   2  15
ATOM     15  O   UNL     1      39.075 -23.082 -11.600  0.00  0.00    -0.288 OA
ATOM     16  H   UNL     1      39.645 -23.393 -12.320  0.00  0.00    +0.244 HD
ENDBRANCH   2  15
TORSDOF 4
ENDMDL
MODEL 8
REMARK VINA RESULT:      -6.0      1.746      1.784
REMARK  Name = 445614
REMARK  4 active torsions:
REMARK  status: ('A' for Active; 'I' for Inactive)
REMARK    1  A    between atoms: N_2  and  O_15
REMARK    2  A    between atoms: C_3  and  O_9
REMARK    3  A    between atoms: C_4  and  O_11
REMARK    4  A    between atoms: C_5  and  O_13
REMARK                            x       y       z     vdW  Elec       q    Type
REMARK                         _______ _______ _______ _____ _____    ______ ____
ROOT
ATOM      1  N   UNL     1      37.603 -24.411 -14.522  0.00  0.00    -0.252 NA
ATOM      2  N   UNL     1      39.100 -26.132 -14.075  0.00  0.00    -0.252 N 
ATOM      3  C   UNL     1      37.133 -23.921 -11.720  0.00  0.00    +0.173 C 
ATOM      4  C   UNL     1      36.055 -23.583 -12.739  0.00  0.00    +0.164 C 
ATOM      5  C   UNL     1      37.938 -25.131 -12.169  0.00  0.00    +0.198 C 
ATOM      6  C   UNL     1      36.665 -23.368 -14.115  0.00  0.00    +0.159 C 
ATOM      7  C   UNL     1      38.194 -25.180 -13.669  0.00  0.00    +0.161 C 
ATOM      8  H   UNL     1      39.575 -26.725 -13.450  0.00  0.00    +0.195 HD
ENDROOT
BRANCH   3   9
ATOM      9  O   UNL     1      37.996 -22.798 -11.570  0.00  0.00    -0.379 OA
ATOM     10  H   UNL     1      38.406 -22.589 -12.424  0.00  0.00    +0.211 HD
ENDBRANCH   3   9
BRANCH   4  11
ATOM     11  O   UNL     1      35.082 -24.619 -12.820  0.00  0.00    -0.380 OA
ATOM     12  H   UNL     1      34.985 -25.040 -11.952  0.00  0.00    +0.211 HD
ENDBRANCH   4  11
BRANCH   5  13
ATOM     13  O   UNL     1      37.217 -26.326 -11.886  0.00  0.00    -0.375 OA
ATOM     14  H   UNL     1      37.523 -27.035 -12.473  0.00  0.00    +0.211 HD
ENDBRANCH   5  13
BRANCH   2  15
ATOM     15  O   UNL     1      39.278 -26.174 -15.429  0.00  0.00    -0.288 OA
ATOM     16  H   UNL     1      39.722 -27.002 -15.670  0.00  0.00    +0.244 HD
ENDBRANCH   2  15
TORSDOF 4
ENDMDL
MODEL 9
REMARK VINA RESULT:      -6.0      1.570      2.858
REMARK  Name = 445614
REMARK  4 active torsions:
REMARK  status: ('A' for Active; 'I' for Inactive)
REMARK    1  A    between atoms: N_2  and  O_15
REMARK    2  A    between atoms: C_3  and  O_9
REMARK    3  A    between atoms: C_4  and  O_11
REMARK    4  A    between atoms: C_5  and  O_13
REMARK                            x       y       z     vdW  Elec       q    Type
REMARK                         _______ _______ _______ _____ _____    ______ ____
ROOT
ATOM      1  N   UNL     1      37.236 -25.669 -13.516  0.00  0.00    -0.252 NA
ATOM      2  N   UNL     1      35.438 -25.682 -14.990  0.00  0.00    -0.252 N 
ATOM      3  C   UNL     1      35.839 -23.998 -11.627  0.00  0.00    +0.173 C 
ATOM      4  C   UNL     1      37.359 -23.972 -11.681  0.00  0.00    +0.164 C 
ATOM      5  C   UNL     1      35.255 -24.261 -13.006  0.00  0.00    +0.198 C 
ATOM      6  C   UNL     1      37.898 -25.262 -12.280  0.00  0.00    +0.159 C 
ATOM      7  C   UNL     1      36.054 -25.255 -13.837  0.00  0.00    +0.161 C 
ATOM      8  H   UNL     1      34.536 -25.394 -15.256  0.00  0.00    +0.195 HD
ENDROOT
BRANCH   3   9
ATOM      9  O   UNL     1      35.427 -25.023 -10.727  0.00  0.00    -0.379 OA
ATOM     10  H   UNL     1      35.969 -24.985  -9.923  0.00  0.00    +0.211 HD
ENDBRANCH   3   9
BRANCH   4  11
ATOM     11  O   UNL     1      37.825 -22.872 -12.456  0.00  0.00    -0.380 OA
ATOM     12  H   UNL     1      37.196 -22.692 -13.172  0.00  0.00    +0.211 HD
ENDBRANCH   4  11
BRANCH   5  13
ATOM     13  O   UNL     1      35.261 -23.062 -13.773  0.00  0.00    -0.375 OA
ATOM     14  H   UNL     1      35.613 -23.245 -14.658  0.00  0.00    +0.211 HD
ENDBRANCH   5  13
BRANCH   2  15
ATOM     15  O   UNL     1      36.198 -26.542 -15.730  0.00  0.00    -0.288 OA
ATOM     16  H   UNL     1      36.362 -27.350 -15.218  0.00  0.00    +0.244 HD
ENDBRANCH   2  15
TORSDOF 4
ENDMDL
