MODEL 1
REMARK VINA RESULT:      -8.1      0.000      0.000
REMARK  Name = 4915
REMARK  5 active torsions:
REMARK  status: ('A' for Active; 'I' for Inactive)
REMARK    1  A    between atoms: C_1  and  C_14
REMARK    2  A    between atoms: C_2  and  C_9
REMARK    3  A    between atoms: N_8  and  C_11
REMARK    4  A    between atoms: C_14  and  N_15
REMARK    5  A    between atoms: N_15  and  N_17
REMARK                            x       y       z     vdW  Elec       q    Type
REMARK                         _______ _______ _______ _____ _____    ______ ____
ROOT
ATOM      1  C   UNL     1      35.001 -19.601 -20.986  0.00  0.00    -0.005 C 
ATOM      2  C   UNL     1      33.980 -21.639 -19.405  0.00  0.00    +0.053 C 
ATOM      3  C   UNL     1      33.621 -19.733 -20.823  0.00  0.00    -0.003 C 
ATOM      4  C   UNL     1      35.867 -20.494 -20.354  0.00  0.00    -0.003 C 
ATOM      5  C   UNL     1      33.109 -20.758 -20.028  0.00  0.00    +0.004 C 
ATOM      6  C   UNL     1      35.353 -21.518 -19.559  0.00  0.00    +0.004 C 
ENDROOT
BRANCH   2   9
ATOM      7  O   UNL     1      33.805 -23.885 -18.707  0.00  0.00    -0.270 OA
ATOM      8  N   UNL     1      32.472 -22.346 -17.626  0.00  0.00    -0.302 N 
ATOM      9  C   UNL     1      33.440 -22.718 -18.567  0.00  0.00    +0.246 C 
ATOM     10  H   UNL     1      32.220 -21.397 -17.560  0.00  0.00    +0.150 HD
BRANCH   8  11
ATOM     11  C   UNL     1      31.820 -23.309 -16.740  0.00  0.00    +0.072 C 
ATOM     12  C   UNL     1      30.382 -22.882 -16.461  0.00  0.00    +0.021 C 
ATOM     13  C   UNL     1      32.617 -23.427 -15.445  0.00  0.00    +0.021 C 
ENDBRANCH   8  11
ENDBRANCH   2   9
BRANCH   1  14
ATOM     14  C   UNL     1      35.549 -18.505 -21.837  0.00  0.00    +0.110 C 
BRANCH  14  15
ATOM     15  N   UNL     1      35.045 -18.599 -23.190  0.00  0.00    -0.241 NA
ATOM     16  H   UNL     1      35.444 -19.417 -23.650  0.00  0.00    +0.142 HD
BRANCH  15  17
ATOM     17  N   UNL     1      35.426 -17.409 -23.902  0.00  0.00    -0.244 NA
ATOM     18  C   UNL     1      34.631 -17.325 -25.120  0.00  0.00    +0.103 C 
ATOM     19  H   UNL     1      36.417 -17.452 -24.139  0.00  0.00    +0.141 HD
ENDBRANCH  15  17
ENDBRANCH  14  15
ENDBRANCH   1  14
TORSDOF 5
ENDMDL
MODEL 2
REMARK VINA RESULT:      -8.1      0.787      1.455
REMARK  Name = 4915
REMARK  5 active torsions:
REMARK  status: ('A' for Active; 'I' for Inactive)
REMARK    1  A    between atoms: C_1  and  C_14
REMARK    2  A    between atoms: C_2  and  C_9
REMARK    3  A    between atoms: N_8  and  C_11
REMARK    4  A    between atoms: C_14  and  N_15
REMARK    5  A    between atoms: N_15  and  N_17
REMARK                            x       y       z     vdW  Elec       q    Type
REMARK                         _______ _______ _______ _____ _____    ______ ____
ROOT
ATOM      1  C   UNL     1      34.618 -18.919 -21.250  0.00  0.00    -0.005 C 
ATOM      2  C   UNL     1      34.076 -21.227 -19.808  0.00  0.00    +0.053 C 
ATOM      3  C   UNL     1      35.663 -19.745 -20.836  0.00  0.00    -0.003 C 
ATOM      4  C   UNL     1      33.299 -19.253 -20.938  0.00  0.00    -0.003 C 
ATOM      5  C   UNL     1      35.390 -20.905 -20.112  0.00  0.00    +0.004 C 
ATOM      6  C   UNL     1      33.027 -20.414 -20.214  0.00  0.00    +0.004 C 
ENDROOT
BRANCH   2   9
ATOM      7  O   UNL     1      34.128 -23.558 -19.457  0.00  0.00    -0.270 OA
ATOM      8  N   UNL     1      33.085 -22.281 -17.847  0.00  0.00    -0.302 N 
ATOM      9  C   UNL     1      33.788 -22.449 -19.046  0.00  0.00    +0.246 C 
ATOM     10  H   UNL     1      32.840 -21.368 -17.569  0.00  0.00    +0.150 HD
BRANCH   8  11
ATOM     11  C   UNL     1      32.699 -23.402 -16.992  0.00  0.00    +0.072 C 
ATOM     12  C   UNL     1      31.337 -23.139 -16.358  0.00  0.00    +0.021 C 
ATOM     13  C   UNL     1      33.768 -23.618 -15.926  0.00  0.00    +0.021 C 
ENDBRANCH   8  11
ENDBRANCH   2   9
BRANCH   1  14
ATOM     14  C   UNL     1      34.910 -17.678 -22.024  0.00  0.00    +0.110 C 
BRANCH  14  15
ATOM     15  N   UNL     1      35.824 -17.949 -23.111  0.00  0.00    -0.241 NA
ATOM     16  H   UNL     1      36.769 -17.672 -22.844  0.00  0.00    +0.142 HD
BRANCH  15  17
ATOM     17  N   UNL     1      35.404 -17.194 -24.260  0.00  0.00    -0.244 NA
ATOM     18  C   UNL     1      34.465 -18.003 -25.026  0.00  0.00    +0.103 C 
ATOM     19  H   UNL     1      36.214 -16.967 -24.838  0.00  0.00    +0.141 HD
ENDBRANCH  15  17
ENDBRANCH  14  15
ENDBRANCH   1  14
TORSDOF 5
ENDMDL
MODEL 3
REMARK VINA RESULT:      -8.1      2.131      7.227
REMARK  Name = 4915
REMARK  5 active torsions:
REMARK  status: ('A' for Active; 'I' for Inactive)
REMARK    1  A    between atoms: C_1  and  C_14
REMARK    2  A    between atoms: C_2  and  C_9
REMARK    3  A    between atoms: N_8  and  C_11
REMARK    4  A    between atoms: C_14  and  N_15
REMARK    5  A    between atoms: N_15  and  N_17
REMARK                            x       y       z     vdW  Elec       q    Type
REMARK                         _______ _______ _______ _____ _____    ______ ____
ROOT
ATOM      1  C   UNL     1      33.955 -21.443 -19.441  0.00  0.00    -0.005 C 
ATOM      2  C   UNL     1      35.014 -19.526 -21.144  0.00  0.00    +0.053 C 
ATOM      3  C   UNL     1      35.337 -21.341 -19.604  0.00  0.00    -0.003 C 
ATOM      4  C   UNL     1      33.105 -20.581 -20.134  0.00  0.00    -0.003 C 
ATOM      5  C   UNL     1      35.869 -20.377 -20.460  0.00  0.00    +0.004 C 
ATOM      6  C   UNL     1      33.637 -19.617 -20.990  0.00  0.00    +0.004 C 
ENDROOT
BRANCH   2   9
ATOM      7  O   UNL     1      36.789 -18.371 -22.182  0.00  0.00    -0.270 OA
ATOM      8  N   UNL     1      34.650 -17.697 -22.713  0.00  0.00    -0.302 N 
ATOM      9  C   UNL     1      35.574 -18.510 -22.046  0.00  0.00    +0.246 C 
ATOM     10  H   UNL     1      33.689 -17.856 -22.565  0.00  0.00    +0.150 HD
BRANCH   8  11
ATOM     11  C   UNL     1      35.051 -16.624 -23.620  0.00  0.00    +0.072 C 
ATOM     12  C   UNL     1      34.502 -15.286 -23.134  0.00  0.00    +0.021 C 
ATOM     13  C   UNL     1      34.558 -16.939 -25.029  0.00  0.00    +0.021 C 
ENDBRANCH   8  11
ENDBRANCH   2   9
BRANCH   1  14
ATOM     14  C   UNL     1      33.387 -22.474 -18.526  0.00  0.00    +0.110 C 
BRANCH  14  15
ATOM     15  N   UNL     1      34.382 -22.935 -17.582  0.00  0.00    -0.241 NA
ATOM     16  H   UNL     1      34.990 -23.621 -18.030  0.00  0.00    +0.142 HD
BRANCH  15  17
ATOM     17  N   UNL     1      33.707 -23.540 -16.466  0.00  0.00    -0.244 NA
ATOM     18  C   UNL     1      32.280 -23.270 -16.587  0.00  0.00    +0.103 C 
ATOM     19  H   UNL     1      34.059 -23.143 -15.594  0.00  0.00    +0.141 HD
ENDBRANCH  15  17
ENDBRANCH  14  15
ENDBRANCH   1  14
TORSDOF 5
ENDMDL
MODEL 4
REMARK VINA RESULT:      -7.7      1.683      2.074
REMARK  Name = 4915
REMARK  5 active torsions:
REMARK  status: ('A' for Active; 'I' for Inactive)
REMARK    1  A    between atoms: C_1  and  C_14
REMARK    2  A    between atoms: C_2  and  C_9
REMARK    3  A    between atoms: N_8  and  C_11
REMARK    4  A    between atoms: C_14  and  N_15
REMARK    5  A    between atoms: N_15  and  N_17
REMARK                            x       y       z     vdW  Elec       q    Type
REMARK                         _______ _______ _______ _____ _____    ______ ____
ROOT
ATOM      1  C   UNL     1      34.451 -19.460 -21.117  0.00  0.00    -0.005 C 
ATOM      2  C   UNL     1      34.228 -21.646 -19.423  0.00  0.00    +0.053 C 
ATOM      3  C   UNL     1      33.193 -19.888 -20.692  0.00  0.00    -0.003 C 
ATOM      4  C   UNL     1      35.598 -20.131 -20.690  0.00  0.00    -0.003 C 
ATOM      5  C   UNL     1      33.081 -20.987 -19.840  0.00  0.00    +0.004 C 
ATOM      6  C   UNL     1      35.485 -21.230 -19.838  0.00  0.00    +0.004 C 
ENDROOT
BRANCH   2   9
ATOM      7  O   UNL     1      33.711 -23.894 -18.933  0.00  0.00    -0.270 OA
ATOM      8  N   UNL     1      34.449 -22.585 -17.185  0.00  0.00    -0.302 N 
ATOM      9  C   UNL     1      34.110 -22.804 -18.526  0.00  0.00    +0.246 C 
ATOM     10  H   UNL     1      34.763 -21.690 -16.919  0.00  0.00    +0.150 HD
BRANCH   8  11
ATOM     11  C   UNL     1      34.357 -23.629 -16.166  0.00  0.00    +0.072 C 
ATOM     12  C   UNL     1      33.048 -23.499 -15.393  0.00  0.00    +0.021 C 
ATOM     13  C   UNL     1      35.557 -23.532 -15.231  0.00  0.00    +0.021 C 
ENDBRANCH   8  11
ENDBRANCH   2   9
BRANCH   1  14
ATOM     14  C   UNL     1      34.571 -18.285 -22.027  0.00  0.00    +0.110 C 
BRANCH  14  15
ATOM     15  N   UNL     1      35.335 -17.224 -21.407  0.00  0.00    -0.241 NA
ATOM     16  H   UNL     1      35.325 -17.340 -20.394  0.00  0.00    +0.142 HD
BRANCH  15  17
ATOM     17  N   UNL     1      34.735 -15.965 -21.757  0.00  0.00    -0.244 NA
ATOM     18  C   UNL     1      34.409 -15.252 -20.529  0.00  0.00    +0.103 C 
ATOM     19  H   UNL     1      33.885 -16.128 -22.298  0.00  0.00    +0.141 HD
ENDBRANCH  15  17
ENDBRANCH  14  15
ENDBRANCH   1  14
TORSDOF 5
ENDMDL
MODEL 5
REMARK VINA RESULT:      -7.5      1.474      1.998
REMARK  Name = 4915
REMARK  5 active torsions:
REMARK  status: ('A' for Active; 'I' for Inactive)
REMARK    1  A    between atoms: C_1  and  C_14
REMARK    2  A    between atoms: C_2  and  C_9
REMARK    3  A    between atoms: N_8  and  C_11
REMARK    4  A    between atoms: C_14  and  N_15
REMARK    5  A    between atoms: N_15  and  N_17
REMARK                            x       y       z     vdW  Elec       q    Type
REMARK                         _______ _______ _______ _____ _____    ______ ____
ROOT
ATOM      1  C   UNL     1      34.610 -20.265 -20.678  0.00  0.00    -0.005 C 
ATOM      2  C   UNL     1      33.792 -22.061 -18.728  0.00  0.00    +0.053 C 
ATOM      3  C   UNL     1      35.555 -21.027 -19.991  0.00  0.00    -0.003 C 
ATOM      4  C   UNL     1      33.253 -20.406 -20.385  0.00  0.00    -0.003 C 
ATOM      5  C   UNL     1      35.144 -21.930 -19.010  0.00  0.00    +0.004 C 
ATOM      6  C   UNL     1      32.842 -21.309 -19.404  0.00  0.00    +0.004 C 
ENDROOT
BRANCH   2   9
ATOM      7  O   UNL     1      34.025 -24.010 -17.420  0.00  0.00    -0.270 OA
ATOM      8  N   UNL     1      32.138 -22.734 -17.070  0.00  0.00    -0.302 N 
ATOM      9  C   UNL     1      33.359 -23.013 -17.696  0.00  0.00    +0.246 C 
ATOM     10  H   UNL     1      31.649 -21.920 -17.332  0.00  0.00    +0.150 HD
BRANCH   8  11
ATOM     11  C   UNL     1      31.559 -23.600 -16.045  0.00  0.00    +0.072 C 
ATOM     12  C   UNL     1      30.036 -23.553 -16.111  0.00  0.00    +0.021 C 
ATOM     13  C   UNL     1      32.062 -23.167 -14.672  0.00  0.00    +0.021 C 
ENDBRANCH   8  11
ENDBRANCH   2   9
BRANCH   1  14
ATOM     14  C   UNL     1      35.050 -19.299 -21.726  0.00  0.00    +0.110 C 
BRANCH  14  15
ATOM     15  N   UNL     1      35.625 -18.113 -21.129  0.00  0.00    -0.241 NA
ATOM     16  H   UNL     1      35.430 -18.103 -20.127  0.00  0.00    +0.142 HD
BRANCH  15  17
ATOM     17  N   UNL     1      35.036 -16.958 -21.750  0.00  0.00    -0.244 NA
ATOM     18  C   UNL     1      34.273 -16.231 -20.744  0.00  0.00    +0.103 C 
ATOM     19  H   UNL     1      34.416 -17.252 -22.506  0.00  0.00    +0.141 HD
ENDBRANCH  15  17
ENDBRANCH  14  15
ENDBRANCH   1  14
TORSDOF 5
ENDMDL
MODEL 6
REMARK VINA RESULT:      -7.4      4.920      9.245
REMARK  Name = 4915
REMARK  5 active torsions:
REMARK  status: ('A' for Active; 'I' for Inactive)
REMARK    1  A    between atoms: C_1  and  C_14
REMARK    2  A    between atoms: C_2  and  C_9
REMARK    3  A    between atoms: N_8  and  C_11
REMARK    4  A    between atoms: C_14  and  N_15
REMARK    5  A    between atoms: N_15  and  N_17
REMARK                            x       y       z     vdW  Elec       q    Type
REMARK                         _______ _______ _______ _____ _____    ______ ____
ROOT
ATOM      1  C   UNL     1      34.999 -16.891 -21.869  0.00  0.00    -0.005 C 
ATOM      2  C   UNL     1      34.152 -14.757 -23.427  0.00  0.00    +0.053 C 
ATOM      3  C   UNL     1      34.606 -15.697 -21.263  0.00  0.00    -0.003 C 
ATOM      4  C   UNL     1      34.967 -17.012 -23.259  0.00  0.00    -0.003 C 
ATOM      5  C   UNL     1      34.180 -14.625 -22.047  0.00  0.00    +0.004 C 
ATOM      6  C   UNL     1      34.540 -15.939 -24.042  0.00  0.00    +0.004 C 
ENDROOT
BRANCH   2   9
ATOM      7  O   UNL     1      33.006 -13.800 -25.252  0.00  0.00    -0.270 OA
ATOM      8  N   UNL     1      34.136 -12.358 -23.853  0.00  0.00    -0.302 N 
ATOM      9  C   UNL     1      33.703 -13.628 -24.253  0.00  0.00    +0.246 C 
ATOM     10  H   UNL     1      34.692 -12.283 -23.043  0.00  0.00    +0.150 HD
BRANCH   8  11
ATOM     11  C   UNL     1      33.797 -11.140 -24.587  0.00  0.00    +0.072 C 
ATOM     12  C   UNL     1      35.021 -10.611 -25.328  0.00  0.00    +0.021 C 
ATOM     13  C   UNL     1      33.252 -10.098 -23.616  0.00  0.00    +0.021 C 
ENDBRANCH   8  11
ENDBRANCH   2   9
BRANCH   1  14
ATOM     14  C   UNL     1      35.455 -18.038 -21.031  0.00  0.00    +0.110 C 
BRANCH  14  15
ATOM     15  N   UNL     1      35.103 -19.300 -21.644  0.00  0.00    -0.241 NA
ATOM     16  H   UNL     1      34.441 -19.140 -22.405  0.00  0.00    +0.142 HD
BRANCH  15  17
ATOM     17  N   UNL     1      34.501 -20.140 -20.645  0.00  0.00    -0.244 NA
ATOM     18  C   UNL     1      33.057 -19.951 -20.691  0.00  0.00    +0.103 C 
ATOM     19  H   UNL     1      34.853 -19.884 -19.722  0.00  0.00    +0.141 HD
ENDBRANCH  15  17
ENDBRANCH  14  15
ENDBRANCH   1  14
TORSDOF 5
ENDMDL
MODEL 7
REMARK VINA RESULT:      -7.3      4.149      6.433
REMARK  Name = 4915
REMARK  5 active torsions:
REMARK  status: ('A' for Active; 'I' for Inactive)
REMARK    1  A    between atoms: C_1  and  C_14
REMARK    2  A    between atoms: C_2  and  C_9
REMARK    3  A    between atoms: N_8  and  C_11
REMARK    4  A    between atoms: C_14  and  N_15
REMARK    5  A    between atoms: N_15  and  N_17
REMARK                            x       y       z     vdW  Elec       q    Type
REMARK                         _______ _______ _______ _____ _____    ______ ____
ROOT
ATOM      1  C   UNL     1      33.893 -14.042 -23.169  0.00  0.00    -0.005 C 
ATOM      2  C   UNL     1      34.730 -16.654 -22.752  0.00  0.00    +0.053 C 
ATOM      3  C   UNL     1      33.919 -14.944 -24.232  0.00  0.00    -0.003 C 
ATOM      4  C   UNL     1      34.288 -14.452 -21.895  0.00  0.00    -0.003 C 
ATOM      5  C   UNL     1      34.340 -16.257 -24.022  0.00  0.00    +0.004 C 
ATOM      6  C   UNL     1      34.708 -15.766 -21.686  0.00  0.00    +0.004 C 
ENDROOT
BRANCH   2   9
ATOM      7  O   UNL     1      35.855 -18.634 -23.362  0.00  0.00    -0.270 OA
ATOM      8  N   UNL     1      34.750 -18.640 -21.340  0.00  0.00    -0.302 N 
ATOM      9  C   UNL     1      35.172 -18.037 -22.531  0.00  0.00    +0.246 C 
ATOM     10  H   UNL     1      34.205 -18.111 -20.712  0.00  0.00    +0.150 HD
BRANCH   8  11
ATOM     11  C   UNL     1      35.083 -20.019 -20.990  0.00  0.00    +0.072 C 
ATOM     12  C   UNL     1      33.973 -20.633 -20.142  0.00  0.00    +0.021 C 
ATOM     13  C   UNL     1      36.417 -20.047 -20.250  0.00  0.00    +0.021 C 
ENDBRANCH   8  11
ENDBRANCH   2   9
BRANCH   1  14
ATOM     14  C   UNL     1      33.444 -12.637 -23.393  0.00  0.00    +0.110 C 
BRANCH  14  15
ATOM     15  N   UNL     1      34.149 -12.040 -24.506  0.00  0.00    -0.241 NA
ATOM     16  H   UNL     1      34.947 -12.622 -24.761  0.00  0.00    +0.142 HD
BRANCH  15  17
ATOM     17  N   UNL     1      34.606 -10.735 -24.110  0.00  0.00    -0.244 NA
ATOM     18  C   UNL     1      33.445  -9.924 -23.768  0.00  0.00    +0.103 C 
ATOM     19  H   UNL     1      35.115 -10.300 -24.880  0.00  0.00    +0.141 HD
ENDBRANCH  15  17
ENDBRANCH  14  15
ENDBRANCH   1  14
TORSDOF 5
ENDMDL
MODEL 8
REMARK VINA RESULT:      -7.2      2.084      2.885
REMARK  Name = 4915
REMARK  5 active torsions:
REMARK  status: ('A' for Active; 'I' for Inactive)
REMARK    1  A    between atoms: C_1  and  C_14
REMARK    2  A    between atoms: C_2  and  C_9
REMARK    3  A    between atoms: N_8  and  C_11
REMARK    4  A    between atoms: C_14  and  N_15
REMARK    5  A    between atoms: N_15  and  N_17
REMARK                            x       y       z     vdW  Elec       q    Type
REMARK                         _______ _______ _______ _____ _____    ______ ____
ROOT
ATOM      1  C   UNL     1      34.899 -20.548 -20.315  0.00  0.00    -0.005 C 
ATOM      2  C   UNL     1      34.300 -22.291 -18.240  0.00  0.00    +0.053 C 
ATOM      3  C   UNL     1      35.923 -21.069 -19.523  0.00  0.00    -0.003 C 
ATOM      4  C   UNL     1      33.573 -20.904 -20.064  0.00  0.00    -0.003 C 
ATOM      5  C   UNL     1      35.621 -21.945 -18.480  0.00  0.00    +0.004 C 
ATOM      6  C   UNL     1      33.273 -21.780 -19.021  0.00  0.00    +0.004 C 
ENDROOT
BRANCH   2   9
ATOM      7  O   UNL     1      32.854 -23.685 -17.006  0.00  0.00    -0.270 OA
ATOM      8  N   UNL     1      35.025 -23.501 -16.253  0.00  0.00    -0.302 N 
ATOM      9  C   UNL     1      33.982 -23.214 -17.143  0.00  0.00    +0.246 C 
ATOM     10  H   UNL     1      35.907 -23.094 -16.415  0.00  0.00    +0.150 HD
BRANCH   8  11
ATOM     11  C   UNL     1      34.857 -24.378 -15.096  0.00  0.00    +0.072 C 
ATOM     12  C   UNL     1      35.070 -23.595 -13.804  0.00  0.00    +0.021 C 
ATOM     13  C   UNL     1      35.835 -25.544 -15.197  0.00  0.00    +0.021 C 
ENDBRANCH   8  11
ENDBRANCH   2   9
BRANCH   1  14
ATOM     14  C   UNL     1      35.221 -19.611 -21.429  0.00  0.00    +0.110 C 
BRANCH  14  15
ATOM     15  N   UNL     1      36.067 -18.531 -20.970  0.00  0.00    -0.241 NA
ATOM     16  H   UNL     1      36.516 -18.795 -20.092  0.00  0.00    +0.142 HD
BRANCH  15  17
ATOM     17  N   UNL     1      35.250 -17.366 -20.767  0.00  0.00    -0.244 NA
ATOM     18  C   UNL     1      34.515 -17.098 -21.996  0.00  0.00    +0.103 C 
ATOM     19  H   UNL     1      35.842 -16.566 -20.539  0.00  0.00    +0.141 HD
ENDBRANCH  15  17
ENDBRANCH  14  15
ENDBRANCH   1  14
TORSDOF 5
ENDMDL
MODEL 9
REMARK VINA RESULT:      -7.1      6.799     10.054
REMARK  Name = 4915
REMARK  5 active torsions:
REMARK  status: ('A' for Active; 'I' for Inactive)
REMARK    1  A    between atoms: C_1  and  C_14
REMARK    2  A    between atoms: C_2  and  C_9
REMARK    3  A    between atoms: N_8  and  C_11
REMARK    4  A    between atoms: C_14  and  N_15
REMARK    5  A    between atoms: N_15  and  N_17
REMARK                            x       y       z     vdW  Elec       q    Type
REMARK                         _______ _______ _______ _____ _____    ______ ____
ROOT
ATOM      1  C   UNL     1      33.794 -15.002 -22.281  0.00  0.00    -0.005 C 
ATOM      2  C   UNL     1      32.355 -12.647 -21.995  0.00  0.00    +0.053 C 
ATOM      3  C   UNL     1      33.778 -14.064 -23.314  0.00  0.00    -0.003 C 
ATOM      4  C   UNL     1      33.086 -14.756 -21.104  0.00  0.00    -0.003 C 
ATOM      5  C   UNL     1      33.054 -12.880 -23.169  0.00  0.00    +0.004 C 
ATOM      6  C   UNL     1      32.363 -13.572 -20.960  0.00  0.00    +0.004 C 
ENDROOT
BRANCH   2   9
ATOM      7  O   UNL     1      30.496 -11.381 -21.285  0.00  0.00    -0.270 OA
ATOM      8  N   UNL     1      32.173 -10.249 -22.389  0.00  0.00    -0.302 N 
ATOM      9  C   UNL     1      31.593 -11.400 -21.842  0.00  0.00    +0.246 C 
ATOM     10  H   UNL     1      33.054 -10.327 -22.823  0.00  0.00    +0.150 HD
BRANCH   8  11
ATOM     11  C   UNL     1      31.526  -8.940 -22.343  0.00  0.00    +0.072 C 
ATOM     12  C   UNL     1      31.561  -8.284 -23.720  0.00  0.00    +0.021 C 
ATOM     13  C   UNL     1      32.220  -8.067 -21.303  0.00  0.00    +0.021 C 
ENDBRANCH   8  11
ENDBRANCH   2   9
BRANCH   1  14
ATOM     14  C   UNL     1      34.567 -16.268 -22.436  0.00  0.00    +0.110 C 
BRANCH  14  15
ATOM     15  N   UNL     1      35.516 -16.166 -23.524  0.00  0.00    -0.241 NA
ATOM     16  H   UNL     1      35.389 -15.277 -24.009  0.00  0.00    +0.142 HD
BRANCH  15  17
ATOM     17  N   UNL     1      35.284 -17.254 -24.435  0.00  0.00    -0.244 NA
ATOM     18  C   UNL     1      35.056 -18.465 -23.659  0.00  0.00    +0.103 C 
ATOM     19  H   UNL     1      36.099 -17.378 -25.036  0.00  0.00    +0.141 HD
ENDBRANCH  15  17
ENDBRANCH  14  15
ENDBRANCH   1  14
TORSDOF 5
ENDMDL
