MODEL 1
REMARK VINA RESULT:      -4.6      0.000      0.000
REMARK  Name = 26001
REMARK  4 active torsions:
REMARK  status: ('A' for Active; 'I' for Inactive)
REMARK    1  A    between atoms: C_1  and  N_2
REMARK    2  A    between atoms: C_1  and  C_6
REMARK    3  A    between atoms: C_6  and  O_7
REMARK    4  A    between atoms: O_7  and  N_10
REMARK                            x       y       z     vdW  Elec       q    Type
REMARK                         _______ _______ _______ _____ _____    ______ ____
ROOT
ATOM      1  C   UNL     1      37.172 -26.781 -14.130  0.00  0.00    -0.035 C 
ENDROOT
BRANCH   1   2
ATOM      2  N   UNL     1      36.174 -26.797 -15.188  0.00  0.00    +0.383 N 
ATOM      3  H   UNL     1      35.392 -26.197 -14.927  0.00  0.00    -0.089 HD
ATOM      4  H   UNL     1      35.839 -27.751 -15.325  0.00  0.00    -0.089 HD
ATOM      5  H   UNL     1      36.590 -26.455 -16.054  0.00  0.00    -0.089 HD
ENDBRANCH   1   2
BRANCH   1   6
ATOM      6  C   UNL     1      38.319 -25.850 -14.488  0.00  0.00    +0.220 C 
BRANCH   6   7
ATOM      7  O   UNL     1      39.440 -26.634 -14.877  0.00  0.00    -0.338 OA
BRANCH   7  10
ATOM      8  O   UNL     1      41.353 -26.968 -13.816  0.00  0.00    -0.090 OA
ATOM      9  O   UNL     1      40.935 -24.938 -14.638  0.00  0.00    -0.090 OA
ATOM     10  N   UNL     1      40.681 -26.123 -14.409  0.00  0.00    +0.218 N 
ENDBRANCH   7  10
ENDBRANCH   6   7
ENDBRANCH   1   6
TORSDOF 4
ENDMDL
MODEL 2
REMARK VINA RESULT:      -4.5     11.814     13.019
REMARK  Name = 26001
REMARK  4 active torsions:
REMARK  status: ('A' for Active; 'I' for Inactive)
REMARK    1  A    between atoms: C_1  and  N_2
REMARK    2  A    between atoms: C_1  and  C_6
REMARK    3  A    between atoms: C_6  and  O_7
REMARK    4  A    between atoms: O_7  and  N_10
REMARK                            x       y       z     vdW  Elec       q    Type
REMARK                         _______ _______ _______ _____ _____    ______ ____
ROOT
ATOM      1  C   UNL     1      28.787 -23.690 -15.885  0.00  0.00    -0.035 C 
ENDROOT
BRANCH   1   2
ATOM      2  N   UNL     1      29.806 -22.754 -15.435  0.00  0.00    +0.383 N 
ATOM      3  H   UNL     1      30.221 -23.095 -14.567  0.00  0.00    -0.089 HD
ATOM      4  H   UNL     1      29.381 -21.841 -15.273  0.00  0.00    -0.089 HD
ATOM      5  H   UNL     1      30.531 -22.671 -16.148  0.00  0.00    -0.089 HD
ENDBRANCH   1   2
BRANCH   1   6
ATOM      6  C   UNL     1      28.011 -23.114 -17.059  0.00  0.00    +0.220 C 
BRANCH   6   7
ATOM      7  O   UNL     1      27.740 -21.743 -16.798  0.00  0.00    -0.338 OA
BRANCH   7  10
ATOM      8  O   UNL     1      25.569 -21.879 -16.387  0.00  0.00    -0.090 OA
ATOM      9  O   UNL     1      26.254 -20.570 -18.057  0.00  0.00    -0.090 OA
ATOM     10  N   UNL     1      26.411 -21.355 -17.119  0.00  0.00    +0.218 N 
ENDBRANCH   7  10
ENDBRANCH   6   7
ENDBRANCH   1   6
TORSDOF 4
ENDMDL
MODEL 3
REMARK VINA RESULT:      -4.5      1.352      1.394
REMARK  Name = 26001
REMARK  4 active torsions:
REMARK  status: ('A' for Active; 'I' for Inactive)
REMARK    1  A    between atoms: C_1  and  N_2
REMARK    2  A    between atoms: C_1  and  C_6
REMARK    3  A    between atoms: C_6  and  O_7
REMARK    4  A    between atoms: O_7  and  N_10
REMARK                            x       y       z     vdW  Elec       q    Type
REMARK                         _______ _______ _______ _____ _____    ______ ____
ROOT
ATOM      1  C   UNL     1      37.290 -25.202 -14.635  0.00  0.00    -0.035 C 
ENDROOT
BRANCH   1   2
ATOM      2  N   UNL     1      37.954 -24.157 -15.401  0.00  0.00    +0.383 N 
ATOM      3  H   UNL     1      38.948 -24.146 -15.171  0.00  0.00    -0.089 HD
ATOM      4  H   UNL     1      37.541 -23.253 -15.171  0.00  0.00    -0.089 HD
ATOM      5  H   UNL     1      37.838 -24.341 -16.398  0.00  0.00    -0.089 HD
ENDBRANCH   1   2
BRANCH   1   6
ATOM      6  C   UNL     1      38.303 -26.007 -13.836  0.00  0.00    +0.220 C 
BRANCH   6   7
ATOM      7  O   UNL     1      39.320 -26.465 -14.718  0.00  0.00    -0.338 OA
BRANCH   7  10
ATOM      8  O   UNL     1      41.373 -26.931 -14.035  0.00  0.00    -0.090 OA
ATOM      9  O   UNL     1      40.845 -24.803 -14.435  0.00  0.00    -0.090 OA
ATOM     10  N   UNL     1      40.622 -26.013 -14.369  0.00  0.00    +0.218 N 
ENDBRANCH   7  10
ENDBRANCH   6   7
ENDBRANCH   1   6
TORSDOF 4
ENDMDL
MODEL 4
REMARK VINA RESULT:      -4.4      3.134      3.456
REMARK  Name = 26001
REMARK  4 active torsions:
REMARK  status: ('A' for Active; 'I' for Inactive)
REMARK    1  A    between atoms: C_1  and  N_2
REMARK    2  A    between atoms: C_1  and  C_6
REMARK    3  A    between atoms: C_6  and  O_7
REMARK    4  A    between atoms: O_7  and  N_10
REMARK                            x       y       z     vdW  Elec       q    Type
REMARK                         _______ _______ _______ _____ _____    ______ ____
ROOT
ATOM      1  C   UNL     1      38.025 -26.268 -14.429  0.00  0.00    -0.035 C 
ENDROOT
BRANCH   1   2
ATOM      2  N   UNL     1      37.110 -26.981 -13.549  0.00  0.00    +0.383 N 
ATOM      3  H   UNL     1      36.180 -26.569 -13.619  0.00  0.00    -0.089 HD
ATOM      4  H   UNL     1      37.441 -26.911 -12.586  0.00  0.00    -0.089 HD
ATOM      5  H   UNL     1      37.069 -27.962 -13.824  0.00  0.00    -0.089 HD
ENDBRANCH   1   2
BRANCH   1   6
ATOM      6  C   UNL     1      39.013 -25.444 -13.620  0.00  0.00    +0.220 C 
BRANCH   6   7
ATOM      7  O   UNL     1      38.436 -24.172 -13.351  0.00  0.00    -0.338 OA
BRANCH   7  10
ATOM      8  O   UNL     1      38.598 -22.803 -11.620  0.00  0.00    -0.090 OA
ATOM      9  O   UNL     1      37.716 -24.825 -11.296  0.00  0.00    -0.090 OA
ATOM     10  N   UNL     1      38.226 -23.925 -11.967  0.00  0.00    +0.218 N 
ENDBRANCH   7  10
ENDBRANCH   6   7
ENDBRANCH   1   6
TORSDOF 4
ENDMDL
MODEL 5
REMARK VINA RESULT:      -4.3      4.427      5.086
REMARK  Name = 26001
REMARK  4 active torsions:
REMARK  status: ('A' for Active; 'I' for Inactive)
REMARK    1  A    between atoms: C_1  and  N_2
REMARK    2  A    between atoms: C_1  and  C_6
REMARK    3  A    between atoms: C_6  and  O_7
REMARK    4  A    between atoms: O_7  and  N_10
REMARK                            x       y       z     vdW  Elec       q    Type
REMARK                         _______ _______ _______ _____ _____    ______ ____
ROOT
ATOM      1  C   UNL     1      37.713 -25.679 -13.556  0.00  0.00    -0.035 C 
ENDROOT
BRANCH   1   2
ATOM      2  N   UNL     1      36.974 -26.933 -13.561  0.00  0.00    +0.383 N 
ATOM      3  H   UNL     1      36.600 -27.103 -14.495  0.00  0.00    -0.089 HD
ATOM      4  H   UNL     1      36.205 -26.876 -12.893  0.00  0.00    -0.089 HD
ATOM      5  H   UNL     1      37.596 -27.697 -13.300  0.00  0.00    -0.089 HD
ENDBRANCH   1   2
BRANCH   1   6
ATOM      6  C   UNL     1      37.531 -24.955 -12.232  0.00  0.00    +0.220 C 
BRANCH   6   7
ATOM      7  O   UNL     1      36.480 -25.582 -11.509  0.00  0.00    -0.338 OA
BRANCH   7  10
ATOM      8  O   UNL     1      34.840 -24.150 -11.907  0.00  0.00    -0.090 OA
ATOM      9  O   UNL     1      35.445 -24.510  -9.792  0.00  0.00    -0.090 OA
ATOM     10  N   UNL     1      35.508 -24.671 -11.013  0.00  0.00    +0.218 N 
ENDBRANCH   7  10
ENDBRANCH   6   7
ENDBRANCH   1   6
TORSDOF 4
ENDMDL
MODEL 6
REMARK VINA RESULT:      -4.2      2.299      3.924
REMARK  Name = 26001
REMARK  4 active torsions:
REMARK  status: ('A' for Active; 'I' for Inactive)
REMARK    1  A    between atoms: C_1  and  N_2
REMARK    2  A    between atoms: C_1  and  C_6
REMARK    3  A    between atoms: C_6  and  O_7
REMARK    4  A    between atoms: O_7  and  N_10
REMARK                            x       y       z     vdW  Elec       q    Type
REMARK                         _______ _______ _______ _____ _____    ______ ____
ROOT
ATOM      1  C   UNL     1      39.494 -25.642 -14.689  0.00  0.00    -0.035 C 
ENDROOT
BRANCH   1   2
ATOM      2  N   UNL     1      40.597 -26.488 -14.259  0.00  0.00    +0.383 N 
ATOM      3  H   UNL     1      41.467 -26.145 -14.665  0.00  0.00    -0.089 HD
ATOM      4  H   UNL     1      40.432 -27.446 -14.569  0.00  0.00    -0.089 HD
ATOM      5  H   UNL     1      40.666 -26.467 -13.241  0.00  0.00    -0.089 HD
ENDBRANCH   1   2
BRANCH   1   6
ATOM      6  C   UNL     1      38.255 -25.910 -13.850  0.00  0.00    +0.220 C 
BRANCH   6   7
ATOM      7  O   UNL     1      37.595 -27.060 -14.364  0.00  0.00    -0.338 OA
BRANCH   7  10
ATOM      8  O   UNL     1      36.064 -25.767 -15.304  0.00  0.00    -0.090 OA
ATOM      9  O   UNL     1      36.779 -27.554 -16.427  0.00  0.00    -0.090 OA
ATOM     10  N   UNL     1      36.744 -26.781 -15.468  0.00  0.00    +0.218 N 
ENDBRANCH   7  10
ENDBRANCH   6   7
ENDBRANCH   1   6
TORSDOF 4
ENDMDL
MODEL 7
REMARK VINA RESULT:      -4.2     10.604     11.311
REMARK  Name = 26001
REMARK  4 active torsions:
REMARK  status: ('A' for Active; 'I' for Inactive)
REMARK    1  A    between atoms: C_1  and  N_2
REMARK    2  A    between atoms: C_1  and  C_6
REMARK    3  A    between atoms: C_6  and  O_7
REMARK    4  A    between atoms: O_7  and  N_10
REMARK                            x       y       z     vdW  Elec       q    Type
REMARK                         _______ _______ _______ _____ _____    ______ ____
ROOT
ATOM      1  C   UNL     1      30.183 -24.863 -14.877  0.00  0.00    -0.035 C 
ENDROOT
BRANCH   1   2
ATOM      2  N   UNL     1      29.033 -25.562 -14.321  0.00  0.00    +0.383 N 
ATOM      3  H   UNL     1      28.290 -24.891 -14.127  0.00  0.00    -0.089 HD
ATOM      4  H   UNL     1      29.305 -26.028 -13.455  0.00  0.00    -0.089 HD
ATOM      5  H   UNL     1      28.700 -26.255 -14.991  0.00  0.00    -0.089 HD
ENDBRANCH   1   2
BRANCH   1   6
ATOM      6  C   UNL     1      29.786 -23.477 -15.358  0.00  0.00    +0.220 C 
BRANCH   6   7
ATOM      7  O   UNL     1      28.378 -23.445 -15.549  0.00  0.00    -0.338 OA
BRANCH   7  10
ATOM      8  O   UNL     1      27.995 -21.816 -16.998  0.00  0.00    -0.090 OA
ATOM      9  O   UNL     1      27.702 -23.923 -17.666  0.00  0.00    -0.090 OA
ATOM     10  N   UNL     1      27.990 -23.040 -16.855  0.00  0.00    +0.218 N 
ENDBRANCH   7  10
ENDBRANCH   6   7
ENDBRANCH   1   6
TORSDOF 4
ENDMDL
MODEL 8
REMARK VINA RESULT:      -4.2     10.986     11.980
REMARK  Name = 26001
REMARK  4 active torsions:
REMARK  status: ('A' for Active; 'I' for Inactive)
REMARK    1  A    between atoms: C_1  and  N_2
REMARK    2  A    between atoms: C_1  and  C_6
REMARK    3  A    between atoms: C_6  and  O_7
REMARK    4  A    between atoms: O_7  and  N_10
REMARK                            x       y       z     vdW  Elec       q    Type
REMARK                         _______ _______ _______ _____ _____    ______ ____
ROOT
ATOM      1  C   UNL     1      41.878 -13.124 -17.293  0.00  0.00    -0.035 C 
ENDROOT
BRANCH   1   2
ATOM      2  N   UNL     1      41.968 -13.233 -15.845  0.00  0.00    +0.383 N 
ATOM      3  H   UNL     1      41.031 -13.329 -15.452  0.00  0.00    -0.089 HD
ATOM      4  H   UNL     1      42.410 -12.394 -15.468  0.00  0.00    -0.089 HD
ATOM      5  H   UNL     1      42.525 -14.051 -15.599  0.00  0.00    -0.089 HD
ENDBRANCH   1   2
BRANCH   1   6
ATOM      6  C   UNL     1      41.533 -14.469 -17.912  0.00  0.00    +0.220 C 
BRANCH   6   7
ATOM      7  O   UNL     1      41.098 -15.347 -16.882  0.00  0.00    -0.338 OA
BRANCH   7  10
ATOM      8  O   UNL     1      41.448 -17.530 -16.994  0.00  0.00    -0.090 OA
ATOM      9  O   UNL     1      43.087 -16.230 -16.223  0.00  0.00    -0.090 OA
ATOM     10  N   UNL     1      41.963 -16.457 -16.677  0.00  0.00    +0.218 N 
ENDBRANCH   7  10
ENDBRANCH   6   7
ENDBRANCH   1   6
TORSDOF 4
ENDMDL
MODEL 9
REMARK VINA RESULT:      -4.1      3.448      3.818
REMARK  Name = 26001
REMARK  4 active torsions:
REMARK  status: ('A' for Active; 'I' for Inactive)
REMARK    1  A    between atoms: C_1  and  N_2
REMARK    2  A    between atoms: C_1  and  C_6
REMARK    3  A    between atoms: C_6  and  O_7
REMARK    4  A    between atoms: O_7  and  N_10
REMARK                            x       y       z     vdW  Elec       q    Type
REMARK                         _______ _______ _______ _____ _____    ______ ____
ROOT
ATOM      1  C   UNL     1      37.223 -24.076 -14.782  0.00  0.00    -0.035 C 
ENDROOT
BRANCH   1   2
ATOM      2  N   UNL     1      38.014 -23.407 -15.804  0.00  0.00    +0.383 N 
ATOM      3  H   UNL     1      37.570 -22.522 -16.052  0.00  0.00    -0.089 HD
ATOM      4  H   UNL     1      38.074 -24.001 -16.631  0.00  0.00    -0.089 HD
ATOM      5  H   UNL     1      38.952 -23.227 -15.445  0.00  0.00    -0.089 HD
ENDBRANCH   1   2
BRANCH   1   6
ATOM      6  C   UNL     1      38.079 -25.059 -14.000  0.00  0.00    +0.220 C 
BRANCH   6   7
ATOM      7  O   UNL     1      38.929 -24.329 -13.125  0.00  0.00    -0.338 OA
BRANCH   7  10
ATOM      8  O   UNL     1      38.447 -22.742 -11.659  0.00  0.00    -0.090 OA
ATOM      9  O   UNL     1      37.693 -24.804 -11.277  0.00  0.00    -0.090 OA
ATOM     10  N   UNL     1      38.296 -23.938 -11.913  0.00  0.00    +0.218 N 
ENDBRANCH   7  10
ENDBRANCH   6   7
ENDBRANCH   1   6
TORSDOF 4
ENDMDL
