MODEL 1
REMARK VINA RESULT:      -6.9      0.000      0.000
REMARK  Name = 3517
REMARK  4 active torsions:
REMARK  status: ('A' for Active; 'I' for Inactive)
REMARK    1  A    between atoms: N_1  and  C_2
REMARK    2  A    between atoms: N_1  and  N_11
REMARK    3  A    between atoms: C_2  and  C_5
REMARK    4  A    between atoms: N_11  and  C_14
REMARK                            x       y       z     vdW  Elec       q    Type
REMARK                         _______ _______ _______ _____ _____    ______ ____
ROOT
ATOM      1  N   UNL     1      33.290 -14.693 -23.900  0.00  0.00    -0.092 NA
ENDROOT
BRANCH   1   2
ATOM      2  C   UNL     1      34.458 -15.046 -23.454  0.00  0.00    +0.144 C 
BRANCH   2   5
ATOM      3 CL   UNL     1      34.573 -15.333 -20.428  0.00  0.00    -0.082 Cl
ATOM      4 CL   UNL     1      34.841 -17.223 -25.544  0.00  0.00    -0.082 Cl
ATOM      5  C   UNL     1      34.729 -16.389 -22.943  0.00  0.00    +0.019 C 
ATOM      6  C   UNL     1      34.799 -16.611 -21.569  0.00  0.00    +0.056 C 
ATOM      7  C   UNL     1      34.918 -17.447 -23.832  0.00  0.00    +0.056 C 
ATOM      8  C   UNL     1      35.058 -17.893 -21.081  0.00  0.00    +0.011 C 
ATOM      9  C   UNL     1      35.177 -18.728 -23.345  0.00  0.00    +0.011 C 
ATOM     10  C   UNL     1      35.247 -18.952 -21.970  0.00  0.00    +0.002 C 
ENDBRANCH   2   5
ENDBRANCH   1   2
BRANCH   1  11
ATOM     11  N   UNL     1      33.390 -13.592 -24.745  0.00  0.00    -0.145 NA
BRANCH  11  14
ATOM     12  N   UNL     1      32.387 -14.992 -26.413  0.00  0.00    -0.369 N 
ATOM     13  N   UNL     1      33.460 -13.066 -27.018  0.00  0.00    -0.369 N 
ATOM     14  C   UNL     1      33.085 -13.886 -25.981  0.00  0.00    +0.207 C 
ATOM     15  H   UNL     1      32.065 -15.655 -25.761  0.00  0.00    +0.159 HD
ATOM     16  H   UNL     1      32.212 -15.119 -27.373  0.00  0.00    +0.159 HD
ATOM     17  H   UNL     1      33.965 -12.241 -26.836  0.00  0.00    +0.159 HD
ATOM     18  H   UNL     1      33.223 -13.303 -27.944  0.00  0.00    +0.159 HD
ENDBRANCH  11  14
ENDBRANCH   1  11
TORSDOF 4
ENDMDL
MODEL 2
REMARK VINA RESULT:      -6.9      7.251      9.215
REMARK  Name = 3517
REMARK  4 active torsions:
REMARK  status: ('A' for Active; 'I' for Inactive)
REMARK    1  A    between atoms: N_1  and  C_2
REMARK    2  A    between atoms: N_1  and  N_11
REMARK    3  A    between atoms: C_2  and  C_5
REMARK    4  A    between atoms: N_11  and  C_14
REMARK                            x       y       z     vdW  Elec       q    Type
REMARK                         _______ _______ _______ _____ _____    ______ ____
ROOT
ATOM      1  N   UNL     1      36.717 -21.257 -17.618  0.00  0.00    -0.092 NA
ENDROOT
BRANCH   1   2
ATOM      2  C   UNL     1      36.377 -21.669 -18.802  0.00  0.00    +0.144 C 
BRANCH   2   5
ATOM      3 CL   UNL     1      37.085 -19.421 -20.725  0.00  0.00    -0.082 Cl
ATOM      4 CL   UNL     1      33.626 -22.843 -18.246  0.00  0.00    -0.082 Cl
ATOM      5  C   UNL     1      35.264 -21.084 -19.547  0.00  0.00    +0.019 C 
ATOM      6  C   UNL     1      35.498 -20.048 -20.451  0.00  0.00    +0.056 C 
ATOM      7  C   UNL     1      33.968 -21.561 -19.354  0.00  0.00    +0.056 C 
ATOM      8  C   UNL     1      34.435 -19.489 -21.162  0.00  0.00    +0.011 C 
ATOM      9  C   UNL     1      32.906 -21.003 -20.064  0.00  0.00    +0.011 C 
ATOM     10  C   UNL     1      33.139 -19.967 -20.969  0.00  0.00    +0.002 C 
ENDBRANCH   2   5
ENDBRANCH   1   2
BRANCH   1  11
ATOM     11  N   UNL     1      37.544 -22.181 -16.985  0.00  0.00    -0.145 NA
BRANCH  11  14
ATOM     12  N   UNL     1      35.731 -22.476 -15.444  0.00  0.00    -0.369 N 
ATOM     13  N   UNL     1      37.451 -23.981 -15.503  0.00  0.00    -0.369 N 
ATOM     14  C   UNL     1      36.926 -22.827 -16.032  0.00  0.00    +0.207 C 
ATOM     15  H   UNL     1      35.257 -21.666 -15.740  0.00  0.00    +0.159 HD
ATOM     16  H   UNL     1      35.352 -23.036 -14.728  0.00  0.00    +0.159 HD
ATOM     17  H   UNL     1      38.305 -24.335 -15.841  0.00  0.00    +0.159 HD
ATOM     18  H   UNL     1      36.974 -24.454 -14.783  0.00  0.00    +0.159 HD
ENDBRANCH  11  14
ENDBRANCH   1  11
TORSDOF 4
ENDMDL
MODEL 3
REMARK VINA RESULT:      -6.9      0.034      2.435
REMARK  Name = 3517
REMARK  4 active torsions:
REMARK  status: ('A' for Active; 'I' for Inactive)
REMARK    1  A    between atoms: N_1  and  C_2
REMARK    2  A    between atoms: N_1  and  N_11
REMARK    3  A    between atoms: C_2  and  C_5
REMARK    4  A    between atoms: N_11  and  C_14
REMARK                            x       y       z     vdW  Elec       q    Type
REMARK                         _______ _______ _______ _____ _____    ______ ____
ROOT
ATOM      1  N   UNL     1      33.300 -14.670 -23.909  0.00  0.00    -0.092 NA
ENDROOT
BRANCH   1   2
ATOM      2  C   UNL     1      34.456 -15.011 -23.424  0.00  0.00    +0.144 C 
BRANCH   2   5
ATOM      3 CL   UNL     1      34.855 -17.166 -25.535  0.00  0.00    -0.082 Cl
ATOM      4 CL   UNL     1      34.561 -15.329 -20.401  0.00  0.00    -0.082 Cl
ATOM      5  C   UNL     1      34.731 -16.358 -22.927  0.00  0.00    +0.019 C 
ATOM      6  C   UNL     1      34.928 -17.407 -23.825  0.00  0.00    +0.056 C 
ATOM      7  C   UNL     1      34.797 -16.594 -21.554  0.00  0.00    +0.056 C 
ATOM      8  C   UNL     1      35.191 -18.692 -23.350  0.00  0.00    +0.011 C 
ATOM      9  C   UNL     1      35.060 -17.879 -21.079  0.00  0.00    +0.011 C 
ATOM     10  C   UNL     1      35.258 -18.928 -21.976  0.00  0.00    +0.002 C 
ENDBRANCH   2   5
ENDBRANCH   1   2
BRANCH   1  11
ATOM     11  N   UNL     1      33.419 -13.579 -24.765  0.00  0.00    -0.145 NA
BRANCH  11  14
ATOM     12  N   UNL     1      32.385 -14.983 -26.410  0.00  0.00    -0.369 N 
ATOM     13  N   UNL     1      33.441 -13.056 -27.039  0.00  0.00    -0.369 N 
ATOM     14  C   UNL     1      33.090 -13.876 -25.994  0.00  0.00    +0.207 C 
ATOM     15  H   UNL     1      32.077 -15.646 -25.751  0.00  0.00    +0.159 HD
ATOM     16  H   UNL     1      32.190 -15.112 -27.366  0.00  0.00    +0.159 HD
ATOM     17  H   UNL     1      33.949 -12.230 -26.869  0.00  0.00    +0.159 HD
ATOM     18  H   UNL     1      33.186 -13.295 -27.960  0.00  0.00    +0.159 HD
ENDBRANCH  11  14
ENDBRANCH   1  11
TORSDOF 4
ENDMDL
MODEL 4
REMARK VINA RESULT:      -6.8      7.211      9.093
REMARK  Name = 3517
REMARK  4 active torsions:
REMARK  status: ('A' for Active; 'I' for Inactive)
REMARK    1  A    between atoms: N_1  and  C_2
REMARK    2  A    between atoms: N_1  and  N_11
REMARK    3  A    between atoms: C_2  and  C_5
REMARK    4  A    between atoms: N_11  and  C_14
REMARK                            x       y       z     vdW  Elec       q    Type
REMARK                         _______ _______ _______ _____ _____    ______ ____
ROOT
ATOM      1  N   UNL     1      36.666 -21.248 -17.640  0.00  0.00    -0.092 NA
ENDROOT
BRANCH   1   2
ATOM      2  C   UNL     1      36.402 -21.583 -18.866  0.00  0.00    +0.144 C 
BRANCH   2   5
ATOM      3 CL   UNL     1      33.664 -22.791 -18.318  0.00  0.00    -0.082 Cl
ATOM      4 CL   UNL     1      37.087 -19.324 -20.785  0.00  0.00    -0.082 Cl
ATOM      5  C   UNL     1      35.283 -21.011 -19.612  0.00  0.00    +0.019 C 
ATOM      6  C   UNL     1      33.992 -21.504 -19.423  0.00  0.00    +0.056 C 
ATOM      7  C   UNL     1      35.507 -19.970 -20.515  0.00  0.00    +0.056 C 
ATOM      8  C   UNL     1      32.925 -20.956 -20.136  0.00  0.00    +0.011 C 
ATOM      9  C   UNL     1      34.440 -19.424 -21.227  0.00  0.00    +0.011 C 
ATOM     10  C   UNL     1      33.149 -19.915 -21.038  0.00  0.00    +0.002 C 
ENDBRANCH   2   5
ENDBRANCH   1   2
BRANCH   1  11
ATOM     11  N   UNL     1      37.516 -22.173 -17.040  0.00  0.00    -0.145 NA
BRANCH  11  14
ATOM     12  N   UNL     1      35.708 -22.537 -15.509  0.00  0.00    -0.369 N 
ATOM     13  N   UNL     1      37.546 -23.894 -15.465  0.00  0.00    -0.369 N 
ATOM     14  C   UNL     1      36.937 -22.817 -16.062  0.00  0.00    +0.207 C 
ATOM     15  H   UNL     1      35.174 -21.784 -15.854  0.00  0.00    +0.159 HD
ATOM     16  H   UNL     1      35.363 -23.087 -14.770  0.00  0.00    +0.159 HD
ATOM     17  H   UNL     1      38.431 -24.193 -15.774  0.00  0.00    +0.159 HD
ATOM     18  H   UNL     1      37.096 -24.368 -14.728  0.00  0.00    +0.159 HD
ENDBRANCH  11  14
ENDBRANCH   1  11
TORSDOF 4
ENDMDL
MODEL 5
REMARK VINA RESULT:      -6.8      4.044      6.196
REMARK  Name = 3517
REMARK  4 active torsions:
REMARK  status: ('A' for Active; 'I' for Inactive)
REMARK    1  A    between atoms: N_1  and  C_2
REMARK    2  A    between atoms: N_1  and  N_11
REMARK    3  A    between atoms: C_2  and  C_5
REMARK    4  A    between atoms: N_11  and  C_14
REMARK                            x       y       z     vdW  Elec       q    Type
REMARK                         _______ _______ _______ _____ _____    ______ ____
ROOT
ATOM      1  N   UNL     1      34.318 -19.033 -20.891  0.00  0.00    -0.092 NA
ENDROOT
BRANCH   1   2
ATOM      2  C   UNL     1      35.174 -18.221 -21.433  0.00  0.00    +0.144 C 
BRANCH   2   5
ATOM      3 CL   UNL     1      35.027 -19.402 -24.233  0.00  0.00    -0.082 Cl
ATOM      4 CL   UNL     1      34.653 -15.343 -20.599  0.00  0.00    -0.082 Cl
ATOM      5  C   UNL     1      34.809 -17.296 -22.505  0.00  0.00    +0.019 C 
ATOM      6  C   UNL     1      34.718 -17.753 -23.819  0.00  0.00    +0.056 C 
ATOM      7  C   UNL     1      34.553 -15.957 -22.211  0.00  0.00    +0.056 C 
ATOM      8  C   UNL     1      34.370 -16.869 -24.842  0.00  0.00    +0.011 C 
ATOM      9  C   UNL     1      34.205 -15.074 -23.234  0.00  0.00    +0.011 C 
ATOM     10  C   UNL     1      34.112 -15.529 -24.548  0.00  0.00    +0.002 C 
ENDBRANCH   2   5
ENDBRANCH   1   2
BRANCH   1  11
ATOM     11  N   UNL     1      34.957 -20.139 -20.338  0.00  0.00    -0.145 NA
BRANCH  11  14
ATOM     12  N   UNL     1      34.424 -22.203 -19.242  0.00  0.00    -0.369 N 
ATOM     13  N   UNL     1      32.759 -20.768 -19.871  0.00  0.00    -0.369 N 
ATOM     14  C   UNL     1      34.112 -21.002 -19.839  0.00  0.00    +0.207 C 
ATOM     15  H   UNL     1      35.364 -22.482 -19.159  0.00  0.00    +0.159 HD
ATOM     16  H   UNL     1      33.706 -22.783 -18.898  0.00  0.00    +0.159 HD
ATOM     17  H   UNL     1      32.411 -19.941 -20.274  0.00  0.00    +0.159 HD
ATOM     18  H   UNL     1      32.136 -21.430 -19.492  0.00  0.00    +0.159 HD
ENDBRANCH  11  14
ENDBRANCH   1  11
TORSDOF 4
ENDMDL
MODEL 6
REMARK VINA RESULT:      -6.8      4.040      5.759
REMARK  Name = 3517
REMARK  4 active torsions:
REMARK  status: ('A' for Active; 'I' for Inactive)
REMARK    1  A    between atoms: N_1  and  C_2
REMARK    2  A    between atoms: N_1  and  N_11
REMARK    3  A    between atoms: C_2  and  C_5
REMARK    4  A    between atoms: N_11  and  C_14
REMARK                            x       y       z     vdW  Elec       q    Type
REMARK                         _______ _______ _______ _____ _____    ______ ____
ROOT
ATOM      1  N   UNL     1      34.321 -19.018 -20.887  0.00  0.00    -0.092 NA
ENDROOT
BRANCH   1   2
ATOM      2  C   UNL     1      35.169 -18.201 -21.434  0.00  0.00    +0.144 C 
BRANCH   2   5
ATOM      3 CL   UNL     1      34.640 -15.323 -20.602  0.00  0.00    -0.082 Cl
ATOM      4 CL   UNL     1      35.007 -19.388 -24.230  0.00  0.00    -0.082 Cl
ATOM      5  C   UNL     1      34.793 -17.279 -22.504  0.00  0.00    +0.019 C 
ATOM      6  C   UNL     1      34.533 -15.941 -22.212  0.00  0.00    +0.056 C 
ATOM      7  C   UNL     1      34.694 -17.739 -23.817  0.00  0.00    +0.056 C 
ATOM      8  C   UNL     1      34.173 -15.061 -23.235  0.00  0.00    +0.011 C 
ATOM      9  C   UNL     1      34.335 -16.860 -24.839  0.00  0.00    +0.011 C 
ATOM     10  C   UNL     1      34.075 -15.521 -24.548  0.00  0.00    +0.002 C 
ENDBRANCH   2   5
ENDBRANCH   1   2
BRANCH   1  11
ATOM     11  N   UNL     1      34.969 -20.125 -20.348  0.00  0.00    -0.145 NA
BRANCH  11  14
ATOM     12  N   UNL     1      34.460 -22.140 -19.153  0.00  0.00    -0.369 N 
ATOM     13  N   UNL     1      32.777 -20.784 -19.895  0.00  0.00    -0.369 N 
ATOM     14  C   UNL     1      34.134 -20.981 -19.821  0.00  0.00    +0.207 C 
ATOM     15  H   UNL     1      35.405 -22.391 -19.035  0.00  0.00    +0.159 HD
ATOM     16  H   UNL     1      33.748 -22.719 -18.794  0.00  0.00    +0.159 HD
ATOM     17  H   UNL     1      32.418 -19.987 -20.350  0.00  0.00    +0.159 HD
ATOM     18  H   UNL     1      32.161 -21.440 -19.494  0.00  0.00    +0.159 HD
ENDBRANCH  11  14
ENDBRANCH   1  11
TORSDOF 4
ENDMDL
MODEL 7
REMARK VINA RESULT:      -6.8      1.197      3.036
REMARK  Name = 3517
REMARK  4 active torsions:
REMARK  status: ('A' for Active; 'I' for Inactive)
REMARK    1  A    between atoms: N_1  and  C_2
REMARK    2  A    between atoms: N_1  and  N_11
REMARK    3  A    between atoms: C_2  and  C_5
REMARK    4  A    between atoms: N_11  and  C_14
REMARK                            x       y       z     vdW  Elec       q    Type
REMARK                         _______ _______ _______ _____ _____    ______ ____
ROOT
ATOM      1  N   UNL     1      33.346 -14.787 -23.624  0.00  0.00    -0.092 NA
ENDROOT
BRANCH   1   2
ATOM      2  C   UNL     1      34.522 -15.276 -23.369  0.00  0.00    +0.144 C 
BRANCH   2   5
ATOM      3 CL   UNL     1      34.698 -17.436 -25.505  0.00  0.00    -0.082 Cl
ATOM      4 CL   UNL     1      34.702 -15.625 -20.353  0.00  0.00    -0.082 Cl
ATOM      5  C   UNL     1      34.716 -16.643 -22.890  0.00  0.00    +0.019 C 
ATOM      6  C   UNL     1      34.808 -17.696 -23.800  0.00  0.00    +0.056 C 
ATOM      7  C   UNL     1      34.810 -16.895 -21.521  0.00  0.00    +0.056 C 
ATOM      8  C   UNL     1      34.994 -19.001 -23.341  0.00  0.00    +0.011 C 
ATOM      9  C   UNL     1      34.995 -18.199 -21.063  0.00  0.00    +0.011 C 
ATOM     10  C   UNL     1      35.088 -19.252 -21.972  0.00  0.00    +0.002 C 
ENDBRANCH   2   5
ENDBRANCH   1   2
BRANCH   1  11
ATOM     11  N   UNL     1      33.429 -13.726 -24.520  0.00  0.00    -0.145 NA
BRANCH  11  14
ATOM     12  N   UNL     1      34.362 -11.546 -24.168  0.00  0.00    -0.369 N 
ATOM     13  N   UNL     1      32.589 -12.256 -22.913  0.00  0.00    -0.369 N 
ATOM     14  C   UNL     1      33.476 -12.569 -23.915  0.00  0.00    +0.207 C 
ATOM     15  H   UNL     1      35.048 -11.651 -24.867  0.00  0.00    +0.159 HD
ATOM     16  H   UNL     1      34.312 -10.710 -23.650  0.00  0.00    +0.159 HD
ATOM     17  H   UNL     1      31.904 -12.908 -22.640  0.00  0.00    +0.159 HD
ATOM     18  H   UNL     1      32.640 -11.380 -22.466  0.00  0.00    +0.159 HD
ENDBRANCH  11  14
ENDBRANCH   1  11
TORSDOF 4
ENDMDL
MODEL 8
REMARK VINA RESULT:      -6.8      1.204      1.824
REMARK  Name = 3517
REMARK  4 active torsions:
REMARK  status: ('A' for Active; 'I' for Inactive)
REMARK    1  A    between atoms: N_1  and  C_2
REMARK    2  A    between atoms: N_1  and  N_11
REMARK    3  A    between atoms: C_2  and  C_5
REMARK    4  A    between atoms: N_11  and  C_14
REMARK                            x       y       z     vdW  Elec       q    Type
REMARK                         _______ _______ _______ _____ _____    ______ ____
ROOT
ATOM      1  N   UNL     1      33.346 -14.582 -23.539  0.00  0.00    -0.092 NA
ENDROOT
BRANCH   1   2
ATOM      2  C   UNL     1      34.524 -15.073 -23.300  0.00  0.00    +0.144 C 
BRANCH   2   5
ATOM      3 CL   UNL     1      34.660 -15.560 -20.300  0.00  0.00    -0.082 Cl
ATOM      4 CL   UNL     1      34.759 -17.128 -25.530  0.00  0.00    -0.082 Cl
ATOM      5  C   UNL     1      34.726 -16.458 -22.880  0.00  0.00    +0.019 C 
ATOM      6  C   UNL     1      34.800 -16.772 -21.523  0.00  0.00    +0.056 C 
ATOM      7  C   UNL     1      34.845 -17.466 -23.837  0.00  0.00    +0.056 C 
ATOM      8  C   UNL     1      34.994 -18.096 -21.123  0.00  0.00    +0.011 C 
ATOM      9  C   UNL     1      35.038 -18.788 -23.437  0.00  0.00    +0.011 C 
ATOM     10  C   UNL     1      35.111 -19.104 -22.081  0.00  0.00    +0.002 C 
ENDBRANCH   2   5
ENDBRANCH   1   2
BRANCH   1  11
ATOM     11  N   UNL     1      33.408 -13.577 -24.500  0.00  0.00    -0.145 NA
BRANCH  11  14
ATOM     12  N   UNL     1      34.447 -11.427 -24.292  0.00  0.00    -0.369 N 
ATOM     13  N   UNL     1      32.655 -11.973 -22.983  0.00  0.00    -0.369 N 
ATOM     14  C   UNL     1      33.516 -12.388 -23.969  0.00  0.00    +0.207 C 
ATOM     15  H   UNL     1      35.120 -11.608 -24.988  0.00  0.00    +0.159 HD
ATOM     16  H   UNL     1      34.441 -10.559 -23.827  0.00  0.00    +0.159 HD
ATOM     17  H   UNL     1      31.942 -12.573 -22.665  0.00  0.00    +0.159 HD
ATOM     18  H   UNL     1      32.751 -11.073 -22.592  0.00  0.00    +0.159 HD
ENDBRANCH  11  14
ENDBRANCH   1  11
TORSDOF 4
ENDMDL
MODEL 9
REMARK VINA RESULT:      -6.7      1.987      2.497
REMARK  Name = 3517
REMARK  4 active torsions:
REMARK  status: ('A' for Active; 'I' for Inactive)
REMARK    1  A    between atoms: N_1  and  C_2
REMARK    2  A    between atoms: N_1  and  N_11
REMARK    3  A    between atoms: C_2  and  C_5
REMARK    4  A    between atoms: N_11  and  C_14
REMARK                            x       y       z     vdW  Elec       q    Type
REMARK                         _______ _______ _______ _____ _____    ______ ____
ROOT
ATOM      1  N   UNL     1      34.071 -13.239 -23.383  0.00  0.00    -0.092 NA
ENDROOT
BRANCH   1   2
ATOM      2  C   UNL     1      33.415 -14.356 -23.291  0.00  0.00    +0.144 C 
BRANCH   2   5
ATOM      3 CL   UNL     1      34.694 -15.690 -20.874  0.00  0.00    -0.082 Cl
ATOM      4 CL   UNL     1      33.286 -15.407 -26.142  0.00  0.00    -0.082 Cl
ATOM      5  C   UNL     1      34.041 -15.656 -23.527  0.00  0.00    +0.019 C 
ATOM      6  C   UNL     1      34.651 -16.338 -22.475  0.00  0.00    +0.056 C 
ATOM      7  C   UNL     1      34.029 -16.213 -24.806  0.00  0.00    +0.056 C 
ATOM      8  C   UNL     1      35.249 -17.579 -22.702  0.00  0.00    +0.011 C 
ATOM      9  C   UNL     1      34.626 -17.453 -25.032  0.00  0.00    +0.011 C 
ATOM     10  C   UNL     1      35.235 -18.136 -23.981  0.00  0.00    +0.002 C 
ENDBRANCH   2   5
ENDBRANCH   1   2
BRANCH   1  11
ATOM     11  N   UNL     1      33.505 -12.405 -24.343  0.00  0.00    -0.145 NA
BRANCH  11  14
ATOM     12  N   UNL     1      33.144 -10.184 -23.515  0.00  0.00    -0.369 N 
ATOM     13  N   UNL     1      35.034 -10.679 -24.701  0.00  0.00    -0.369 N 
ATOM     14  C   UNL     1      33.855 -11.156 -24.183  0.00  0.00    +0.207 C 
ATOM     15  H   UNL     1      32.280 -10.406 -23.098  0.00  0.00    +0.159 HD
ATOM     16  H   UNL     1      33.500  -9.268 -23.454  0.00  0.00    +0.159 HD
ATOM     17  H   UNL     1      35.632 -11.280 -25.201  0.00  0.00    +0.159 HD
ATOM     18  H   UNL     1      35.282  -9.735 -24.573  0.00  0.00    +0.159 HD
ENDBRANCH  11  14
ENDBRANCH   1  11
TORSDOF 4
ENDMDL
