MODEL 1
REMARK VINA RESULT:      -9.8      0.000      0.000
REMARK  Name = 667468
REMARK  3 active torsions:
REMARK  status: ('A' for Active; 'I' for Inactive)
REMARK    1  A    between atoms: C_6  and  C_17
REMARK    2  A    between atoms: C_17  and  C_18
REMARK    3  A    between atoms: C_18  and  N_19
REMARK                            x       y       z     vdW  Elec       q    Type
REMARK                         _______ _______ _______ _____ _____    ______ ____
ROOT
ATOM      1  O   UNL     1      33.663 -23.446 -18.145  0.00  0.00    -0.471 OA
ATOM      2  C   UNL     1      34.474 -23.729 -15.463  0.00  0.00    -0.002 C 
ATOM      3  C   UNL     1      33.011 -23.582 -15.208  0.00  0.00    -0.001 C 
ATOM      4  C   UNL     1      35.239 -22.898 -16.419  0.00  0.00    +0.034 C 
ATOM      5  C   UNL     1      32.109 -23.166 -16.213  0.00  0.00    +0.021 C 
ATOM      6  C   UNL     1      35.149 -24.750 -14.898  0.00  0.00    -0.028 C 
ATOM      7  C   UNL     1      32.510 -22.777 -17.623  0.00  0.00    +0.232 C 
ATOM      8  C   UNL     1      34.803 -22.796 -17.745  0.00  0.00    +0.139 C 
ATOM      9  C   UNL     1      32.506 -23.818 -13.910  0.00  0.00    -0.000 C 
ATOM     10  C   UNL     1      30.744 -23.018 -15.891  0.00  0.00    -0.001 C 
ATOM     11  C   UNL     1      36.405 -22.218 -16.045  0.00  0.00    +0.003 C 
ATOM     12  C   UNL     1      35.531 -22.081 -18.696  0.00  0.00    +0.037 C 
ATOM     13  C   UNL     1      31.150 -23.677 -13.617  0.00  0.00    -0.000 C 
ATOM     14  C   UNL     1      30.266 -23.280 -14.609  0.00  0.00    -0.000 C 
ATOM     15  C   UNL     1      37.127 -21.480 -16.986  0.00  0.00    +0.000 C 
ATOM     16  C   UNL     1      36.694 -21.418 -18.310  0.00  0.00    +0.003 C 
ENDROOT
BRANCH   6  17
ATOM     17  C   UNL     1      36.613 -24.984 -15.091  0.00  0.00    +0.003 C 
BRANCH  17  18
ATOM     18  C   UNL     1      36.976 -26.441 -14.810  0.00  0.00    -0.073 C 
BRANCH  18  19
ATOM     19  N   UNL     1      38.123 -26.512 -13.912  0.00  0.00    +0.384 N 
ATOM     20  C   UNL     1      37.810 -25.890 -12.624  0.00  0.00    -0.101 C 
ATOM     21  C   UNL     1      39.291 -25.869 -14.516  0.00  0.00    -0.101 C 
ATOM     22  H   UNL     1      38.343 -27.496 -13.751  0.00  0.00    -0.080 HD
ENDBRANCH  18  19
ENDBRANCH  17  18
ENDBRANCH   6  17
TORSDOF 3
ENDMDL
MODEL 2
REMARK VINA RESULT:      -9.7     14.582     17.019
REMARK  Name = 667468
REMARK  3 active torsions:
REMARK  status: ('A' for Active; 'I' for Inactive)
REMARK    1  A    between atoms: C_6  and  C_17
REMARK    2  A    between atoms: C_17  and  C_18
REMARK    3  A    between atoms: C_18  and  N_19
REMARK                            x       y       z     vdW  Elec       q    Type
REMARK                         _______ _______ _______ _____ _____    ______ ____
ROOT
ATOM      1  O   UNL     1      32.927  -7.831 -20.321  0.00  0.00    -0.471 OA
ATOM      2  C   UNL     1      32.289  -8.735 -22.911  0.00  0.00    -0.002 C 
ATOM      3  C   UNL     1      31.963  -7.295 -23.123  0.00  0.00    -0.001 C 
ATOM      4  C   UNL     1      31.907  -9.505 -21.706  0.00  0.00    +0.034 C 
ATOM      5  C   UNL     1      31.873  -6.376 -22.053  0.00  0.00    +0.021 C 
ATOM      6  C   UNL     1      33.085  -9.375 -23.791  0.00  0.00    -0.028 C 
ATOM      7  C   UNL     1      32.041  -6.739 -20.590  0.00  0.00    +0.232 C 
ATOM      8  C   UNL     1      32.256  -9.020 -20.440  0.00  0.00    +0.139 C 
ATOM      9  C   UNL     1      31.686  -6.832 -24.428  0.00  0.00    -0.000 C 
ATOM     10  C   UNL     1      31.528  -5.036 -22.327  0.00  0.00    -0.001 C 
ATOM     11  C   UNL     1      31.218 -10.722 -21.789  0.00  0.00    +0.003 C 
ATOM     12  C   UNL     1      31.978  -9.748 -19.282  0.00  0.00    +0.037 C 
ATOM     13  C   UNL     1      31.359  -5.500 -24.677  0.00  0.00    -0.000 C 
ATOM     14  C   UNL     1      31.283  -4.599 -23.626  0.00  0.00    -0.000 C 
ATOM     15  C   UNL     1      30.916 -11.445 -20.632  0.00  0.00    +0.000 C 
ATOM     16  C   UNL     1      31.300 -10.961 -19.382  0.00  0.00    +0.003 C 
ENDROOT
BRANCH   6  17
ATOM     17  C   UNL     1      33.470 -10.815 -23.667  0.00  0.00    +0.003 C 
BRANCH  17  18
ATOM     18  C   UNL     1      33.832 -11.403 -25.030  0.00  0.00    -0.073 C 
BRANCH  18  19
ATOM     19  N   UNL     1      33.793 -12.860 -24.977  0.00  0.00    +0.384 N 
ATOM     20  C   UNL     1      33.204 -13.405 -26.203  0.00  0.00    -0.101 C 
ATOM     21  C   UNL     1      33.039 -13.314 -23.807  0.00  0.00    -0.101 C 
ATOM     22  H   UNL     1      34.750 -13.203 -24.899  0.00  0.00    -0.080 HD
ENDBRANCH  18  19
ENDBRANCH  17  18
ENDBRANCH   6  17
TORSDOF 3
ENDMDL
MODEL 3
REMARK VINA RESULT:      -8.6      2.285      5.372
REMARK  Name = 667468
REMARK  3 active torsions:
REMARK  status: ('A' for Active; 'I' for Inactive)
REMARK    1  A    between atoms: C_6  and  C_17
REMARK    2  A    between atoms: C_17  and  C_18
REMARK    3  A    between atoms: C_18  and  N_19
REMARK                            x       y       z     vdW  Elec       q    Type
REMARK                         _______ _______ _______ _____ _____    ______ ____
ROOT
ATOM      1  O   UNL     1      36.868 -21.870 -16.173  0.00  0.00    -0.471 OA
ATOM      2  C   UNL     1      34.994 -23.757 -15.246  0.00  0.00    -0.002 C 
ATOM      3  C   UNL     1      36.215 -24.406 -14.688  0.00  0.00    -0.001 C 
ATOM      4  C   UNL     1      34.907 -23.183 -16.608  0.00  0.00    +0.034 C 
ATOM      5  C   UNL     1      37.519 -24.004 -15.055  0.00  0.00    +0.021 C 
ATOM      6  C   UNL     1      33.926 -23.550 -14.450  0.00  0.00    -0.028 C 
ATOM      7  C   UNL     1      37.832 -22.924 -16.073  0.00  0.00    +0.232 C 
ATOM      8  C   UNL     1      35.855 -22.240 -17.020  0.00  0.00    +0.139 C 
ATOM      9  C   UNL     1      36.076 -25.495 -13.799  0.00  0.00    -0.000 C 
ATOM     10  C   UNL     1      38.627 -24.686 -14.511  0.00  0.00    -0.001 C 
ATOM     11  C   UNL     1      33.887 -23.540 -17.500  0.00  0.00    +0.003 C 
ATOM     12  C   UNL     1      35.770 -21.622 -18.268  0.00  0.00    +0.037 C 
ATOM     13  C   UNL     1      37.186 -26.148 -13.263  0.00  0.00    -0.000 C 
ATOM     14  C   UNL     1      38.464 -25.741 -13.616  0.00  0.00    -0.000 C 
ATOM     15  C   UNL     1      33.809 -22.942 -18.761  0.00  0.00    +0.000 C 
ATOM     16  C   UNL     1      34.745 -21.981 -19.141  0.00  0.00    +0.003 C 
ENDROOT
BRANCH   6  17
ATOM     17  C   UNL     1      32.658 -22.907 -14.913  0.00  0.00    +0.003 C 
BRANCH  17  18
ATOM     18  C   UNL     1      31.502 -23.234 -13.968  0.00  0.00    -0.073 C 
BRANCH  18  19
ATOM     19  N   UNL     1      30.353 -23.719 -14.724  0.00  0.00    +0.384 N 
ATOM     20  C   UNL     1      30.301 -25.182 -14.702  0.00  0.00    -0.101 C 
ATOM     21  C   UNL     1      30.401 -23.233 -16.104  0.00  0.00    -0.101 C 
ATOM     22  H   UNL     1      29.506 -23.358 -14.283  0.00  0.00    -0.080 HD
ENDBRANCH  18  19
ENDBRANCH  17  18
ENDBRANCH   6  17
TORSDOF 3
ENDMDL
MODEL 4
REMARK VINA RESULT:      -8.5     14.874     17.681
REMARK  Name = 667468
REMARK  3 active torsions:
REMARK  status: ('A' for Active; 'I' for Inactive)
REMARK    1  A    between atoms: C_6  and  C_17
REMARK    2  A    between atoms: C_17  and  C_18
REMARK    3  A    between atoms: C_18  and  N_19
REMARK                            x       y       z     vdW  Elec       q    Type
REMARK                         _______ _______ _______ _____ _____    ______ ____
ROOT
ATOM      1  O   UNL     1      31.185 -11.049 -22.663  0.00  0.00    -0.471 OA
ATOM      2  C   UNL     1      32.770  -8.725 -22.534  0.00  0.00    -0.002 C 
ATOM      3  C   UNL     1      33.561  -9.441 -23.577  0.00  0.00    -0.001 C 
ATOM      4  C   UNL     1      32.234  -9.365 -21.313  0.00  0.00    +0.034 C 
ATOM      5  C   UNL     1      33.350 -10.805 -23.880  0.00  0.00    +0.021 C 
ATOM      6  C   UNL     1      32.396  -7.446 -22.743  0.00  0.00    -0.028 C 
ATOM      7  C   UNL     1      32.356 -11.701 -23.167  0.00  0.00    +0.232 C 
ATOM      8  C   UNL     1      31.442 -10.513 -21.428  0.00  0.00    +0.139 C 
ATOM      9  C   UNL     1      34.591  -8.756 -24.258  0.00  0.00    -0.000 C 
ATOM     10  C   UNL     1      34.158 -11.425 -24.856  0.00  0.00    -0.001 C 
ATOM     11  C   UNL     1      32.479  -8.847 -20.034  0.00  0.00    +0.003 C 
ATOM     12  C   UNL     1      30.858 -11.108 -20.308  0.00  0.00    +0.037 C 
ATOM     13  C   UNL     1      35.371  -9.385 -25.228  0.00  0.00    -0.000 C 
ATOM     14  C   UNL     1      35.151 -10.721 -25.531  0.00  0.00    -0.000 C 
ATOM     15  C   UNL     1      31.917  -9.451 -18.906  0.00  0.00    +0.000 C 
ATOM     16  C   UNL     1      31.104 -10.575 -19.044  0.00  0.00    +0.003 C 
ENDROOT
BRANCH   6  17
ATOM     17  C   UNL     1      31.603  -6.644 -21.761  0.00  0.00    +0.003 C 
BRANCH  17  18
ATOM     18  C   UNL     1      30.651  -5.689 -22.479  0.00  0.00    -0.073 C 
BRANCH  18  19
ATOM     19  N   UNL     1      31.396  -4.809 -23.373  0.00  0.00    +0.384 N 
ATOM     20  C   UNL     1      31.262  -3.413 -22.952  0.00  0.00    -0.101 C 
ATOM     21  C   UNL     1      30.937  -4.969 -24.754  0.00  0.00    -0.101 C 
ATOM     22  H   UNL     1      32.381  -5.068 -23.328  0.00  0.00    -0.080 HD
ENDBRANCH  18  19
ENDBRANCH  17  18
ENDBRANCH   6  17
TORSDOF 3
ENDMDL
MODEL 5
REMARK VINA RESULT:      -7.9      6.666      9.655
REMARK  Name = 667468
REMARK  3 active torsions:
REMARK  status: ('A' for Active; 'I' for Inactive)
REMARK    1  A    between atoms: C_6  and  C_17
REMARK    2  A    between atoms: C_17  and  C_18
REMARK    3  A    between atoms: C_18  and  N_19
REMARK                            x       y       z     vdW  Elec       q    Type
REMARK                         _______ _______ _______ _____ _____    ______ ____
ROOT
ATOM      1  O   UNL     1      32.220 -18.722 -21.185  0.00  0.00    -0.471 OA
ATOM      2  C   UNL     1      35.003 -18.408 -21.483  0.00  0.00    -0.002 C 
ATOM      3  C   UNL     1      35.030 -19.734 -20.800  0.00  0.00    -0.001 C 
ATOM      4  C   UNL     1      34.135 -17.280 -21.075  0.00  0.00    +0.034 C 
ATOM      5  C   UNL     1      33.886 -20.290 -20.186  0.00  0.00    +0.021 C 
ATOM      6  C   UNL     1      35.706 -18.229 -22.620  0.00  0.00    -0.028 C 
ATOM      7  C   UNL     1      32.535 -19.605 -20.102  0.00  0.00    +0.232 C 
ATOM      8  C   UNL     1      32.757 -17.483 -20.950  0.00  0.00    +0.139 C 
ATOM      9  C   UNL     1      36.248 -20.445 -20.716  0.00  0.00    -0.000 C 
ATOM     10  C   UNL     1      33.994 -21.534 -19.531  0.00  0.00    -0.001 C 
ATOM     11  C   UNL     1      34.649 -16.001 -20.824  0.00  0.00    +0.003 C 
ATOM     12  C   UNL     1      31.894 -16.431 -20.636  0.00  0.00    +0.037 C 
ATOM     13  C   UNL     1      36.330 -21.680 -20.072  0.00  0.00    -0.000 C 
ATOM     14  C   UNL     1      35.201 -22.228 -19.482  0.00  0.00    -0.000 C 
ATOM     15  C   UNL     1      33.794 -14.949 -20.485  0.00  0.00    +0.000 C 
ATOM     16  C   UNL     1      32.419 -15.163 -20.398  0.00  0.00    +0.003 C 
ENDROOT
BRANCH   6  17
ATOM     17  C   UNL     1      35.743 -16.941 -23.378  0.00  0.00    +0.003 C 
BRANCH  17  18
ATOM     18  C   UNL     1      34.859 -17.014 -24.623  0.00  0.00    -0.073 C 
BRANCH  18  19
ATOM     19  N   UNL     1      33.850 -15.962 -24.588  0.00  0.00    +0.384 N 
ATOM     20  C   UNL     1      33.386 -15.647 -25.941  0.00  0.00    -0.101 C 
ATOM     21  C   UNL     1      34.379 -14.760 -23.941  0.00  0.00    -0.101 C 
ATOM     22  H   UNL     1      33.055 -16.299 -24.045  0.00  0.00    -0.080 HD
ENDBRANCH  18  19
ENDBRANCH  17  18
ENDBRANCH   6  17
TORSDOF 3
ENDMDL
MODEL 6
REMARK VINA RESULT:      -7.8     14.466     17.196
REMARK  Name = 667468
REMARK  3 active torsions:
REMARK  status: ('A' for Active; 'I' for Inactive)
REMARK    1  A    between atoms: C_6  and  C_17
REMARK    2  A    between atoms: C_17  and  C_18
REMARK    3  A    between atoms: C_18  and  N_19
REMARK                            x       y       z     vdW  Elec       q    Type
REMARK                         _______ _______ _______ _____ _____    ______ ____
ROOT
ATOM      1  O   UNL     1      30.884 -11.677 -21.796  0.00  0.00    -0.471 OA
ATOM      2  C   UNL     1      32.286  -9.565 -23.022  0.00  0.00    -0.002 C 
ATOM      3  C   UNL     1      32.931 -10.684 -23.768  0.00  0.00    -0.001 C 
ATOM      4  C   UNL     1      32.025  -9.579 -21.565  0.00  0.00    +0.034 C 
ATOM      5  C   UNL     1      32.774 -12.035 -23.386  0.00  0.00    +0.021 C 
ATOM      6  C   UNL     1      31.785  -8.513 -23.700  0.00  0.00    -0.028 C 
ATOM      7  C   UNL     1      31.993 -12.501 -22.173  0.00  0.00    +0.232 C 
ATOM      8  C   UNL     1      31.315 -10.645 -21.003  0.00  0.00    +0.139 C 
ATOM      9  C   UNL     1      33.769 -10.392 -24.867  0.00  0.00    -0.000 C 
ATOM     10  C   UNL     1      33.440 -13.038 -24.120  0.00  0.00    -0.001 C 
ATOM     11  C   UNL     1      32.454  -8.543 -20.724  0.00  0.00    +0.003 C 
ATOM     12  C   UNL     1      30.986 -10.664 -19.647  0.00  0.00    +0.037 C 
ATOM     13  C   UNL     1      34.409 -11.401 -25.586  0.00  0.00    -0.000 C 
ATOM     14  C   UNL     1      34.242 -12.727 -25.215  0.00  0.00    -0.000 C 
ATOM     15  C   UNL     1      32.149  -8.567 -19.361  0.00  0.00    +0.000 C 
ATOM     16  C   UNL     1      31.411  -9.623 -18.825  0.00  0.00    +0.003 C 
ENDROOT
BRANCH   6  17
ATOM     17  C   UNL     1      31.120  -7.344 -23.046  0.00  0.00    +0.003 C 
BRANCH  17  18
ATOM     18  C   UNL     1      31.217  -6.098 -23.924  0.00  0.00    -0.073 C 
BRANCH  18  19
ATOM     19  N   UNL     1      30.621  -4.953 -23.245  0.00  0.00    +0.384 N 
ATOM     20  C   UNL     1      31.447  -3.758 -23.427  0.00  0.00    -0.101 C 
ATOM     21  C   UNL     1      30.443  -5.235 -21.819  0.00  0.00    -0.101 C 
ATOM     22  H   UNL     1      29.705  -4.779 -23.657  0.00  0.00    -0.080 HD
ENDBRANCH  18  19
ENDBRANCH  17  18
ENDBRANCH   6  17
TORSDOF 3
ENDMDL
MODEL 7
REMARK VINA RESULT:      -7.5      2.859      5.837
REMARK  Name = 667468
REMARK  3 active torsions:
REMARK  status: ('A' for Active; 'I' for Inactive)
REMARK    1  A    between atoms: C_6  and  C_17
REMARK    2  A    between atoms: C_17  and  C_18
REMARK    3  A    between atoms: C_18  and  N_19
REMARK                            x       y       z     vdW  Elec       q    Type
REMARK                         _______ _______ _______ _____ _____    ______ ____
ROOT
ATOM      1  O   UNL     1      31.984 -25.513 -14.488  0.00  0.00    -0.471 OA
ATOM      2  C   UNL     1      33.426 -23.473 -15.788  0.00  0.00    -0.002 C 
ATOM      3  C   UNL     1      34.304 -23.595 -14.588  0.00  0.00    -0.001 C 
ATOM      4  C   UNL     1      31.947 -23.465 -15.738  0.00  0.00    +0.034 C 
ATOM      5  C   UNL     1      33.921 -24.334 -13.446  0.00  0.00    +0.021 C 
ATOM      6  C   UNL     1      33.974 -23.493 -17.020  0.00  0.00    -0.028 C 
ATOM      7  C   UNL     1      32.586 -25.033 -13.280  0.00  0.00    +0.232 C 
ATOM      8  C   UNL     1      31.274 -24.506 -15.089  0.00  0.00    +0.139 C 
ATOM      9  C   UNL     1      35.541 -22.915 -14.562  0.00  0.00    -0.000 C 
ATOM     10  C   UNL     1      34.789 -24.379 -12.335  0.00  0.00    -0.001 C 
ATOM     11  C   UNL     1      31.189 -22.451 -16.339  0.00  0.00    +0.003 C 
ATOM     12  C   UNL     1      29.880 -24.575 -15.079  0.00  0.00    +0.037 C 
ATOM     13  C   UNL     1      36.389 -22.983 -13.457  0.00  0.00    -0.000 C 
ATOM     14  C   UNL     1      36.015 -23.719 -12.343  0.00  0.00    -0.000 C 
ATOM     15  C   UNL     1      29.793 -22.501 -16.312  0.00  0.00    +0.000 C 
ATOM     16  C   UNL     1      29.141 -23.564 -15.689  0.00  0.00    +0.003 C 
ENDROOT
BRANCH   6  17
ATOM     17  C   UNL     1      33.182 -23.378 -18.282  0.00  0.00    +0.003 C 
BRANCH  17  18
ATOM     18  C   UNL     1      34.054 -22.874 -19.431  0.00  0.00    -0.073 C 
BRANCH  18  19
ATOM     19  N   UNL     1      34.275 -21.438 -19.306  0.00  0.00    +0.384 N 
ATOM     20  C   UNL     1      33.265 -20.693 -20.060  0.00  0.00    -0.101 C 
ATOM     21  C   UNL     1      35.618 -21.082 -19.767  0.00  0.00    -0.101 C 
ATOM     22  H   UNL     1      34.193 -21.187 -18.321  0.00  0.00    -0.080 HD
ENDBRANCH  18  19
ENDBRANCH  17  18
ENDBRANCH   6  17
TORSDOF 3
ENDMDL
MODEL 8
REMARK VINA RESULT:      -7.4      2.390      4.783
REMARK  Name = 667468
REMARK  3 active torsions:
REMARK  status: ('A' for Active; 'I' for Inactive)
REMARK    1  A    between atoms: C_6  and  C_17
REMARK    2  A    between atoms: C_17  and  C_18
REMARK    3  A    between atoms: C_18  and  N_19
REMARK                            x       y       z     vdW  Elec       q    Type
REMARK                         _______ _______ _______ _____ _____    ______ ____
ROOT
ATOM      1  O   UNL     1      35.589 -23.424 -12.416  0.00  0.00    -0.471 OA
ATOM      2  C   UNL     1      35.311 -23.272 -15.214  0.00  0.00    -0.002 C 
ATOM      3  C   UNL     1      33.891 -23.599 -14.896  0.00  0.00    -0.001 C 
ATOM      4  C   UNL     1      36.477 -23.933 -14.587  0.00  0.00    +0.034 C 
ATOM      5  C   UNL     1      33.485 -24.030 -13.613  0.00  0.00    +0.021 C 
ATOM      6  C   UNL     1      35.589 -22.232 -16.026  0.00  0.00    -0.028 C 
ATOM      7  C   UNL     1      34.424 -24.256 -12.443  0.00  0.00    +0.232 C 
ATOM      8  C   UNL     1      36.577 -23.974 -13.192  0.00  0.00    +0.139 C 
ATOM      9  C   UNL     1      32.917 -23.527 -15.917  0.00  0.00    -0.000 C 
ATOM     10  C   UNL     1      32.129 -24.353 -13.393  0.00  0.00    -0.001 C 
ATOM     11  C   UNL     1      37.503 -24.509 -15.348  0.00  0.00    +0.003 C 
ATOM     12  C   UNL     1      37.692 -24.525 -12.559  0.00  0.00    +0.037 C 
ATOM     13  C   UNL     1      31.580 -23.840 -15.675  0.00  0.00    -0.000 C 
ATOM     14  C   UNL     1      31.184 -24.250 -14.410  0.00  0.00    -0.000 C 
ATOM     15  C   UNL     1      38.611 -25.084 -14.721  0.00  0.00    +0.000 C 
ATOM     16  C   UNL     1      38.708 -25.086 -13.330  0.00  0.00    +0.003 C 
ENDROOT
BRANCH   6  17
ATOM     17  C   UNL     1      36.977 -21.823 -16.404  0.00  0.00    +0.003 C 
BRANCH  17  18
ATOM     18  C   UNL     1      37.193 -21.951 -17.911  0.00  0.00    -0.073 C 
BRANCH  18  19
ATOM     19  N   UNL     1      36.167 -21.208 -18.634  0.00  0.00    +0.384 N 
ATOM     20  C   UNL     1      35.122 -22.110 -19.120  0.00  0.00    -0.101 C 
ATOM     21  C   UNL     1      36.758 -20.467 -19.749  0.00  0.00    -0.101 C 
ATOM     22  H   UNL     1      35.743 -20.540 -17.990  0.00  0.00    -0.080 HD
ENDBRANCH  18  19
ENDBRANCH  17  18
ENDBRANCH   6  17
TORSDOF 3
ENDMDL
MODEL 9
REMARK VINA RESULT:      -7.3     10.120     13.150
REMARK  Name = 667468
REMARK  3 active torsions:
REMARK  status: ('A' for Active; 'I' for Inactive)
REMARK    1  A    between atoms: C_6  and  C_17
REMARK    2  A    between atoms: C_17  and  C_18
REMARK    3  A    between atoms: C_18  and  N_19
REMARK                            x       y       z     vdW  Elec       q    Type
REMARK                         _______ _______ _______ _____ _____    ______ ____
ROOT
ATOM      1  O   UNL     1      32.096 -15.160 -21.545  0.00  0.00    -0.471 OA
ATOM      2  C   UNL     1      33.812 -15.383 -23.767  0.00  0.00    -0.002 C 
ATOM      3  C   UNL     1      34.475 -16.406 -22.907  0.00  0.00    -0.001 C 
ATOM      4  C   UNL     1      33.342 -14.067 -23.280  0.00  0.00    +0.034 C 
ATOM      5  C   UNL     1      34.166 -16.554 -21.536  0.00  0.00    +0.021 C 
ATOM      6  C   UNL     1      33.493 -15.689 -25.040  0.00  0.00    -0.028 C 
ATOM      7  C   UNL     1      33.185 -15.682 -20.775  0.00  0.00    +0.232 C 
ATOM      8  C   UNL     1      32.482 -14.007 -22.179  0.00  0.00    +0.139 C 
ATOM      9  C   UNL     1      35.483 -17.227 -23.458  0.00  0.00    -0.000 C 
ATOM     10  C   UNL     1      34.857 -17.521 -20.777  0.00  0.00    -0.001 C 
ATOM     11  C   UNL     1      33.718 -12.868 -23.902  0.00  0.00    +0.003 C 
ATOM     12  C   UNL     1      31.959 -12.792 -21.731  0.00  0.00    +0.037 C 
ATOM     13  C   UNL     1      36.146 -18.186 -22.692  0.00  0.00    -0.000 C 
ATOM     14  C   UNL     1      35.830 -18.336 -21.350  0.00  0.00    -0.000 C 
ATOM     15  C   UNL     1      33.217 -11.647 -23.444  0.00  0.00    +0.000 C 
ATOM     16  C   UNL     1      32.335 -11.610 -22.365  0.00  0.00    +0.003 C 
ENDROOT
BRANCH   6  17
ATOM     17  C   UNL     1      32.827 -14.736 -25.981  0.00  0.00    +0.003 C 
BRANCH  17  18
ATOM     18  C   UNL     1      33.755 -14.372 -27.138  0.00  0.00    -0.073 C 
BRANCH  18  19
ATOM     19  N   UNL     1      33.460 -13.028 -27.620  0.00  0.00    +0.384 N 
ATOM     20  C   UNL     1      34.383 -12.055 -27.033  0.00  0.00    -0.101 C 
ATOM     21  C   UNL     1      32.075 -12.663 -27.313  0.00  0.00    -0.101 C 
ATOM     22  H   UNL     1      33.580 -13.018 -28.633  0.00  0.00    -0.080 HD
ENDBRANCH  18  19
ENDBRANCH  17  18
ENDBRANCH   6  17
TORSDOF 3
ENDMDL
