MODEL 1
REMARK VINA RESULT:      -4.6      0.000      0.000
REMARK  Name = 107689
REMARK  3 active torsions:
REMARK  status: ('A' for Active; 'I' for Inactive)
REMARK    1  A    between atoms: C_1  and  O_3
REMARK    2  A    between atoms: C_1  and  C_6
REMARK    3  A    between atoms: C_6  and  O_7
REMARK                            x       y       z     vdW  Elec       q    Type
REMARK                         _______ _______ _______ _____ _____    ______ ____
ROOT
ATOM      1  C   UNL     1      38.732 -25.698 -14.491  0.00  0.00    +0.209 C 
ATOM      2  C   UNL     1      38.520 -25.434 -13.011  0.00  0.00    +0.044 C 
ENDROOT
BRANCH   1   3
ATOM      3  O   UNL     1      38.480 -27.075 -14.732  0.00  0.00    -0.374 OA
ATOM      4  H   UNL     1      38.316 -27.212 -15.678  0.00  0.00    +0.211 HD
ENDBRANCH   1   3
BRANCH   1   6
ATOM      5  O   UNL     1      40.943 -24.718 -14.253  0.00  0.00    -0.248 OA
ATOM      6  C   UNL     1      40.157 -25.393 -14.905  0.00  0.00    +0.341 C 
BRANCH   6   7
ATOM      7  O   UNL     1      40.486 -25.975 -16.087  0.00  0.00    -0.479 OA
ATOM      8  H   UNL     1      41.386 -26.069 -16.328  0.00  0.00    +0.295 HD
ENDBRANCH   6   7
ENDBRANCH   1   6
TORSDOF 3
ENDMDL
MODEL 2
REMARK VINA RESULT:      -4.4      1.506      1.583
REMARK  Name = 107689
REMARK  3 active torsions:
REMARK  status: ('A' for Active; 'I' for Inactive)
REMARK    1  A    between atoms: C_1  and  O_3
REMARK    2  A    between atoms: C_1  and  C_6
REMARK    3  A    between atoms: C_6  and  O_7
REMARK                            x       y       z     vdW  Elec       q    Type
REMARK                         _______ _______ _______ _____ _____    ______ ____
ROOT
ATOM      1  C   UNL     1      39.168 -25.177 -14.314  0.00  0.00    +0.209 C 
ATOM      2  C   UNL     1      37.962 -26.083 -14.144  0.00  0.00    +0.044 C 
ENDROOT
BRANCH   1   3
ATOM      3  O   UNL     1      38.847 -24.195 -15.288  0.00  0.00    -0.374 OA
ATOM      4  H   UNL     1      38.668 -23.349 -14.847  0.00  0.00    +0.211 HD
ENDBRANCH   1   3
BRANCH   1   6
ATOM      5  O   UNL     1      41.162 -26.544 -14.069  0.00  0.00    -0.248 OA
ATOM      6  C   UNL     1      40.375 -25.954 -14.798  0.00  0.00    +0.341 C 
BRANCH   6   7
ATOM      7  O   UNL     1      40.483 -25.946 -16.152  0.00  0.00    -0.479 OA
ATOM      8  H   UNL     1      41.323 -25.841 -16.553  0.00  0.00    +0.295 HD
ENDBRANCH   6   7
ENDBRANCH   1   6
TORSDOF 3
ENDMDL
MODEL 3
REMARK VINA RESULT:      -4.4      4.554      5.555
REMARK  Name = 107689
REMARK  3 active torsions:
REMARK  status: ('A' for Active; 'I' for Inactive)
REMARK    1  A    between atoms: C_1  and  O_3
REMARK    2  A    between atoms: C_1  and  C_6
REMARK    3  A    between atoms: C_6  and  O_7
REMARK                            x       y       z     vdW  Elec       q    Type
REMARK                         _______ _______ _______ _____ _____    ______ ____
ROOT
ATOM      1  C   UNL     1      36.869 -23.505 -11.844  0.00  0.00    +0.209 C 
ATOM      2  C   UNL     1      38.086 -24.344 -12.193  0.00  0.00    +0.044 C 
ENDROOT
BRANCH   1   3
ATOM      3  O   UNL     1      37.314 -22.360 -11.132  0.00  0.00    -0.374 OA
ATOM      4  H   UNL     1      36.551 -21.811 -10.893  0.00  0.00    +0.211 HD
ENDBRANCH   1   3
BRANCH   1   6
ATOM      5  O   UNL     1      35.930 -24.273  -9.738  0.00  0.00    -0.248 OA
ATOM      6  C   UNL     1      35.907 -24.273 -10.962  0.00  0.00    +0.341 C 
BRANCH   6   7
ATOM      7  O   UNL     1      34.983 -24.959 -11.684  0.00  0.00    -0.479 OA
ATOM      8  H   UNL     1      35.179 -25.227 -12.560  0.00  0.00    +0.295 HD
ENDBRANCH   6   7
ENDBRANCH   1   6
TORSDOF 3
ENDMDL
MODEL 4
REMARK VINA RESULT:      -4.1      2.295      3.160
REMARK  Name = 107689
REMARK  3 active torsions:
REMARK  status: ('A' for Active; 'I' for Inactive)
REMARK    1  A    between atoms: C_1  and  O_3
REMARK    2  A    between atoms: C_1  and  C_6
REMARK    3  A    between atoms: C_6  and  O_7
REMARK                            x       y       z     vdW  Elec       q    Type
REMARK                         _______ _______ _______ _____ _____    ______ ____
ROOT
ATOM      1  C   UNL     1      37.143 -25.788 -13.163  0.00  0.00    +0.209 C 
ATOM      2  C   UNL     1      38.435 -25.036 -12.892  0.00  0.00    +0.044 C 
ENDROOT
BRANCH   1   3
ATOM      3  O   UNL     1      36.834 -26.559 -12.012  0.00  0.00    -0.374 OA
ATOM      4  H   UNL     1      37.505 -27.251 -11.897  0.00  0.00    +0.211 HD
ENDBRANCH   1   3
BRANCH   1   6
ATOM      5  O   UNL     1      38.349 -27.214 -14.718  0.00  0.00    -0.248 OA
ATOM      6  C   UNL     1      37.291 -26.726 -14.343  0.00  0.00    +0.341 C 
BRANCH   6   7
ATOM      7  O   UNL     1      36.100 -26.993 -14.940  0.00  0.00    -0.479 OA
ATOM      8  H   UNL     1      36.051 -27.065 -15.872  0.00  0.00    +0.295 HD
ENDBRANCH   6   7
ENDBRANCH   1   6
TORSDOF 3
ENDMDL
MODEL 5
REMARK VINA RESULT:      -4.1     10.702     11.558
REMARK  Name = 107689
REMARK  3 active torsions:
REMARK  status: ('A' for Active; 'I' for Inactive)
REMARK    1  A    between atoms: C_1  and  O_3
REMARK    2  A    between atoms: C_1  and  C_6
REMARK    3  A    between atoms: C_6  and  O_7
REMARK                            x       y       z     vdW  Elec       q    Type
REMARK                         _______ _______ _______ _____ _____    ______ ____
ROOT
ATOM      1  C   UNL     1      29.601 -23.137 -16.451  0.00  0.00    +0.209 C 
ATOM      2  C   UNL     1      29.627 -22.705 -14.995  0.00  0.00    +0.044 C 
ENDROOT
BRANCH   1   3
ATOM      3  O   UNL     1      30.489 -22.298 -17.174  0.00  0.00    -0.374 OA
ATOM      4  H   UNL     1      30.250 -22.307 -18.114  0.00  0.00    +0.211 HD
ENDBRANCH   1   3
BRANCH   1   6
ATOM      5  O   UNL     1      27.587 -23.891 -17.582  0.00  0.00    -0.248 OA
ATOM      6  C   UNL     1      28.215 -22.989 -17.043  0.00  0.00    +0.341 C 
BRANCH   6   7
ATOM      7  O   UNL     1      27.722 -21.733 -16.892  0.00  0.00    -0.479 OA
ATOM      8  H   UNL     1      28.306 -21.001 -16.866  0.00  0.00    +0.295 HD
ENDBRANCH   6   7
ENDBRANCH   1   6
TORSDOF 3
ENDMDL
MODEL 6
REMARK VINA RESULT:      -4.0     10.243     11.264
REMARK  Name = 107689
REMARK  3 active torsions:
REMARK  status: ('A' for Active; 'I' for Inactive)
REMARK    1  A    between atoms: C_1  and  O_3
REMARK    2  A    between atoms: C_1  and  C_6
REMARK    3  A    between atoms: C_6  and  O_7
REMARK                            x       y       z     vdW  Elec       q    Type
REMARK                         _______ _______ _______ _____ _____    ______ ____
ROOT
ATOM      1  C   UNL     1      41.842 -14.506 -16.337  0.00  0.00    +0.209 C 
ATOM      2  C   UNL     1      41.305 -14.378 -17.752  0.00  0.00    +0.044 C 
ENDROOT
BRANCH   1   3
ATOM      3  O   UNL     1      43.085 -15.188 -16.399  0.00  0.00    -0.374 OA
ATOM      4  H   UNL     1      43.741 -14.714 -15.862  0.00  0.00    +0.211 HD
ENDBRANCH   1   3
BRANCH   1   6
ATOM      5  O   UNL     1      40.513 -16.441 -15.711  0.00  0.00    -0.248 OA
ATOM      6  C   UNL     1      40.899 -15.307 -15.463  0.00  0.00    +0.341 C 
BRANCH   6   7
ATOM      7  O   UNL     1      40.538 -14.630 -14.342  0.00  0.00    -0.479 OA
ATOM      8  H   UNL     1      40.590 -13.695 -14.323  0.00  0.00    +0.295 HD
ENDBRANCH   6   7
ENDBRANCH   1   6
TORSDOF 3
ENDMDL
MODEL 7
REMARK VINA RESULT:      -4.0     10.848     11.712
REMARK  Name = 107689
REMARK  3 active torsions:
REMARK  status: ('A' for Active; 'I' for Inactive)
REMARK    1  A    between atoms: C_1  and  O_3
REMARK    2  A    between atoms: C_1  and  C_6
REMARK    3  A    between atoms: C_6  and  O_7
REMARK                            x       y       z     vdW  Elec       q    Type
REMARK                         _______ _______ _______ _____ _____    ______ ____
ROOT
ATOM      1  C   UNL     1      28.938 -23.114 -15.777  0.00  0.00    +0.209 C 
ATOM      2  C   UNL     1      30.389 -22.996 -16.211  0.00  0.00    +0.044 C 
ENDROOT
BRANCH   1   3
ATOM      3  O   UNL     1      28.743 -24.415 -15.243  0.00  0.00    -0.374 OA
ATOM      4  H   UNL     1      27.947 -24.421 -14.689  0.00  0.00    +0.211 HD
ENDBRANCH   1   3
BRANCH   1   6
ATOM      5  O   UNL     1      27.628 -23.832 -17.694  0.00  0.00    -0.248 OA
ATOM      6  C   UNL     1      27.998 -22.932 -16.951  0.00  0.00    +0.341 C 
BRANCH   6   7
ATOM      7  O   UNL     1      27.581 -21.646 -17.082  0.00  0.00    -0.479 OA
ATOM      8  H   UNL     1      28.177 -20.942 -16.916  0.00  0.00    +0.295 HD
ENDBRANCH   6   7
ENDBRANCH   1   6
TORSDOF 3
ENDMDL
MODEL 8
REMARK VINA RESULT:      -3.9      9.769     10.628
REMARK  Name = 107689
REMARK  3 active torsions:
REMARK  status: ('A' for Active; 'I' for Inactive)
REMARK    1  A    between atoms: C_1  and  O_3
REMARK    2  A    between atoms: C_1  and  C_6
REMARK    3  A    between atoms: C_6  and  O_7
REMARK                            x       y       z     vdW  Elec       q    Type
REMARK                         _______ _______ _______ _____ _____    ______ ____
ROOT
ATOM      1  C   UNL     1      40.998 -14.997 -15.974  0.00  0.00    +0.209 C 
ATOM      2  C   UNL     1      41.913 -13.785 -15.999  0.00  0.00    +0.044 C 
ENDROOT
BRANCH   1   3
ATOM      3  O   UNL     1      40.489 -15.136 -14.656  0.00  0.00    -0.374 OA
ATOM      4  H   UNL     1      40.069 -16.006 -14.562  0.00  0.00    +0.211 HD
ENDBRANCH   1   3
BRANCH   1   6
ATOM      5  O   UNL     1      41.231 -17.290 -16.745  0.00  0.00    -0.248 OA
ATOM      6  C   UNL     1      41.751 -16.261 -16.332  0.00  0.00    +0.341 C 
BRANCH   6   7
ATOM      7  O   UNL     1      43.092 -16.126 -16.167  0.00  0.00    -0.479 OA
ATOM      8  H   UNL     1      43.598 -16.843 -15.839  0.00  0.00    +0.295 HD
ENDBRANCH   6   7
ENDBRANCH   1   6
TORSDOF 3
ENDMDL
MODEL 9
REMARK VINA RESULT:      -3.9     10.710     11.543
REMARK  Name = 107689
REMARK  3 active torsions:
REMARK  status: ('A' for Active; 'I' for Inactive)
REMARK    1  A    between atoms: C_1  and  O_3
REMARK    2  A    between atoms: C_1  and  C_6
REMARK    3  A    between atoms: C_6  and  O_7
REMARK                            x       y       z     vdW  Elec       q    Type
REMARK                         _______ _______ _______ _____ _____    ______ ____
ROOT
ATOM      1  C   UNL     1      41.347 -15.246 -15.725  0.00  0.00    +0.209 C 
ATOM      2  C   UNL     1      41.385 -14.981 -17.220  0.00  0.00    +0.044 C 
ENDROOT
BRANCH   1   3
ATOM      3  O   UNL     1      40.240 -16.094 -15.457  0.00  0.00    -0.374 OA
ATOM      4  H   UNL     1      40.561 -16.951 -15.134  0.00  0.00    +0.211 HD
ENDBRANCH   1   3
BRANCH   1   6
ATOM      5  O   UNL     1      40.561 -13.869 -13.884  0.00  0.00    -0.248 OA
ATOM      6  C   UNL     1      41.165 -13.961 -14.944  0.00  0.00    +0.341 C 
BRANCH   6   7
ATOM      7  O   UNL     1      41.773 -12.904 -15.544  0.00  0.00    -0.479 OA
ATOM      8  H   UNL     1      42.702 -12.904 -15.661  0.00  0.00    +0.295 HD
ENDBRANCH   6   7
ENDBRANCH   1   6
TORSDOF 3
ENDMDL
