MODEL 1
REMARK VINA RESULT:     -12.3      0.000      0.000
REMARK  Name = 22479942
REMARK  4 active torsions:
REMARK  status: ('A' for Active; 'I' for Inactive)
REMARK    1  A    between atoms: C_4  and  C_17
REMARK    2  A    between atoms: C_7  and  C_14
REMARK    3  A    between atoms: C_20  and  N_24
REMARK    4  A    between atoms: C_25  and  C_28
REMARK                            x       y       z     vdW  Elec       q    Type
REMARK                         _______ _______ _______ _____ _____    ______ ____
ROOT
ATOM      1  N   UNL     1      31.278 -23.146 -17.178  0.00  0.00    -0.276 N 
ATOM      2  N   UNL     1      32.072 -22.575 -18.100  0.00  0.00    -0.173 NA
ATOM      3  C   UNL     1      33.265 -23.205 -16.252  0.00  0.00    +0.036 A 
ATOM      4  C   UNL     1      33.279 -22.613 -17.533  0.00  0.00    +0.102 A 
ATOM      5  C   UNL     1      31.933 -23.546 -16.044  0.00  0.00    +0.075 A 
ATOM      6  C   UNL     1      34.212 -23.489 -15.253  0.00  0.00    +0.006 C 
ATOM      7  C   UNL     1      33.776 -24.112 -14.076  0.00  0.00    +0.033 C 
ATOM      8  C   UNL     1      31.478 -24.167 -14.879  0.00  0.00    +0.019 C 
ATOM      9  C   UNL     1      32.432 -24.443 -13.895  0.00  0.00    +0.004 C 
ATOM     10  H   UNL     1      30.310 -23.266 -17.307  0.00  0.00    +0.189 HD
ENDROOT
BRANCH   7  14
ATOM     11  N   UNL     1      35.710 -25.345 -13.176  0.00  0.00    -0.218 N 
ATOM     12  N   UNL     1      34.809 -23.864 -11.846  0.00  0.00    -0.206 NA
ATOM     13  N   UNL     1      36.462 -25.431 -12.068  0.00  0.00    -0.157 NA
ATOM     14  C   UNL     1      34.731 -24.412 -13.037  0.00  0.00    +0.149 C 
ATOM     15  C   UNL     1      35.875 -24.515 -11.293  0.00  0.00    +0.218 C 
ATOM     16  H   UNL     1      35.851 -25.887 -13.986  0.00  0.00    +0.176 HD
ENDBRANCH   7  14
BRANCH   4  17
ATOM     17  C   UNL     1      34.423 -22.083 -18.231  0.00  0.00    +0.021 C 
ATOM     18  C   UNL     1      34.247 -21.381 -19.425  0.00  0.00    +0.016 C 
ATOM     19  C   UNL     1      35.704 -22.269 -17.715  0.00  0.00    +0.002 C 
ATOM     20  C   UNL     1      35.354 -20.868 -20.101  0.00  0.00    +0.051 C 
ATOM     21  C   UNL     1      36.811 -21.756 -18.391  0.00  0.00    +0.001 C 
ATOM     22  C   UNL     1      36.636 -21.055 -19.584  0.00  0.00    +0.015 C 
BRANCH  20  24
ATOM     23  O   UNL     1      35.540 -17.960 -20.640  0.00  0.00    -0.266 OA
ATOM     24  N   UNL     1      35.180 -20.166 -21.294  0.00  0.00    -0.278 N 
ATOM     25  C   UNL     1      35.276 -18.778 -21.517  0.00  0.00    +0.284 C 
ATOM     26  H   UNL     1      34.962 -20.713 -22.084  0.00  0.00    +0.155 HD
BRANCH  25  28
ATOM     27  O   UNL     1      34.966 -17.011 -23.151  0.00  0.00    -0.446 OA
ATOM     28  C   UNL     1      34.993 -18.345 -22.896  0.00  0.00    +0.199 C 
ATOM     29  C   UNL     1      34.737 -19.060 -24.043  0.00  0.00    +0.045 C 
ATOM     30  C   UNL     1      34.540 -18.104 -25.068  0.00  0.00    +0.044 C 
ATOM     31  C   UNL     1      34.690 -16.872 -24.474  0.00  0.00    +0.180 C 
ENDBRANCH  25  28
ENDBRANCH  20  24
ENDBRANCH   4  17
TORSDOF 4
ENDMDL
MODEL 2
REMARK VINA RESULT:     -11.8      6.189     10.523
REMARK  Name = 22479942
REMARK  4 active torsions:
REMARK  status: ('A' for Active; 'I' for Inactive)
REMARK    1  A    between atoms: C_4  and  C_17
REMARK    2  A    between atoms: C_7  and  C_14
REMARK    3  A    between atoms: C_20  and  N_24
REMARK    4  A    between atoms: C_25  and  C_28
REMARK                            x       y       z     vdW  Elec       q    Type
REMARK                         _______ _______ _______ _____ _____    ______ ____
ROOT
ATOM      1  N   UNL     1      33.714 -15.461 -25.661  0.00  0.00    -0.276 N 
ATOM      2  N   UNL     1      33.182 -14.424 -24.992  0.00  0.00    -0.173 NA
ATOM      3  C   UNL     1      33.911 -16.051 -23.558  0.00  0.00    +0.036 A 
ATOM      4  C   UNL     1      33.304 -14.787 -23.714  0.00  0.00    +0.102 A 
ATOM      5  C   UNL     1      34.169 -16.472 -24.857  0.00  0.00    +0.075 A 
ATOM      6  C   UNL     1      34.268 -16.881 -22.481  0.00  0.00    +0.006 C 
ATOM      7  C   UNL     1      34.877 -18.112 -22.759  0.00  0.00    +0.033 C 
ATOM      8  C   UNL     1      34.775 -17.695 -25.156  0.00  0.00    +0.019 C 
ATOM      9  C   UNL     1      35.124 -18.509 -24.075  0.00  0.00    +0.004 C 
ATOM     10  H   UNL     1      33.770 -15.492 -26.643  0.00  0.00    +0.189 HD
ENDROOT
BRANCH   7  14
ATOM     11  N   UNL     1      36.370 -18.793 -20.921  0.00  0.00    -0.218 N 
ATOM     12  N   UNL     1      34.606 -20.042 -21.241  0.00  0.00    -0.206 NA
ATOM     13  N   UNL     1      36.487 -19.737 -19.975  0.00  0.00    -0.157 NA
ATOM     14  C   UNL     1      35.250 -18.980 -21.669  0.00  0.00    +0.149 C 
ATOM     15  C   UNL     1      35.395 -20.468 -20.211  0.00  0.00    +0.218 C 
ATOM     16  H   UNL     1      37.013 -18.058 -21.055  0.00  0.00    +0.176 HD
ENDBRANCH   7  14
BRANCH   4  17
ATOM     17  C   UNL     1      32.839 -13.912 -22.667  0.00  0.00    +0.021 C 
ATOM     18  C   UNL     1      32.486 -12.594 -22.964  0.00  0.00    +0.016 C 
ATOM     19  C   UNL     1      32.740 -14.381 -21.358  0.00  0.00    +0.002 C 
ATOM     20  C   UNL     1      32.036 -11.748 -21.952  0.00  0.00    +0.051 C 
ATOM     21  C   UNL     1      32.289 -13.534 -20.345  0.00  0.00    +0.001 C 
ATOM     22  C   UNL     1      31.937 -12.218 -20.642  0.00  0.00    +0.015 C 
BRANCH  20  24
ATOM     23  O   UNL     1      33.562  -9.644 -23.375  0.00  0.00    -0.266 OA
ATOM     24  N   UNL     1      31.682 -10.431 -22.248  0.00  0.00    -0.278 N 
ATOM     25  C   UNL     1      32.434  -9.453 -22.929  0.00  0.00    +0.284 C 
ATOM     26  H   UNL     1      30.790 -10.150 -21.941  0.00  0.00    +0.155 HD
BRANCH  25  28
ATOM     27  O   UNL     1      31.736  -7.353 -21.933  0.00  0.00    -0.446 OA
ATOM     28  C   UNL     1      31.787  -8.135 -23.043  0.00  0.00    +0.199 C 
ATOM     29  C   UNL     1      31.190  -7.500 -24.108  0.00  0.00    +0.045 C 
ATOM     30  C   UNL     1      30.744  -6.248 -23.621  0.00  0.00    +0.044 C 
ATOM     31  C   UNL     1      31.101  -6.207 -22.292  0.00  0.00    +0.180 C 
ENDBRANCH  25  28
ENDBRANCH  20  24
ENDBRANCH   4  17
TORSDOF 4
ENDMDL
MODEL 3
REMARK VINA RESULT:     -11.6      1.949      2.755
REMARK  Name = 22479942
REMARK  4 active torsions:
REMARK  status: ('A' for Active; 'I' for Inactive)
REMARK    1  A    between atoms: C_4  and  C_17
REMARK    2  A    between atoms: C_7  and  C_14
REMARK    3  A    between atoms: C_20  and  N_24
REMARK    4  A    between atoms: C_25  and  C_28
REMARK                            x       y       z     vdW  Elec       q    Type
REMARK                         _______ _______ _______ _____ _____    ______ ____
ROOT
ATOM      1  N   UNL     1      32.325 -22.413 -18.710  0.00  0.00    -0.276 N 
ATOM      2  N   UNL     1      32.893 -21.594 -19.612  0.00  0.00    -0.173 NA
ATOM      3  C   UNL     1      34.392 -22.220 -18.000  0.00  0.00    +0.036 A 
ATOM      4  C   UNL     1      34.149 -21.479 -19.177  0.00  0.00    +0.102 A 
ATOM      5  C   UNL     1      33.172 -22.824 -17.716  0.00  0.00    +0.075 A 
ATOM      6  C   UNL     1      35.487 -22.447 -17.151  0.00  0.00    +0.006 C 
ATOM      7  C   UNL     1      35.310 -23.283 -16.040  0.00  0.00    +0.033 C 
ATOM      8  C   UNL     1      32.974 -23.660 -16.614  0.00  0.00    +0.019 C 
ATOM      9  C   UNL     1      34.074 -23.877 -15.778  0.00  0.00    +0.004 C 
ATOM     10  H   UNL     1      31.384 -22.693 -18.760  0.00  0.00    +0.189 HD
ENDROOT
BRANCH   7  14
ATOM     11  N   UNL     1      37.677 -23.809 -15.597  0.00  0.00    -0.218 N 
ATOM     12  N   UNL     1      36.408 -23.526 -13.840  0.00  0.00    -0.206 NA
ATOM     13  N   UNL     1      38.524 -23.998 -14.573  0.00  0.00    -0.157 NA
ATOM     14  C   UNL     1      36.422 -23.529 -15.153  0.00  0.00    +0.149 C 
ATOM     15  C   UNL     1      37.707 -23.816 -13.533  0.00  0.00    +0.218 C 
ATOM     16  H   UNL     1      37.932 -23.866 -16.546  0.00  0.00    +0.176 HD
ENDBRANCH   7  14
BRANCH   4  17
ATOM     17  C   UNL     1      35.092 -20.663 -19.899  0.00  0.00    +0.021 C 
ATOM     18  C   UNL     1      34.641 -19.585 -20.661  0.00  0.00    +0.016 C 
ATOM     19  C   UNL     1      36.455 -20.951 -19.836  0.00  0.00    +0.002 C 
ATOM     20  C   UNL     1      35.554 -18.795 -21.360  0.00  0.00    +0.051 C 
ATOM     21  C   UNL     1      37.368 -20.161 -20.535  0.00  0.00    +0.001 C 
ATOM     22  C   UNL     1      36.918 -19.083 -21.297  0.00  0.00    +0.015 C 
BRANCH  20  24
ATOM     23  O   UNL     1      34.917 -16.021 -20.535  0.00  0.00    -0.266 OA
ATOM     24  N   UNL     1      35.105 -17.716 -22.122  0.00  0.00    -0.278 N 
ATOM     25  C   UNL     1      34.810 -16.405 -21.697  0.00  0.00    +0.284 C 
ATOM     26  H   UNL     1      34.978 -17.894 -23.082  0.00  0.00    +0.155 HD
BRANCH  25  28
ATOM     27  O   UNL     1      33.913 -16.057 -23.924  0.00  0.00    -0.446 OA
ATOM     28  C   UNL     1      34.313 -15.503 -22.750  0.00  0.00    +0.199 C 
ATOM     29  C   UNL     1      34.164 -14.136 -22.786  0.00  0.00    +0.045 C 
ATOM     30  C   UNL     1      33.638 -13.831 -24.064  0.00  0.00    +0.044 C 
ATOM     31  C   UNL     1      33.503 -15.034 -24.718  0.00  0.00    +0.180 C 
ENDBRANCH  25  28
ENDBRANCH  20  24
ENDBRANCH   4  17
TORSDOF 4
ENDMDL
MODEL 4
REMARK VINA RESULT:     -10.8      5.042     11.610
REMARK  Name = 22479942
REMARK  4 active torsions:
REMARK  status: ('A' for Active; 'I' for Inactive)
REMARK    1  A    between atoms: C_4  and  C_17
REMARK    2  A    between atoms: C_7  and  C_14
REMARK    3  A    between atoms: C_20  and  N_24
REMARK    4  A    between atoms: C_25  and  C_28
REMARK                            x       y       z     vdW  Elec       q    Type
REMARK                         _______ _______ _______ _____ _____    ______ ____
ROOT
ATOM      1  N   UNL     1      31.921 -13.798 -20.680  0.00  0.00    -0.276 N 
ATOM      2  N   UNL     1      32.400 -15.053 -20.643  0.00  0.00    -0.173 NA
ATOM      3  C   UNL     1      33.266 -13.886 -22.410  0.00  0.00    +0.036 A 
ATOM      4  C   UNL     1      33.217 -15.102 -21.696  0.00  0.00    +0.102 A 
ATOM      5  C   UNL     1      32.402 -13.045 -21.718  0.00  0.00    +0.075 A 
ATOM      6  C   UNL     1      33.932 -13.402 -23.549  0.00  0.00    +0.006 C 
ATOM      7  C   UNL     1      33.700 -12.080 -23.948  0.00  0.00    +0.033 C 
ATOM      8  C   UNL     1      32.156 -11.724 -22.099  0.00  0.00    +0.019 C 
ATOM      9  C   UNL     1      32.826 -11.257 -23.234  0.00  0.00    +0.004 C 
ATOM     10  H   UNL     1      31.280 -13.450 -20.019  0.00  0.00    +0.189 HD
ENDROOT
BRANCH   7  14
ATOM     11  N   UNL     1      35.263 -10.536 -25.065  0.00  0.00    -0.218 N 
ATOM     12  N   UNL     1      34.243 -11.974 -26.355  0.00  0.00    -0.206 NA
ATOM     13  N   UNL     1      35.744 -10.248 -26.284  0.00  0.00    -0.157 NA
ATOM     14  C   UNL     1      34.373 -11.563 -25.115  0.00  0.00    +0.149 C 
ATOM     15  C   UNL     1      35.095 -11.146 -27.029  0.00  0.00    +0.218 C 
ATOM     16  H   UNL     1      35.523 -10.064 -24.240  0.00  0.00    +0.176 HD
ENDBRANCH   7  14
BRANCH   4  17
ATOM     17  C   UNL     1      33.937 -16.315 -21.996  0.00  0.00    +0.021 C 
ATOM     18  C   UNL     1      33.895 -17.389 -21.106  0.00  0.00    +0.016 C 
ATOM     19  C   UNL     1      34.675 -16.414 -23.174  0.00  0.00    +0.002 C 
ATOM     20  C   UNL     1      34.591 -18.562 -21.396  0.00  0.00    +0.051 C 
ATOM     21  C   UNL     1      35.372 -17.588 -23.464  0.00  0.00    +0.001 C 
ATOM     22  C   UNL     1      35.330 -18.662 -22.575  0.00  0.00    +0.015 C 
BRANCH  20  24
ATOM     23  O   UNL     1      32.430 -20.527 -20.892  0.00  0.00    -0.266 OA
ATOM     24  N   UNL     1      34.549 -19.637 -20.507  0.00  0.00    -0.278 N 
ATOM     25  C   UNL     1      33.502 -20.556 -20.291  0.00  0.00    +0.284 C 
ATOM     26  H   UNL     1      35.357 -19.772 -19.961  0.00  0.00    +0.155 HD
BRANCH  25  28
ATOM     27  O   UNL     1      32.686 -22.171 -18.676  0.00  0.00    -0.446 OA
ATOM     28  C   UNL     1      33.758 -21.560 -19.245  0.00  0.00    +0.199 C 
ATOM     29  C   UNL     1      34.928 -22.030 -18.697  0.00  0.00    +0.045 C 
ATOM     30  C   UNL     1      34.552 -22.992 -17.729  0.00  0.00    +0.044 C 
ATOM     31  C   UNL     1      33.177 -23.041 -17.755  0.00  0.00    +0.180 C 
ENDBRANCH  25  28
ENDBRANCH  20  24
ENDBRANCH   4  17
TORSDOF 4
ENDMDL
MODEL 5
REMARK VINA RESULT:     -10.7      3.829      8.101
REMARK  Name = 22479942
REMARK  4 active torsions:
REMARK  status: ('A' for Active; 'I' for Inactive)
REMARK    1  A    between atoms: C_4  and  C_17
REMARK    2  A    between atoms: C_7  and  C_14
REMARK    3  A    between atoms: C_20  and  N_24
REMARK    4  A    between atoms: C_25  and  C_28
REMARK                            x       y       z     vdW  Elec       q    Type
REMARK                         _______ _______ _______ _____ _____    ______ ____
ROOT
ATOM      1  N   UNL     1      36.387 -23.615 -15.348  0.00  0.00    -0.276 N 
ATOM      2  N   UNL     1      35.332 -24.072 -14.653  0.00  0.00    -0.173 NA
ATOM      3  C   UNL     1      34.664 -22.941 -16.526  0.00  0.00    +0.036 A 
ATOM      4  C   UNL     1      34.287 -23.660 -15.372  0.00  0.00    +0.102 A 
ATOM      5  C   UNL     1      36.053 -22.926 -16.484  0.00  0.00    +0.075 A 
ATOM      6  C   UNL     1      34.001 -22.306 -17.590  0.00  0.00    +0.006 C 
ATOM      7  C   UNL     1      34.770 -21.677 -18.577  0.00  0.00    +0.033 C 
ATOM      8  C   UNL     1      36.839 -22.306 -17.458  0.00  0.00    +0.019 C 
ATOM      9  C   UNL     1      36.165 -21.679 -18.510  0.00  0.00    +0.004 C 
ATOM     10  H   UNL     1      37.318 -23.763 -15.066  0.00  0.00    +0.189 HD
ENDROOT
BRANCH   7  14
ATOM     11  N   UNL     1      32.770 -21.102 -19.898  0.00  0.00    -0.218 N 
ATOM     12  N   UNL     1      34.663 -20.269 -20.605  0.00  0.00    -0.206 NA
ATOM     13  N   UNL     1      32.410 -20.401 -20.984  0.00  0.00    -0.157 NA
ATOM     14  C   UNL     1      34.110 -21.018 -19.678  0.00  0.00    +0.149 C 
ATOM     15  C   UNL     1      33.592 -19.917 -21.375  0.00  0.00    +0.218 C 
ATOM     16  H   UNL     1      32.144 -21.610 -19.332  0.00  0.00    +0.176 HD
ENDBRANCH   7  14
BRANCH   4  17
ATOM     17  C   UNL     1      32.946 -23.967 -14.940  0.00  0.00    +0.021 C 
ATOM     18  C   UNL     1      31.857 -23.348 -15.554  0.00  0.00    +0.016 C 
ATOM     19  C   UNL     1      32.738 -24.882 -13.909  0.00  0.00    +0.002 C 
ATOM     20  C   UNL     1      30.560 -23.645 -15.136  0.00  0.00    +0.051 C 
ATOM     21  C   UNL     1      31.441 -25.179 -13.491  0.00  0.00    +0.001 C 
ATOM     22  C   UNL     1      30.351 -24.561 -14.104  0.00  0.00    +0.015 C 
BRANCH  20  24
ATOM     23  O   UNL     1      28.407 -24.812 -16.807  0.00  0.00    -0.266 OA
ATOM     24  N   UNL     1      29.469 -23.028 -15.749  0.00  0.00    -0.278 N 
ATOM     25  C   UNL     1      28.460 -23.613 -16.540  0.00  0.00    +0.284 C 
ATOM     26  H   UNL     1      29.395 -22.056 -15.611  0.00  0.00    +0.155 HD
BRANCH  25  28
ATOM     27  O   UNL     1      27.219 -22.702 -18.415  0.00  0.00    -0.446 OA
ATOM     28  C   UNL     1      27.463 -22.672 -17.079  0.00  0.00    +0.199 C 
ATOM     29  C   UNL     1      26.686 -21.717 -16.468  0.00  0.00    +0.045 C 
ATOM     30  C   UNL     1      25.915 -21.121 -17.494  0.00  0.00    +0.044 C 
ATOM     31  C   UNL     1      26.276 -21.756 -18.660  0.00  0.00    +0.180 C 
ENDBRANCH  25  28
ENDBRANCH  20  24
ENDBRANCH   4  17
TORSDOF 4
ENDMDL
MODEL 6
REMARK VINA RESULT:     -10.2      8.518     14.577
REMARK  Name = 22479942
REMARK  4 active torsions:
REMARK  status: ('A' for Active; 'I' for Inactive)
REMARK    1  A    between atoms: C_4  and  C_17
REMARK    2  A    between atoms: C_7  and  C_14
REMARK    3  A    between atoms: C_20  and  N_24
REMARK    4  A    between atoms: C_25  and  C_28
REMARK                            x       y       z     vdW  Elec       q    Type
REMARK                         _______ _______ _______ _____ _____    ______ ____
ROOT
ATOM      1  N   UNL     1      35.316  -9.666 -25.188  0.00  0.00    -0.276 N 
ATOM      2  N   UNL     1      34.962 -10.853 -24.666  0.00  0.00    -0.173 NA
ATOM      3  C   UNL     1      33.651  -9.162 -23.853  0.00  0.00    +0.036 A 
ATOM      4  C   UNL     1      33.949 -10.542 -23.854  0.00  0.00    +0.102 A 
ATOM      5  C   UNL     1      34.568  -8.611 -24.740  0.00  0.00    +0.075 A 
ATOM      6  C   UNL     1      32.724  -8.324 -23.211  0.00  0.00    +0.006 C 
ATOM      7  C   UNL     1      32.757  -6.952 -23.492  0.00  0.00    +0.033 C 
ATOM      8  C   UNL     1      34.619  -7.246 -25.034  0.00  0.00    +0.019 C 
ATOM      9  C   UNL     1      33.689  -6.425 -24.388  0.00  0.00    +0.004 C 
ATOM     10  H   UNL     1      36.049  -9.566 -25.836  0.00  0.00    +0.189 HD
ENDROOT
BRANCH   7  14
ATOM     11  N   UNL     1      31.326  -4.946 -23.429  0.00  0.00    -0.218 N 
ATOM     12  N   UNL     1      31.300  -6.205 -21.642  0.00  0.00    -0.206 NA
ATOM     13  N   UNL     1      30.470  -4.307 -22.616  0.00  0.00    -0.157 NA
ATOM     14  C   UNL     1      31.815  -6.072 -22.843  0.00  0.00    +0.149 C 
ATOM     15  C   UNL     1      30.489  -5.110 -21.549  0.00  0.00    +0.218 C 
ATOM     16  H   UNL     1      31.569  -4.639 -24.332  0.00  0.00    +0.176 HD
ENDBRANCH   7  14
BRANCH   4  17
ATOM     17  C   UNL     1      33.286 -11.574 -23.099  0.00  0.00    +0.021 C 
ATOM     18  C   UNL     1      33.804 -12.870 -23.083  0.00  0.00    +0.016 C 
ATOM     19  C   UNL     1      32.127 -11.279 -22.383  0.00  0.00    +0.002 C 
ATOM     20  C   UNL     1      33.163 -13.869 -22.352  0.00  0.00    +0.051 C 
ATOM     21  C   UNL     1      31.485 -12.279 -21.651  0.00  0.00    +0.001 C 
ATOM     22  C   UNL     1      32.002 -13.573 -21.635  0.00  0.00    +0.015 C 
BRANCH  20  24
ATOM     23  O   UNL     1      34.876 -15.204 -20.336  0.00  0.00    -0.266 OA
ATOM     24  N   UNL     1      33.681 -15.165 -22.335  0.00  0.00    -0.278 N 
ATOM     25  C   UNL     1      34.495 -15.771 -21.357  0.00  0.00    +0.284 C 
ATOM     26  H   UNL     1      33.445 -15.729 -23.107  0.00  0.00    +0.155 HD
BRANCH  25  28
ATOM     27  O   UNL     1      35.560 -17.845 -20.688  0.00  0.00    -0.446 OA
ATOM     28  C   UNL     1      34.910 -17.152 -21.658  0.00  0.00    +0.199 C 
ATOM     29  C   UNL     1      34.762 -17.923 -22.787  0.00  0.00    +0.045 C 
ATOM     30  C   UNL     1      35.361 -19.171 -22.491  0.00  0.00    +0.044 C 
ATOM     31  C   UNL     1      35.831 -19.073 -21.202  0.00  0.00    +0.180 C 
ENDBRANCH  25  28
ENDBRANCH  20  24
ENDBRANCH   4  17
TORSDOF 4
ENDMDL
MODEL 7
REMARK VINA RESULT:     -10.1      5.776     12.410
REMARK  Name = 22479942
REMARK  4 active torsions:
REMARK  status: ('A' for Active; 'I' for Inactive)
REMARK    1  A    between atoms: C_4  and  C_17
REMARK    2  A    between atoms: C_7  and  C_14
REMARK    3  A    between atoms: C_20  and  N_24
REMARK    4  A    between atoms: C_25  and  C_28
REMARK                            x       y       z     vdW  Elec       q    Type
REMARK                         _______ _______ _______ _____ _____    ______ ____
ROOT
ATOM      1  N   UNL     1      33.519 -14.670 -26.229  0.00  0.00    -0.276 N 
ATOM      2  N   UNL     1      33.376 -15.468 -25.157  0.00  0.00    -0.173 NA
ATOM      3  C   UNL     1      33.626 -13.280 -24.536  0.00  0.00    +0.036 A 
ATOM      4  C   UNL     1      33.442 -14.619 -24.130  0.00  0.00    +0.102 A 
ATOM      5  C   UNL     1      33.674 -13.344 -25.924  0.00  0.00    +0.075 A 
ATOM      6  C   UNL     1      33.758 -12.034 -23.899  0.00  0.00    +0.006 C 
ATOM      7  C   UNL     1      33.933 -10.893 -24.693  0.00  0.00    +0.033 C 
ATOM      8  C   UNL     1      33.848 -12.219 -26.733  0.00  0.00    +0.019 C 
ATOM      9  C   UNL     1      33.977 -10.987 -26.085  0.00  0.00    +0.004 C 
ATOM     10  H   UNL     1      33.512 -15.009 -27.153  0.00  0.00    +0.189 HD
ENDROOT
BRANCH   7  14
ATOM     11  N   UNL     1      33.071  -9.012 -23.354  0.00  0.00    -0.218 N 
ATOM     12  N   UNL     1      35.131  -8.827 -24.060  0.00  0.00    -0.206 NA
ATOM     13  N   UNL     1      33.455  -7.820 -22.871  0.00  0.00    -0.157 NA
ATOM     14  C   UNL     1      34.072  -9.604 -24.059  0.00  0.00    +0.149 C 
ATOM     15  C   UNL     1      34.709  -7.756 -23.325  0.00  0.00    +0.218 C 
ATOM     16  H   UNL     1      32.179  -9.406 -23.216  0.00  0.00    +0.176 HD
ENDBRANCH   7  14
BRANCH   4  17
ATOM     17  C   UNL     1      33.324 -15.109 -22.779  0.00  0.00    +0.021 C 
ATOM     18  C   UNL     1      33.988 -16.276 -22.401  0.00  0.00    +0.016 C 
ATOM     19  C   UNL     1      32.547 -14.416 -21.852  0.00  0.00    +0.002 C 
ATOM     20  C   UNL     1      33.874 -16.749 -21.094  0.00  0.00    +0.051 C 
ATOM     21  C   UNL     1      32.433 -14.890 -20.545  0.00  0.00    +0.001 C 
ATOM     22  C   UNL     1      33.097 -16.057 -20.165  0.00  0.00    +0.015 C 
BRANCH  20  24
ATOM     23  O   UNL     1      33.092 -19.586 -21.452  0.00  0.00    -0.266 OA
ATOM     24  N   UNL     1      34.539 -17.916 -20.713  0.00  0.00    -0.278 N 
ATOM     25  C   UNL     1      34.138 -19.254 -20.899  0.00  0.00    +0.284 C 
ATOM     26  H   UNL     1      35.401 -17.786 -20.255  0.00  0.00    +0.155 HD
BRANCH  25  28
ATOM     27  O   UNL     1      34.514 -21.275 -19.610  0.00  0.00    -0.446 OA
ATOM     28  C   UNL     1      35.053 -20.264 -20.340  0.00  0.00    +0.199 C 
ATOM     29  C   UNL     1      36.420 -20.397 -20.413  0.00  0.00    +0.045 C 
ATOM     30  C   UNL     1      36.742 -21.565 -19.681  0.00  0.00    +0.044 C 
ATOM     31  C   UNL     1      35.547 -22.063 -19.212  0.00  0.00    +0.180 C 
ENDBRANCH  25  28
ENDBRANCH  20  24
ENDBRANCH   4  17
TORSDOF 4
ENDMDL
MODEL 8
REMARK VINA RESULT:     -10.1      7.520     13.399
REMARK  Name = 22479942
REMARK  4 active torsions:
REMARK  status: ('A' for Active; 'I' for Inactive)
REMARK    1  A    between atoms: C_4  and  C_17
REMARK    2  A    between atoms: C_7  and  C_14
REMARK    3  A    between atoms: C_20  and  N_24
REMARK    4  A    between atoms: C_25  and  C_28
REMARK                            x       y       z     vdW  Elec       q    Type
REMARK                         _______ _______ _______ _____ _____    ______ ____
ROOT
ATOM      1  N   UNL     1      31.425 -11.026 -19.939  0.00  0.00    -0.276 N 
ATOM      2  N   UNL     1      31.719 -12.219 -20.484  0.00  0.00    -0.173 NA
ATOM      3  C   UNL     1      32.332 -10.500 -21.865  0.00  0.00    +0.036 A 
ATOM      4  C   UNL     1      32.271 -11.895 -21.655  0.00  0.00    +0.102 A 
ATOM      5  C   UNL     1      31.768  -9.954 -20.719  0.00  0.00    +0.075 A 
ATOM      6  C   UNL     1      32.794  -9.646 -22.881  0.00  0.00    +0.006 C 
ATOM      7  C   UNL     1      32.668  -8.262 -22.698  0.00  0.00    +0.033 C 
ATOM      8  C   UNL     1      31.632  -8.578 -20.517  0.00  0.00    +0.019 C 
ATOM      9  C   UNL     1      32.096  -7.740 -21.536  0.00  0.00    +0.004 C 
ATOM     10  H   UNL     1      31.001 -10.932 -19.056  0.00  0.00    +0.189 HD
ENDROOT
BRANCH   7  14
ATOM     11  N   UNL     1      34.413  -7.367 -24.191  0.00  0.00    -0.218 N 
ATOM     12  N   UNL     1      32.439  -6.446 -24.357  0.00  0.00    -0.206 NA
ATOM     13  N   UNL     1      34.587  -6.439 -25.144  0.00  0.00    -0.157 NA
ATOM     14  C   UNL     1      33.134  -7.366 -23.728  0.00  0.00    +0.149 C 
ATOM     15  C   UNL     1      33.363  -5.910 -25.207  0.00  0.00    +0.218 C 
ATOM     16  H   UNL     1      35.120  -7.972 -23.868  0.00  0.00    +0.176 HD
ENDBRANCH   7  14
BRANCH   4  17
ATOM     17  C   UNL     1      32.730 -12.929 -22.548  0.00  0.00    +0.021 C 
ATOM     18  C   UNL     1      33.071 -14.185 -22.044  0.00  0.00    +0.016 C 
ATOM     19  C   UNL     1      32.833 -12.674 -23.915  0.00  0.00    +0.002 C 
ATOM     20  C   UNL     1      33.515 -15.185 -22.908  0.00  0.00    +0.051 C 
ATOM     21  C   UNL     1      33.278 -13.675 -24.779  0.00  0.00    +0.001 C 
ATOM     22  C   UNL     1      33.618 -14.931 -24.276  0.00  0.00    +0.015 C 
BRANCH  20  24
ATOM     23  O   UNL     1      35.048 -15.910 -20.477  0.00  0.00    -0.266 OA
ATOM     24  N   UNL     1      33.855 -16.442 -22.406  0.00  0.00    -0.278 N 
ATOM     25  C   UNL     1      34.587 -16.753 -21.243  0.00  0.00    +0.284 C 
ATOM     26  H   UNL     1      33.540 -17.212 -22.934  0.00  0.00    +0.155 HD
BRANCH  25  28
ATOM     27  O   UNL     1      36.077 -18.600 -20.735  0.00  0.00    -0.446 OA
ATOM     28  C   UNL     1      34.811 -18.190 -21.011  0.00  0.00    +0.199 C 
ATOM     29  C   UNL     1      33.949 -19.261 -21.019  0.00  0.00    +0.045 C 
ATOM     30  C   UNL     1      34.734 -20.402 -20.728  0.00  0.00    +0.044 C 
ATOM     31  C   UNL     1      36.022 -19.946 -20.563  0.00  0.00    +0.180 C 
ENDBRANCH  25  28
ENDBRANCH  20  24
ENDBRANCH   4  17
TORSDOF 4
ENDMDL
MODEL 9
REMARK VINA RESULT:     -10.0      4.026     10.079
REMARK  Name = 22479942
REMARK  4 active torsions:
REMARK  status: ('A' for Active; 'I' for Inactive)
REMARK    1  A    between atoms: C_4  and  C_17
REMARK    2  A    between atoms: C_7  and  C_14
REMARK    3  A    between atoms: C_20  and  N_24
REMARK    4  A    between atoms: C_25  and  C_28
REMARK                            x       y       z     vdW  Elec       q    Type
REMARK                         _______ _______ _______ _____ _____    ______ ____
ROOT
ATOM      1  N   UNL     1      34.404 -17.198 -25.654  0.00  0.00    -0.276 N 
ATOM      2  N   UNL     1      35.066 -18.110 -24.922  0.00  0.00    -0.173 NA
ATOM      3  C   UNL     1      34.174 -16.471 -23.598  0.00  0.00    +0.036 A 
ATOM      4  C   UNL     1      34.924 -17.665 -23.673  0.00  0.00    +0.102 A 
ATOM      5  C   UNL     1      33.845 -16.187 -24.918  0.00  0.00    +0.075 A 
ATOM      6  C   UNL     1      33.740 -15.607 -22.579  0.00  0.00    +0.006 C 
ATOM      7  C   UNL     1      32.985 -14.481 -22.934  0.00  0.00    +0.033 C 
ATOM      8  C   UNL     1      33.094 -15.071 -25.293  0.00  0.00    +0.019 C 
ATOM      9  C   UNL     1      32.669 -14.220 -24.268  0.00  0.00    +0.004 C 
ATOM     10  H   UNL     1      34.327 -17.252 -26.633  0.00  0.00    +0.189 HD
ENDROOT
BRANCH   7  14
ATOM     11  N   UNL     1      31.842 -12.436 -22.168  0.00  0.00    -0.218 N 
ATOM     12  N   UNL     1      32.697 -13.704 -20.606  0.00  0.00    -0.206 NA
ATOM     13  N   UNL     1      31.538 -11.778 -21.039  0.00  0.00    -0.157 NA
ATOM     14  C   UNL     1      32.530 -13.579 -21.903  0.00  0.00    +0.149 C 
ATOM     15  C   UNL     1      32.077 -12.587 -20.123  0.00  0.00    +0.218 C 
ATOM     16  H   UNL     1      31.597 -12.131 -23.072  0.00  0.00    +0.176 HD
ENDBRANCH   7  14
BRANCH   4  17
ATOM     17  C   UNL     1      35.508 -18.394 -22.575  0.00  0.00    +0.021 C 
ATOM     18  C   UNL     1      34.690 -19.112 -21.701  0.00  0.00    +0.016 C 
ATOM     19  C   UNL     1      36.889 -18.382 -22.387  0.00  0.00    +0.002 C 
ATOM     20  C   UNL     1      35.256 -19.817 -20.639  0.00  0.00    +0.051 C 
ATOM     21  C   UNL     1      37.455 -19.088 -21.324  0.00  0.00    +0.001 C 
ATOM     22  C   UNL     1      36.638 -19.806 -20.451  0.00  0.00    +0.015 C 
BRANCH  20  24
ATOM     23  O   UNL     1      35.671 -22.482 -19.409  0.00  0.00    -0.266 OA
ATOM     24  N   UNL     1      34.440 -20.537 -19.765  0.00  0.00    -0.278 N 
ATOM     25  C   UNL     1      34.668 -21.806 -19.196  0.00  0.00    +0.284 C 
ATOM     26  H   UNL     1      33.595 -20.099 -19.512  0.00  0.00    +0.155 HD
BRANCH  25  28
ATOM     27  O   UNL     1      32.347 -21.766 -18.489  0.00  0.00    -0.446 OA
ATOM     28  C   UNL     1      33.583 -22.310 -18.338  0.00  0.00    +0.199 C 
ATOM     29  C   UNL     1      33.568 -23.276 -17.358  0.00  0.00    +0.045 C 
ATOM     30  C   UNL     1      32.237 -23.328 -16.877  0.00  0.00    +0.044 C 
ATOM     31  C   UNL     1      31.534 -22.390 -17.598  0.00  0.00    +0.180 C 
ENDBRANCH  25  28
ENDBRANCH  20  24
ENDBRANCH   4  17
TORSDOF 4
ENDMDL
