MODEL 1
REMARK VINA RESULT:      -4.4      0.000      0.000
REMARK  Name = 7752
REMARK  2 active torsions:
REMARK  status: ('A' for Active; 'I' for Inactive)
REMARK    1  A    between atoms: C_3  and  O_6
REMARK    2  A    between atoms: O_6  and  C_7
REMARK                            x       y       z     vdW  Elec       q    Type
REMARK                         _______ _______ _______ _____ _____    ______ ____
ROOT
ATOM      1  O   UNL     1      36.680 -27.269 -16.154  0.00  0.00    -0.226 OA
ATOM      2  N   UNL     1      36.567 -25.528 -14.626  0.00  0.00    -0.269 N 
ATOM      3  C   UNL     1      37.144 -26.635 -15.213  0.00  0.00    +0.402 C 
ATOM      4  C   UNL     1      35.310 -24.956 -15.052  0.00  0.00    +0.114 C 
ATOM      5  H   UNL     1      37.039 -25.103 -13.873  0.00  0.00    +0.153 HD
ENDROOT
BRANCH   3   6
ATOM      6  O   UNL     1      38.323 -26.926 -14.586  0.00  0.00    -0.435 OA
BRANCH   6   7
ATOM      7  C   UNL     1      39.039 -25.806 -14.055  0.00  0.00    +0.210 C 
ATOM      8  C   UNL     1      40.242 -25.530 -14.933  0.00  0.00    +0.051 C 
ENDBRANCH   6   7
ENDBRANCH   3   6
TORSDOF 2
ENDMDL
MODEL 2
REMARK VINA RESULT:      -4.1     13.753     14.579
REMARK  Name = 7752
REMARK  2 active torsions:
REMARK  status: ('A' for Active; 'I' for Inactive)
REMARK    1  A    between atoms: C_3  and  O_6
REMARK    2  A    between atoms: O_6  and  C_7
REMARK                            x       y       z     vdW  Elec       q    Type
REMARK                         _______ _______ _______ _____ _____    ______ ____
ROOT
ATOM      1  O   UNL     1      33.500 -15.310 -26.654  0.00  0.00    -0.226 OA
ATOM      2  N   UNL     1      33.722 -15.410 -24.347  0.00  0.00    -0.269 N 
ATOM      3  C   UNL     1      33.772 -15.922 -25.628  0.00  0.00    +0.402 C 
ATOM      4  C   UNL     1      33.335 -14.052 -24.041  0.00  0.00    +0.114 C 
ATOM      5  H   UNL     1      33.965 -16.004 -23.600  0.00  0.00    +0.153 HD
ENDROOT
BRANCH   3   6
ATOM      6  O   UNL     1      34.173 -17.228 -25.585  0.00  0.00    -0.435 OA
BRANCH   6   7
ATOM      7  C   UNL     1      34.885 -17.623 -24.408  0.00  0.00    +0.210 C 
ATOM      8  C   UNL     1      34.764 -19.122 -24.239  0.00  0.00    +0.051 C 
ENDBRANCH   6   7
ENDBRANCH   3   6
TORSDOF 2
ENDMDL
MODEL 3
REMARK VINA RESULT:      -4.1      2.650      3.495
REMARK  Name = 7752
REMARK  2 active torsions:
REMARK  status: ('A' for Active; 'I' for Inactive)
REMARK    1  A    between atoms: C_3  and  O_6
REMARK    2  A    between atoms: O_6  and  C_7
REMARK                            x       y       z     vdW  Elec       q    Type
REMARK                         _______ _______ _______ _____ _____    ______ ____
ROOT
ATOM      1  O   UNL     1      38.609 -26.096 -12.946  0.00  0.00    -0.226 OA
ATOM      2  N   UNL     1      36.497 -26.380 -13.862  0.00  0.00    -0.269 N 
ATOM      3  C   UNL     1      37.388 -26.097 -12.847  0.00  0.00    +0.402 C 
ATOM      4  C   UNL     1      36.897 -26.719 -15.209  0.00  0.00    +0.114 C 
ATOM      5  H   UNL     1      35.535 -26.349 -13.658  0.00  0.00    +0.153 HD
ENDROOT
BRANCH   3   6
ATOM      6  O   UNL     1      36.701 -25.816 -11.699  0.00  0.00    -0.435 OA
BRANCH   6   7
ATOM      7  C   UNL     1      35.861 -24.657 -11.744  0.00  0.00    +0.210 C 
ATOM      8  C   UNL     1      36.717 -23.422 -11.561  0.00  0.00    +0.051 C 
ENDBRANCH   6   7
ENDBRANCH   3   6
TORSDOF 2
ENDMDL
MODEL 4
REMARK VINA RESULT:      -4.1     14.677     15.675
REMARK  Name = 7752
REMARK  2 active torsions:
REMARK  status: ('A' for Active; 'I' for Inactive)
REMARK    1  A    between atoms: C_3  and  O_6
REMARK    2  A    between atoms: O_6  and  C_7
REMARK                            x       y       z     vdW  Elec       q    Type
REMARK                         _______ _______ _______ _____ _____    ______ ____
ROOT
ATOM      1  O   UNL     1      34.707 -17.296 -25.628  0.00  0.00    -0.226 OA
ATOM      2  N   UNL     1      33.949 -15.539 -24.318  0.00  0.00    -0.269 N 
ATOM      3  C   UNL     1      34.084 -16.249 -25.493  0.00  0.00    +0.402 C 
ATOM      4  C   UNL     1      34.538 -15.945 -23.063  0.00  0.00    +0.114 C 
ATOM      5  H   UNL     1      33.421 -14.707 -24.336  0.00  0.00    +0.153 HD
ENDROOT
BRANCH   3   6
ATOM      6  O   UNL     1      33.414 -15.609 -26.497  0.00  0.00    -0.435 OA
BRANCH   6   7
ATOM      7  C   UNL     1      32.843 -14.341 -26.155  0.00  0.00    +0.210 C 
ATOM      8  C   UNL     1      33.303 -13.306 -27.160  0.00  0.00    +0.051 C 
ENDBRANCH   6   7
ENDBRANCH   3   6
TORSDOF 2
ENDMDL
MODEL 5
REMARK VINA RESULT:      -4.1      6.125      7.032
REMARK  Name = 7752
REMARK  2 active torsions:
REMARK  status: ('A' for Active; 'I' for Inactive)
REMARK    1  A    between atoms: C_3  and  O_6
REMARK    2  A    between atoms: O_6  and  C_7
REMARK                            x       y       z     vdW  Elec       q    Type
REMARK                         _______ _______ _______ _____ _____    ______ ____
ROOT
ATOM      1  O   UNL     1      35.195 -22.446 -19.361  0.00  0.00    -0.226 OA
ATOM      2  N   UNL     1      32.987 -21.744 -19.463  0.00  0.00    -0.269 N 
ATOM      3  C   UNL     1      34.012 -22.580 -19.072  0.00  0.00    +0.402 C 
ATOM      4  C   UNL     1      33.178 -20.571 -20.285  0.00  0.00    +0.114 C 
ATOM      5  H   UNL     1      32.073 -21.958 -19.165  0.00  0.00    +0.153 HD
ENDROOT
BRANCH   3   6
ATOM      6  O   UNL     1      33.510 -23.594 -18.305  0.00  0.00    -0.435 OA
BRANCH   6   7
ATOM      7  C   UNL     1      33.476 -23.350 -16.894  0.00  0.00    +0.210 C 
ATOM      8  C   UNL     1      32.035 -23.325 -16.433  0.00  0.00    +0.051 C 
ENDBRANCH   6   7
ENDBRANCH   3   6
TORSDOF 2
ENDMDL
MODEL 6
REMARK VINA RESULT:      -4.1     10.731     11.648
REMARK  Name = 7752
REMARK  2 active torsions:
REMARK  status: ('A' for Active; 'I' for Inactive)
REMARK    1  A    between atoms: C_3  and  O_6
REMARK    2  A    between atoms: O_6  and  C_7
REMARK                            x       y       z     vdW  Elec       q    Type
REMARK                         _______ _______ _______ _____ _____    ______ ____
ROOT
ATOM      1  O   UNL     1      34.926 -15.785 -20.307  0.00  0.00    -0.226 OA
ATOM      2  N   UNL     1      34.889 -16.637 -22.464  0.00  0.00    -0.269 N 
ATOM      3  C   UNL     1      35.001 -16.724 -21.092  0.00  0.00    +0.402 C 
ATOM      4  C   UNL     1      34.662 -15.400 -23.174  0.00  0.00    +0.114 C 
ATOM      5  H   UNL     1      34.968 -17.467 -22.990  0.00  0.00    +0.153 HD
ENDROOT
BRANCH   3   6
ATOM      6  O   UNL     1      35.212 -18.024 -20.729  0.00  0.00    -0.435 OA
BRANCH   6   7
ATOM      7  C   UNL     1      34.608 -19.012 -21.572  0.00  0.00    +0.210 C 
ATOM      8  C   UNL     1      33.625 -19.822 -20.754  0.00  0.00    +0.051 C 
ENDBRANCH   6   7
ENDBRANCH   3   6
TORSDOF 2
ENDMDL
MODEL 7
REMARK VINA RESULT:      -4.0      2.503      2.919
REMARK  Name = 7752
REMARK  2 active torsions:
REMARK  status: ('A' for Active; 'I' for Inactive)
REMARK    1  A    between atoms: C_3  and  O_6
REMARK    2  A    between atoms: O_6  and  C_7
REMARK                            x       y       z     vdW  Elec       q    Type
REMARK                         _______ _______ _______ _____ _____    ______ ____
ROOT
ATOM      1  O   UNL     1      36.869 -26.068 -11.823  0.00  0.00    -0.226 OA
ATOM      2  N   UNL     1      37.992 -24.126 -12.413  0.00  0.00    -0.269 N 
ATOM      3  C   UNL     1      37.773 -25.488 -12.414  0.00  0.00    +0.402 C 
ATOM      4  C   UNL     1      37.165 -23.181 -11.698  0.00  0.00    +0.114 C 
ATOM      5  H   UNL     1      38.755 -23.778 -12.929  0.00  0.00    +0.153 HD
ENDROOT
BRANCH   3   6
ATOM      6  O   UNL     1      38.722 -26.106 -13.180  0.00  0.00    -0.435 OA
BRANCH   6   7
ATOM      7  C   UNL     1      38.834 -25.639 -14.529  0.00  0.00    +0.210 C 
ATOM      8  C   UNL     1      40.299 -25.477 -14.874  0.00  0.00    +0.051 C 
ENDBRANCH   6   7
ENDBRANCH   3   6
TORSDOF 2
ENDMDL
MODEL 8
REMARK VINA RESULT:      -4.0     11.026     11.999
REMARK  Name = 7752
REMARK  2 active torsions:
REMARK  status: ('A' for Active; 'I' for Inactive)
REMARK    1  A    between atoms: C_3  and  O_6
REMARK    2  A    between atoms: O_6  and  C_7
REMARK                            x       y       z     vdW  Elec       q    Type
REMARK                         _______ _______ _______ _____ _____    ______ ____
ROOT
ATOM      1  O   UNL     1      35.591 -18.504 -20.671  0.00  0.00    -0.226 OA
ATOM      2  N   UNL     1      35.097 -17.081 -22.435  0.00  0.00    -0.269 N 
ATOM      3  C   UNL     1      35.272 -17.403 -21.105  0.00  0.00    +0.402 C 
ATOM      4  C   UNL     1      35.272 -18.022 -23.518  0.00  0.00    +0.114 C 
ATOM      5  H   UNL     1      34.839 -16.158 -22.660  0.00  0.00    +0.153 HD
ENDROOT
BRANCH   3   6
ATOM      6  O   UNL     1      35.034 -16.302 -20.331  0.00  0.00    -0.435 OA
BRANCH   6   7
ATOM      7  C   UNL     1      34.403 -15.200 -20.993  0.00  0.00    +0.210 C 
ATOM      8  C   UNL     1      33.018 -15.005 -20.413  0.00  0.00    +0.051 C 
ENDBRANCH   6   7
ENDBRANCH   3   6
TORSDOF 2
ENDMDL
MODEL 9
REMARK VINA RESULT:      -4.0      6.007      6.467
REMARK  Name = 7752
REMARK  2 active torsions:
REMARK  status: ('A' for Active; 'I' for Inactive)
REMARK    1  A    between atoms: C_3  and  O_6
REMARK    2  A    between atoms: O_6  and  C_7
REMARK                            x       y       z     vdW  Elec       q    Type
REMARK                         _______ _______ _______ _____ _____    ______ ____
ROOT
ATOM      1  O   UNL     1      32.781 -21.962 -19.246  0.00  0.00    -0.226 OA
ATOM      2  N   UNL     1      33.605 -23.229 -17.487  0.00  0.00    -0.269 N 
ATOM      3  C   UNL     1      33.689 -22.580 -18.701  0.00  0.00    +0.402 C 
ATOM      4  C   UNL     1      32.409 -23.267 -16.678  0.00  0.00    +0.114 C 
ATOM      5  H   UNL     1      34.407 -23.693 -17.152  0.00  0.00    +0.153 HD
ENDROOT
BRANCH   3   6
ATOM      6  O   UNL     1      34.946 -22.728 -19.216  0.00  0.00    -0.435 OA
BRANCH   6   7
ATOM      7  C   UNL     1      35.905 -21.745 -18.809  0.00  0.00    +0.210 C 
ATOM      8  C   UNL     1      36.213 -20.842 -19.985  0.00  0.00    +0.051 C 
ENDBRANCH   6   7
ENDBRANCH   3   6
TORSDOF 2
ENDMDL
