MODEL 1
REMARK VINA RESULT:     -10.0      0.000      0.000
REMARK  Name = 25229652
REMARK  5 active torsions:
REMARK  status: ('A' for Active; 'I' for Inactive)
REMARK    1  A    between atoms: N_2  and  C_4
REMARK    2  A    between atoms: N_2  and  N_16
REMARK    3  A    between atoms: C_3  and  C_15
REMARK    4  A    between atoms: C_17  and  C_18
REMARK    5  A    between atoms: C_21  and  O_24
REMARK                            x       y       z     vdW  Elec       q    Type
REMARK                         _______ _______ _______ _____ _____    ______ ____
ROOT
ATOM      1  O   UNL     1      34.888 -19.206 -24.293  0.00  0.00    -0.264 OA
ATOM      2  N   UNL     1      34.447 -17.919 -22.380  0.00  0.00    -0.152 N 
ATOM      3  C   UNL     1      34.698 -18.118 -23.744  0.00  0.00    +0.344 C 
ENDROOT
BRANCH   2   4
ATOM      4  C   UNL     1      34.357 -19.027 -21.467  0.00  0.00    +0.073 C 
ATOM      5  C   UNL     1      35.504 -19.586 -20.904  0.00  0.00    -0.007 C 
ATOM      6  C   UNL     1      34.139 -21.173 -19.699  0.00  0.00    -0.022 C 
ATOM      7  C   UNL     1      35.396 -20.659 -20.021  0.00  0.00    -0.007 C 
ATOM      8  C   UNL     1      33.100 -19.540 -21.145  0.00  0.00    +0.016 C 
ATOM      9  C   UNL     1      32.992 -20.615 -20.261  0.00  0.00    -0.003 C 
ATOM     10  C   UNL     1      36.863 -19.056 -21.232  0.00  0.00    +0.032 C 
ATOM     11  C   UNL     1      34.024 -22.323 -18.756  0.00  0.00    +0.031 C 
ENDBRANCH   2   4
BRANCH   3  15
ATOM     12  F   UNL     1      35.481 -15.879 -23.979  0.00  0.00    -0.162 F 
ATOM     13  F   UNL     1      35.362 -17.091 -25.781  0.00  0.00    -0.162 F 
ATOM     14  F   UNL     1      33.536 -16.356 -24.856  0.00  0.00    -0.162 F 
ATOM     15  C   UNL     1      34.765 -16.863 -24.581  0.00  0.00    +0.472 C 
ENDBRANCH   3  15
BRANCH   2  16
ATOM     16  N   UNL     1      34.289 -16.624 -21.949  0.00  0.00    -0.170 NA
ATOM     17  C   UNL     1      33.059 -16.185 -21.926  0.00  0.00    +0.118 C 
BRANCH  17  18
ATOM     18  C   UNL     1      32.715 -14.842 -21.484  0.00  0.00    +0.024 C 
ATOM     19  C   UNL     1      32.518 -13.828 -22.421  0.00  0.00    +0.038 C 
ATOM     20  C   UNL     1      32.581 -14.569 -20.123  0.00  0.00    +0.002 C 
ATOM     21  C   UNL     1      32.188 -12.541 -21.997  0.00  0.00    +0.139 C 
ATOM     22  C   UNL     1      32.250 -13.283 -19.699  0.00  0.00    +0.003 C 
ATOM     23  C   UNL     1      32.053 -12.269 -20.636  0.00  0.00    +0.037 C 
BRANCH  21  24
ATOM     24  O   UNL     1      31.995 -11.551 -22.911  0.00  0.00    -0.471 OA
ATOM     25  C   UNL     1      31.596 -10.275 -22.412  0.00  0.00    +0.252 C 
ENDBRANCH  21  24
ENDBRANCH  17  18
ENDBRANCH   2  16
TORSDOF 5
ENDMDL
MODEL 2
REMARK VINA RESULT:      -9.4      4.460      9.689
REMARK  Name = 25229652
REMARK  5 active torsions:
REMARK  status: ('A' for Active; 'I' for Inactive)
REMARK    1  A    between atoms: N_2  and  C_4
REMARK    2  A    between atoms: N_2  and  N_16
REMARK    3  A    between atoms: C_3  and  C_15
REMARK    4  A    between atoms: C_17  and  C_18
REMARK    5  A    between atoms: C_21  and  O_24
REMARK                            x       y       z     vdW  Elec       q    Type
REMARK                         _______ _______ _______ _____ _____    ______ ____
ROOT
ATOM      1  O   UNL     1      31.955  -8.439 -20.378  0.00  0.00    -0.264 OA
ATOM      2  N   UNL     1      32.367  -9.806 -22.241  0.00  0.00    -0.152 N 
ATOM      3  C   UNL     1      31.942  -9.540 -20.932  0.00  0.00    +0.344 C 
ENDROOT
BRANCH   2   4
ATOM      4  C   UNL     1      32.853  -8.757 -23.097  0.00  0.00    +0.073 C 
ATOM      5  C   UNL     1      31.968  -7.927 -23.784  0.00  0.00    -0.007 C 
ATOM      6  C   UNL     1      33.835  -6.733 -24.746  0.00  0.00    -0.022 C 
ATOM      7  C   UNL     1      32.458  -6.915 -24.609  0.00  0.00    -0.007 C 
ATOM      8  C   UNL     1      34.229  -8.575 -23.234  0.00  0.00    +0.016 C 
ATOM      9  C   UNL     1      34.720  -7.563 -24.060  0.00  0.00    -0.003 C 
ATOM     10  C   UNL     1      30.489  -8.099 -23.657  0.00  0.00    +0.032 C 
ATOM     11  C   UNL     1      34.359  -5.653 -25.631  0.00  0.00    +0.031 C 
ENDBRANCH   2   4
BRANCH   3  15
ATOM     12  F   UNL     1      32.347 -11.764 -20.177  0.00  0.00    -0.162 F 
ATOM     13  F   UNL     1      31.260 -10.437 -18.841  0.00  0.00    -0.162 F 
ATOM     14  F   UNL     1      30.276 -11.218 -20.616  0.00  0.00    -0.162 F 
ATOM     15  C   UNL     1      31.458 -10.739 -20.151  0.00  0.00    +0.472 C 
ENDBRANCH   3  15
BRANCH   2  16
ATOM     16  N   UNL     1      32.301 -11.108 -22.674  0.00  0.00    -0.170 NA
ATOM     17  C   UNL     1      33.357 -11.546 -23.305  0.00  0.00    +0.118 C 
BRANCH  17  18
ATOM     18  C   UNL     1      33.457 -12.903 -23.818  0.00  0.00    +0.024 C 
ATOM     19  C   UNL     1      33.895 -13.934 -22.987  0.00  0.00    +0.038 C 
ATOM     20  C   UNL     1      33.114 -13.174 -25.143  0.00  0.00    +0.002 C 
ATOM     21  C   UNL     1      33.991 -15.235 -23.480  0.00  0.00    +0.139 C 
ATOM     22  C   UNL     1      33.209 -14.475 -25.636  0.00  0.00    +0.003 C 
ATOM     23  C   UNL     1      33.647 -15.506 -24.805  0.00  0.00    +0.037 C 
BRANCH  21  24
ATOM     24  O   UNL     1      34.418 -16.241 -22.669  0.00  0.00    -0.471 OA
ATOM     25  C   UNL     1      34.624 -15.922 -21.294  0.00  0.00    +0.252 C 
ENDBRANCH  21  24
ENDBRANCH  17  18
ENDBRANCH   2  16
TORSDOF 5
ENDMDL
MODEL 3
REMARK VINA RESULT:      -9.2      7.237     10.179
REMARK  Name = 25229652
REMARK  5 active torsions:
REMARK  status: ('A' for Active; 'I' for Inactive)
REMARK    1  A    between atoms: N_2  and  C_4
REMARK    2  A    between atoms: N_2  and  N_16
REMARK    3  A    between atoms: C_3  and  C_15
REMARK    4  A    between atoms: C_17  and  C_18
REMARK    5  A    between atoms: C_21  and  O_24
REMARK                            x       y       z     vdW  Elec       q    Type
REMARK                         _______ _______ _______ _____ _____    ______ ____
ROOT
ATOM      1  O   UNL     1      34.152 -24.753 -12.583  0.00  0.00    -0.264 OA
ATOM      2  N   UNL     1      34.931 -24.314 -14.753  0.00  0.00    -0.152 N 
ATOM      3  C   UNL     1      33.979 -24.320 -13.724  0.00  0.00    +0.344 C 
ENDROOT
BRANCH   2   4
ATOM      4  C   UNL     1      36.263 -24.813 -14.542  0.00  0.00    +0.073 C 
ATOM      5  C   UNL     1      37.185 -24.095 -13.780  0.00  0.00    -0.007 C 
ATOM      6  C   UNL     1      38.837 -25.817 -14.155  0.00  0.00    -0.022 C 
ATOM      7  C   UNL     1      38.471 -24.597 -13.586  0.00  0.00    -0.007 C 
ATOM      8  C   UNL     1      36.629 -26.034 -15.111  0.00  0.00    +0.016 C 
ATOM      9  C   UNL     1      37.916 -26.535 -14.917  0.00  0.00    -0.003 C 
ATOM     10  C   UNL     1      36.820 -22.785 -13.160  0.00  0.00    +0.032 C 
ATOM     11  C   UNL     1      40.214 -26.352 -13.950  0.00  0.00    +0.031 C 
ENDBRANCH   2   4
BRANCH   3  15
ATOM     12  F   UNL     1      31.968 -24.551 -14.983  0.00  0.00    -0.162 F 
ATOM     13  F   UNL     1      31.813 -23.661 -13.005  0.00  0.00    -0.162 F 
ATOM     14  F   UNL     1      32.701 -22.521 -14.631  0.00  0.00    -0.162 F 
ATOM     15  C   UNL     1      32.624 -23.765 -14.091  0.00  0.00    +0.472 C 
ENDBRANCH   3  15
BRANCH   2  16
ATOM     16  N   UNL     1      34.542 -23.812 -15.971  0.00  0.00    -0.170 NA
ATOM     17  C   UNL     1      35.334 -22.912 -16.488  0.00  0.00    +0.118 C 
BRANCH  17  18
ATOM     18  C   UNL     1      35.076 -22.288 -17.776  0.00  0.00    +0.024 C 
ATOM     19  C   UNL     1      36.083 -21.567 -18.418  0.00  0.00    +0.038 C 
ATOM     20  C   UNL     1      33.819 -22.410 -18.371  0.00  0.00    +0.002 C 
ATOM     21  C   UNL     1      35.835 -20.969 -19.653  0.00  0.00    +0.139 C 
ATOM     22  C   UNL     1      33.571 -21.812 -19.606  0.00  0.00    +0.003 C 
ATOM     23  C   UNL     1      34.579 -21.092 -20.247  0.00  0.00    +0.037 C 
BRANCH  21  24
ATOM     24  O   UNL     1      36.818 -20.267 -20.279  0.00  0.00    -0.471 OA
ATOM     25  C   UNL     1      36.424 -19.101 -21.001  0.00  0.00    +0.252 C 
ENDBRANCH  21  24
ENDBRANCH  17  18
ENDBRANCH   2  16
TORSDOF 5
ENDMDL
MODEL 4
REMARK VINA RESULT:      -9.2      5.211      9.841
REMARK  Name = 25229652
REMARK  5 active torsions:
REMARK  status: ('A' for Active; 'I' for Inactive)
REMARK    1  A    between atoms: N_2  and  C_4
REMARK    2  A    between atoms: N_2  and  N_16
REMARK    3  A    between atoms: C_3  and  C_15
REMARK    4  A    between atoms: C_17  and  C_18
REMARK    5  A    between atoms: C_21  and  O_24
REMARK                            x       y       z     vdW  Elec       q    Type
REMARK                         _______ _______ _______ _____ _____    ______ ____
ROOT
ATOM      1  O   UNL     1      32.048  -7.992 -20.393  0.00  0.00    -0.264 OA
ATOM      2  N   UNL     1      32.352  -9.433 -22.221  0.00  0.00    -0.152 N 
ATOM      3  C   UNL     1      31.987  -9.111 -20.907  0.00  0.00    +0.344 C 
ENDROOT
BRANCH   2   4
ATOM      4  C   UNL     1      32.826  -8.426 -23.133  0.00  0.00    +0.073 C 
ATOM      5  C   UNL     1      31.931  -7.638 -23.858  0.00  0.00    -0.007 C 
ATOM      6  C   UNL     1      33.785  -6.482 -24.889  0.00  0.00    -0.022 C 
ATOM      7  C   UNL     1      32.410  -6.667 -24.736  0.00  0.00    -0.007 C 
ATOM      8  C   UNL     1      34.200  -8.241 -23.286  0.00  0.00    +0.016 C 
ATOM      9  C   UNL     1      34.679  -7.269 -24.165  0.00  0.00    -0.003 C 
ATOM     10  C   UNL     1      30.455  -7.815 -23.714  0.00  0.00    +0.032 C 
ATOM     11  C   UNL     1      34.297  -5.446 -25.831  0.00  0.00    +0.031 C 
ENDBRANCH   2   4
BRANCH   3  15
ATOM     12  F   UNL     1      32.485 -11.188 -19.847  0.00  0.00    -0.162 F 
ATOM     13  F   UNL     1      31.088  -9.860 -18.840  0.00  0.00    -0.162 F 
ATOM     14  F   UNL     1      30.461 -10.924 -20.630  0.00  0.00    -0.162 F 
ATOM     15  C   UNL     1      31.508 -10.270 -20.065  0.00  0.00    +0.472 C 
ENDBRANCH   3  15
BRANCH   2  16
ATOM     16  N   UNL     1      32.239 -10.746 -22.605  0.00  0.00    -0.170 NA
ATOM     17  C   UNL     1      33.325 -11.288 -23.086  0.00  0.00    +0.118 C 
BRANCH  17  18
ATOM     18  C   UNL     1      33.382 -12.674 -23.527  0.00  0.00    +0.024 C 
ATOM     19  C   UNL     1      33.394 -12.973 -24.889  0.00  0.00    +0.038 C 
ATOM     20  C   UNL     1      33.424 -13.703 -22.586  0.00  0.00    +0.002 C 
ATOM     21  C   UNL     1      33.448 -14.301 -25.311  0.00  0.00    +0.139 C 
ATOM     22  C   UNL     1      33.479 -15.031 -23.008  0.00  0.00    +0.003 C 
ATOM     23  C   UNL     1      33.491 -15.330 -24.371  0.00  0.00    +0.037 C 
BRANCH  21  24
ATOM     24  O   UNL     1      33.459 -14.593 -26.640  0.00  0.00    -0.471 OA
ATOM     25  C   UNL     1      33.544 -13.494 -27.546  0.00  0.00    +0.252 C 
ENDBRANCH  21  24
ENDBRANCH  17  18
ENDBRANCH   2  16
TORSDOF 5
ENDMDL
MODEL 5
REMARK VINA RESULT:      -9.1      5.409     10.484
REMARK  Name = 25229652
REMARK  5 active torsions:
REMARK  status: ('A' for Active; 'I' for Inactive)
REMARK    1  A    between atoms: N_2  and  C_4
REMARK    2  A    between atoms: N_2  and  N_16
REMARK    3  A    between atoms: C_3  and  C_15
REMARK    4  A    between atoms: C_17  and  C_18
REMARK    5  A    between atoms: C_21  and  O_24
REMARK                            x       y       z     vdW  Elec       q    Type
REMARK                         _______ _______ _______ _____ _____    ______ ____
ROOT
ATOM      1  O   UNL     1      32.154  -6.792 -20.693  0.00  0.00    -0.264 OA
ATOM      2  N   UNL     1      32.122  -8.318 -22.476  0.00  0.00    -0.152 N 
ATOM      3  C   UNL     1      32.041  -7.939 -21.129  0.00  0.00    +0.344 C 
ENDROOT
BRANCH   2   4
ATOM      4  C   UNL     1      32.328  -7.344 -23.515  0.00  0.00    +0.073 C 
ATOM      5  C   UNL     1      33.612  -7.029 -23.957  0.00  0.00    -0.007 C 
ATOM      6  C   UNL     1      32.683  -5.452 -25.534  0.00  0.00    -0.022 C 
ATOM      7  C   UNL     1      33.790  -6.083 -24.966  0.00  0.00    -0.007 C 
ATOM      8  C   UNL     1      31.220  -6.713 -24.083  0.00  0.00    +0.016 C 
ATOM      9  C   UNL     1      31.398  -5.767 -25.092  0.00  0.00    -0.003 C 
ATOM     10  C   UNL     1      34.816  -7.688 -23.366  0.00  0.00    +0.032 C 
ATOM     11  C   UNL     1      32.873  -4.438 -26.611  0.00  0.00    +0.031 C 
ENDBRANCH   2   4
BRANCH   3  15
ATOM     12  F   UNL     1      32.979  -9.706 -19.833  0.00  0.00    -0.162 F 
ATOM     13  F   UNL     1      31.297  -8.623 -18.979  0.00  0.00    -0.162 F 
ATOM     14  F   UNL     1      30.962 -10.007 -20.623  0.00  0.00    -0.162 F 
ATOM     15  C   UNL     1      31.823  -9.069 -20.151  0.00  0.00    +0.472 C 
ENDBRANCH   3  15
BRANCH   2  16
ATOM     16  N   UNL     1      31.997  -9.654 -22.766  0.00  0.00    -0.170 NA
ATOM     17  C   UNL     1      33.077 -10.239 -23.207  0.00  0.00    +0.118 C 
BRANCH  17  18
ATOM     18  C   UNL     1      33.121 -11.653 -23.548  0.00  0.00    +0.024 C 
ATOM     19  C   UNL     1      32.691 -12.607 -22.627  0.00  0.00    +0.038 C 
ATOM     20  C   UNL     1      33.593 -12.053 -24.799  0.00  0.00    +0.002 C 
ATOM     21  C   UNL     1      32.733 -13.962 -22.956  0.00  0.00    +0.139 C 
ATOM     22  C   UNL     1      33.634 -13.408 -25.127  0.00  0.00    +0.003 C 
ATOM     23  C   UNL     1      33.204 -14.362 -24.206  0.00  0.00    +0.037 C 
BRANCH  21  24
ATOM     24  O   UNL     1      32.312 -14.894 -22.056  0.00  0.00    -0.471 OA
ATOM     25  C   UNL     1      32.752 -14.739 -20.708  0.00  0.00    +0.252 C 
ENDBRANCH  21  24
ENDBRANCH  17  18
ENDBRANCH   2  16
TORSDOF 5
ENDMDL
MODEL 6
REMARK VINA RESULT:      -9.1      1.853      6.672
REMARK  Name = 25229652
REMARK  5 active torsions:
REMARK  status: ('A' for Active; 'I' for Inactive)
REMARK    1  A    between atoms: N_2  and  C_4
REMARK    2  A    between atoms: N_2  and  N_16
REMARK    3  A    between atoms: C_3  and  C_15
REMARK    4  A    between atoms: C_17  and  C_18
REMARK    5  A    between atoms: C_21  and  O_24
REMARK                            x       y       z     vdW  Elec       q    Type
REMARK                         _______ _______ _______ _____ _____    ______ ____
ROOT
ATOM      1  O   UNL     1      33.703 -15.619 -25.078  0.00  0.00    -0.264 OA
ATOM      2  N   UNL     1      34.060 -16.291 -22.858  0.00  0.00    -0.152 N 
ATOM      3  C   UNL     1      34.146 -16.418 -24.251  0.00  0.00    +0.344 C 
ENDROOT
BRANCH   2   4
ATOM      4  C   UNL     1      33.440 -15.144 -22.249  0.00  0.00    +0.073 C 
ATOM      5  C   UNL     1      33.691 -14.818 -20.917  0.00  0.00    -0.007 C 
ATOM      6  C   UNL     1      32.220 -12.911 -21.107  0.00  0.00    -0.022 C 
ATOM      7  C   UNL     1      33.081 -13.702 -20.345  0.00  0.00    -0.007 C 
ATOM      8  C   UNL     1      32.579 -14.354 -23.011  0.00  0.00    +0.016 C 
ATOM      9  C   UNL     1      31.969 -13.237 -22.439  0.00  0.00    -0.003 C 
ATOM     10  C   UNL     1      34.607 -15.648 -20.077  0.00  0.00    +0.032 C 
ATOM     11  C   UNL     1      31.566 -11.719 -20.495  0.00  0.00    +0.031 C 
ENDBRANCH   2   4
BRANCH   3  15
ATOM     12  F   UNL     1      33.982 -18.740 -24.767  0.00  0.00    -0.162 F 
ATOM     13  F   UNL     1      35.286 -17.527 -26.016  0.00  0.00    -0.162 F 
ATOM     14  F   UNL     1      35.894 -18.021 -23.987  0.00  0.00    -0.162 F 
ATOM     15  C   UNL     1      34.823 -17.674 -24.746  0.00  0.00    +0.472 C 
ENDBRANCH   3  15
BRANCH   2  16
ATOM     16  N   UNL     1      34.592 -17.303 -22.097  0.00  0.00    -0.170 NA
ATOM     17  C   UNL     1      33.764 -18.260 -21.774  0.00  0.00    +0.118 C 
BRANCH  17  18
ATOM     18  C   UNL     1      34.167 -19.412 -20.983  0.00  0.00    +0.024 C 
ATOM     19  C   UNL     1      33.202 -20.206 -20.362  0.00  0.00    +0.038 C 
ATOM     20  C   UNL     1      35.520 -19.723 -20.845  0.00  0.00    +0.002 C 
ATOM     21  C   UNL     1      33.590 -21.310 -19.604  0.00  0.00    +0.139 C 
ATOM     22  C   UNL     1      35.907 -20.828 -20.088  0.00  0.00    +0.003 C 
ATOM     23  C   UNL     1      34.943 -21.622 -19.467  0.00  0.00    +0.037 C 
BRANCH  21  24
ATOM     24  O   UNL     1      32.648 -22.084 -18.999  0.00  0.00    -0.471 OA
ATOM     25  C   UNL     1      33.067 -22.853 -17.872  0.00  0.00    +0.252 C 
ENDBRANCH  21  24
ENDBRANCH  17  18
ENDBRANCH   2  16
TORSDOF 5
ENDMDL
MODEL 7
REMARK VINA RESULT:      -8.9      7.166     10.097
REMARK  Name = 25229652
REMARK  5 active torsions:
REMARK  status: ('A' for Active; 'I' for Inactive)
REMARK    1  A    between atoms: N_2  and  C_4
REMARK    2  A    between atoms: N_2  and  N_16
REMARK    3  A    between atoms: C_3  and  C_15
REMARK    4  A    between atoms: C_17  and  C_18
REMARK    5  A    between atoms: C_21  and  O_24
REMARK                            x       y       z     vdW  Elec       q    Type
REMARK                         _______ _______ _______ _____ _____    ______ ____
ROOT
ATOM      1  O   UNL     1      34.194 -24.671 -12.725  0.00  0.00    -0.264 OA
ATOM      2  N   UNL     1      35.138 -24.131 -14.805  0.00  0.00    -0.152 N 
ATOM      3  C   UNL     1      34.104 -24.202 -13.862  0.00  0.00    +0.344 C 
ENDROOT
BRANCH   2   4
ATOM      4  C   UNL     1      36.463 -24.598 -14.498  0.00  0.00    +0.073 C 
ATOM      5  C   UNL     1      36.909 -25.838 -14.955  0.00  0.00    -0.007 C 
ATOM      6  C   UNL     1      39.042 -25.466 -13.883  0.00  0.00    -0.022 C 
ATOM      7  C   UNL     1      38.198 -26.272 -14.647  0.00  0.00    -0.007 C 
ATOM      8  C   UNL     1      37.307 -23.791 -13.734  0.00  0.00    +0.016 C 
ATOM      9  C   UNL     1      38.597 -24.226 -13.426  0.00  0.00    -0.003 C 
ATOM     10  C   UNL     1      36.027 -26.722 -15.774  0.00  0.00    +0.032 C 
ATOM     11  C   UNL     1      40.419 -25.932 -13.551  0.00  0.00    +0.031 C 
ENDBRANCH   2   4
BRANCH   3  15
ATOM     12  F   UNL     1      32.847 -22.399 -14.784  0.00  0.00    -0.162 F 
ATOM     13  F   UNL     1      32.260 -24.417 -15.343  0.00  0.00    -0.162 F 
ATOM     14  F   UNL     1      31.833 -23.689 -13.339  0.00  0.00    -0.162 F 
ATOM     15  C   UNL     1      32.767 -23.674 -14.324  0.00  0.00    +0.472 C 
ENDBRANCH   3  15
BRANCH   2  16
ATOM     16  N   UNL     1      34.837 -23.596 -16.034  0.00  0.00    -0.170 NA
ATOM     17  C   UNL     1      35.718 -22.763 -16.517  0.00  0.00    +0.118 C 
BRANCH  17  18
ATOM     18  C   UNL     1      35.560 -22.117 -17.811  0.00  0.00    +0.024 C 
ATOM     19  C   UNL     1      34.294 -22.010 -18.389  0.00  0.00    +0.038 C 
ATOM     20  C   UNL     1      36.675 -21.604 -18.475  0.00  0.00    +0.002 C 
ATOM     21  C   UNL     1      34.144 -21.391 -19.629  0.00  0.00    +0.139 C 
ATOM     22  C   UNL     1      36.524 -20.985 -19.715  0.00  0.00    +0.003 C 
ATOM     23  C   UNL     1      35.258 -20.878 -20.292  0.00  0.00    +0.037 C 
BRANCH  21  24
ATOM     24  O   UNL     1      32.909 -21.287 -20.192  0.00  0.00    -0.471 OA
ATOM     25  C   UNL     1      32.561 -20.027 -20.764  0.00  0.00    +0.252 C 
ENDBRANCH  21  24
ENDBRANCH  17  18
ENDBRANCH   2  16
TORSDOF 5
ENDMDL
MODEL 8
REMARK VINA RESULT:      -8.7      5.332     10.806
REMARK  Name = 25229652
REMARK  5 active torsions:
REMARK  status: ('A' for Active; 'I' for Inactive)
REMARK    1  A    between atoms: N_2  and  C_4
REMARK    2  A    between atoms: N_2  and  N_16
REMARK    3  A    between atoms: C_3  and  C_15
REMARK    4  A    between atoms: C_17  and  C_18
REMARK    5  A    between atoms: C_21  and  O_24
REMARK                            x       y       z     vdW  Elec       q    Type
REMARK                         _______ _______ _______ _____ _____    ______ ____
ROOT
ATOM      1  O   UNL     1      32.720  -6.337 -21.172  0.00  0.00    -0.264 OA
ATOM      2  N   UNL     1      32.629  -7.968 -22.857  0.00  0.00    -0.152 N 
ATOM      3  C   UNL     1      32.495  -7.490 -21.547  0.00  0.00    +0.344 C 
ENDROOT
BRANCH   2   4
ATOM      4  C   UNL     1      33.034  -7.102 -23.931  0.00  0.00    +0.073 C 
ATOM      5  C   UNL     1      32.120  -6.247 -24.545  0.00  0.00    -0.007 C 
ATOM      6  C   UNL     1      33.861  -5.436 -26.010  0.00  0.00    -0.022 C 
ATOM      7  C   UNL     1      32.532  -5.414 -25.585  0.00  0.00    -0.007 C 
ATOM      8  C   UNL     1      34.363  -7.125 -24.357  0.00  0.00    +0.016 C 
ATOM      9  C   UNL     1      34.776  -6.292 -25.397  0.00  0.00    -0.003 C 
ATOM     10  C   UNL     1      30.691  -6.203 -24.111  0.00  0.00    +0.032 C 
ATOM     11  C   UNL     1      34.302  -4.548 -27.124  0.00  0.00    +0.031 C 
ENDBRANCH   2   4
BRANCH   3  15
ATOM     12  F   UNL     1      31.495  -7.942 -19.431  0.00  0.00    -0.162 F 
ATOM     13  F   UNL     1      31.136  -9.369 -21.032  0.00  0.00    -0.162 F 
ATOM     14  F   UNL     1      33.094  -9.281 -20.088  0.00  0.00    -0.162 F 
ATOM     15  C   UNL     1      32.062  -8.513 -20.524  0.00  0.00    +0.472 C 
ENDBRANCH   3  15
BRANCH   2  16
ATOM     16  N   UNL     1      32.357  -9.297 -23.076  0.00  0.00    -0.170 NA
ATOM     17  C   UNL     1      33.386 -10.039 -23.385  0.00  0.00    +0.118 C 
BRANCH  17  18
ATOM     18  C   UNL     1      33.275 -11.468 -23.636  0.00  0.00    +0.024 C 
ATOM     19  C   UNL     1      32.732 -12.308 -22.664  0.00  0.00    +0.038 C 
ATOM     20  C   UNL     1      33.712 -11.998 -24.850  0.00  0.00    +0.002 C 
ATOM     21  C   UNL     1      32.626 -13.677 -22.905  0.00  0.00    +0.139 C 
ATOM     22  C   UNL     1      33.606 -13.367 -25.091  0.00  0.00    +0.003 C 
ATOM     23  C   UNL     1      33.063 -14.207 -24.119  0.00  0.00    +0.037 C 
BRANCH  21  24
ATOM     24  O   UNL     1      32.096 -14.497 -21.956  0.00  0.00    -0.471 OA
ATOM     25  C   UNL     1      32.935 -15.535 -21.452  0.00  0.00    +0.252 C 
ENDBRANCH  21  24
ENDBRANCH  17  18
ENDBRANCH   2  16
TORSDOF 5
ENDMDL
MODEL 9
REMARK VINA RESULT:      -8.7      2.082      2.889
REMARK  Name = 25229652
REMARK  5 active torsions:
REMARK  status: ('A' for Active; 'I' for Inactive)
REMARK    1  A    between atoms: N_2  and  C_4
REMARK    2  A    between atoms: N_2  and  N_16
REMARK    3  A    between atoms: C_3  and  C_15
REMARK    4  A    between atoms: C_17  and  C_18
REMARK    5  A    between atoms: C_21  and  O_24
REMARK                            x       y       z     vdW  Elec       q    Type
REMARK                         _______ _______ _______ _____ _____    ______ ____
ROOT
ATOM      1  O   UNL     1      34.012 -16.549 -25.893  0.00  0.00    -0.264 OA
ATOM      2  N   UNL     1      34.003 -15.481 -23.803  0.00  0.00    -0.152 N 
ATOM      3  C   UNL     1      33.818 -15.555 -25.191  0.00  0.00    +0.344 C 
ENDROOT
BRANCH   2   4
ATOM      4  C   UNL     1      34.429 -16.625 -23.044  0.00  0.00    +0.073 C 
ATOM      5  C   UNL     1      34.834 -16.493 -21.716  0.00  0.00    -0.007 C 
ATOM      6  C   UNL     1      35.247 -18.871 -21.605  0.00  0.00    -0.022 C 
ATOM      7  C   UNL     1      35.243 -17.615 -20.996  0.00  0.00    -0.007 C 
ATOM      8  C   UNL     1      34.433 -17.881 -23.653  0.00  0.00    +0.016 C 
ATOM      9  C   UNL     1      34.843 -19.003 -22.933  0.00  0.00    -0.003 C 
ATOM     10  C   UNL     1      34.841 -15.161 -21.039  0.00  0.00    +0.032 C 
ATOM     11  C   UNL     1      35.687 -20.070 -20.836  0.00  0.00    +0.031 C 
ENDBRANCH   2   4
BRANCH   3  15
ATOM     12  F   UNL     1      33.983 -13.181 -25.335  0.00  0.00    -0.162 F 
ATOM     13  F   UNL     1      33.647 -14.274 -27.185  0.00  0.00    -0.162 F 
ATOM     14  F   UNL     1      32.030 -14.074 -25.743  0.00  0.00    -0.162 F 
ATOM     15  C   UNL     1      33.369 -14.275 -25.854  0.00  0.00    +0.472 C 
ENDBRANCH   3  15
BRANCH   2  16
ATOM     16  N   UNL     1      33.760 -14.272 -23.197  0.00  0.00    -0.170 NA
ATOM     17  C   UNL     1      32.575 -14.137 -22.666  0.00  0.00    +0.118 C 
BRANCH  17  18
ATOM     18  C   UNL     1      32.159 -12.926 -21.975  0.00  0.00    +0.024 C 
ATOM     19  C   UNL     1      31.884 -11.767 -22.701  0.00  0.00    +0.038 C 
ATOM     20  C   UNL     1      32.035 -12.925 -20.586  0.00  0.00    +0.002 C 
ATOM     21  C   UNL     1      31.485 -10.607 -22.037  0.00  0.00    +0.139 C 
ATOM     22  C   UNL     1      31.635 -11.765 -19.923  0.00  0.00    +0.003 C 
ATOM     23  C   UNL     1      31.360 -10.606 -20.648  0.00  0.00    +0.037 C 
BRANCH  21  24
ATOM     24  O   UNL     1      31.216  -9.476 -22.746  0.00  0.00    -0.471 OA
ATOM     25  C   UNL     1      32.291  -8.907 -23.492  0.00  0.00    +0.252 C 
ENDBRANCH  21  24
ENDBRANCH  17  18
ENDBRANCH   2  16
TORSDOF 5
ENDMDL
