MODEL 1
REMARK VINA RESULT:      -3.6      0.000      0.000
REMARK  Name = 641237
REMARK  2 active torsions:
REMARK  status: ('A' for Active; 'I' for Inactive)
REMARK    1  A    between atoms: C_1  and  C_4
REMARK    2  A    between atoms: C_1  and  O_5
REMARK                            x       y       z     vdW  Elec       q    Type
REMARK                         _______ _______ _______ _____ _____    ______ ____
ROOT
ATOM      1  C   UNL     1      41.191 -15.937 -15.530  0.00  0.00    +0.122 C 
ATOM      2  C   UNL     1      41.709 -16.791 -16.680  0.00  0.00    +0.033 C 
ENDROOT
BRANCH   1   4
ATOM      3 BR   UNL     1      41.331 -14.285 -17.859  0.00  0.00    -0.078 Br
ATOM      4  C   UNL     1      41.161 -14.468 -15.921  0.00  0.00    +0.097 C 
ENDBRANCH   1   4
BRANCH   1   5
ATOM      5  O   UNL     1      39.864 -16.358 -15.220  0.00  0.00    -0.384 OA
ATOM      6  H   UNL     1      39.779 -16.475 -14.260  0.00  0.00    +0.210 HD
ENDBRANCH   1   5
TORSDOF 2
ENDMDL
MODEL 2
REMARK VINA RESULT:      -3.4      9.488      9.858
REMARK  Name = 641237
REMARK  2 active torsions:
REMARK  status: ('A' for Active; 'I' for Inactive)
REMARK    1  A    between atoms: C_1  and  C_4
REMARK    2  A    between atoms: C_1  and  O_5
REMARK                            x       y       z     vdW  Elec       q    Type
REMARK                         _______ _______ _______ _____ _____    ______ ____
ROOT
ATOM      1  C   UNL     1      33.572 -21.979 -19.508  0.00  0.00    +0.122 C 
ATOM      2  C   UNL     1      33.285 -20.590 -20.063  0.00  0.00    +0.033 C 
ENDROOT
BRANCH   1   4
ATOM      3 BR   UNL     1      36.223 -20.998 -19.929  0.00  0.00    -0.078 Br
ATOM      4  C   UNL     1      34.950 -22.030 -18.867  0.00  0.00    +0.097 C 
ENDBRANCH   1   4
BRANCH   1   5
ATOM      5  O   UNL     1      32.591 -22.278 -18.516  0.00  0.00    -0.384 OA
ATOM      6  H   UNL     1      32.867 -23.062 -18.015  0.00  0.00    +0.210 HD
ENDBRANCH   1   5
TORSDOF 2
ENDMDL
MODEL 3
REMARK VINA RESULT:      -3.4      8.694      9.023
REMARK  Name = 641237
REMARK  2 active torsions:
REMARK  status: ('A' for Active; 'I' for Inactive)
REMARK    1  A    between atoms: C_1  and  C_4
REMARK    2  A    between atoms: C_1  and  O_5
REMARK                            x       y       z     vdW  Elec       q    Type
REMARK                         _______ _______ _______ _____ _____    ______ ____
ROOT
ATOM      1  C   UNL     1      35.581 -19.317 -21.308  0.00  0.00    +0.122 C 
ATOM      2  C   UNL     1      35.872 -20.449 -20.331  0.00  0.00    +0.033 C 
ENDROOT
BRANCH   1   4
ATOM      3 BR   UNL     1      32.982 -20.207 -20.515  0.00  0.00    -0.078 Br
ATOM      4  C   UNL     1      34.169 -19.432 -21.860  0.00  0.00    +0.097 C 
ENDBRANCH   1   4
BRANCH   1   5
ATOM      5  O   UNL     1      35.703 -18.079 -20.611  0.00  0.00    -0.384 OA
ATOM      6  H   UNL     1      34.946 -17.968 -20.015  0.00  0.00    +0.210 HD
ENDBRANCH   1   5
TORSDOF 2
ENDMDL
MODEL 4
REMARK VINA RESULT:      -3.4     14.642     14.845
REMARK  Name = 641237
REMARK  2 active torsions:
REMARK  status: ('A' for Active; 'I' for Inactive)
REMARK    1  A    between atoms: C_1  and  C_4
REMARK    2  A    between atoms: C_1  and  O_5
REMARK                            x       y       z     vdW  Elec       q    Type
REMARK                         _______ _______ _______ _____ _____    ______ ____
ROOT
ATOM      1  C   UNL     1      28.401 -23.244 -16.740  0.00  0.00    +0.122 C 
ATOM      2  C   UNL     1      27.418 -22.421 -15.916  0.00  0.00    +0.033 C 
ENDROOT
BRANCH   1   4
ATOM      3 BR   UNL     1      30.657 -23.007 -15.000  0.00  0.00    -0.078 Br
ATOM      4  C   UNL     1      29.274 -24.103 -15.839  0.00  0.00    +0.097 C 
ENDBRANCH   1   4
BRANCH   1   5
ATOM      5  O   UNL     1      27.656 -24.096 -17.607  0.00  0.00    -0.384 OA
ATOM      6  H   UNL     1      28.135 -24.930 -17.730  0.00  0.00    +0.210 HD
ENDBRANCH   1   5
TORSDOF 2
ENDMDL
MODEL 5
REMARK VINA RESULT:      -3.3      8.825      9.027
REMARK  Name = 641237
REMARK  2 active torsions:
REMARK  status: ('A' for Active; 'I' for Inactive)
REMARK    1  A    between atoms: C_1  and  C_4
REMARK    2  A    between atoms: C_1  and  O_5
REMARK                            x       y       z     vdW  Elec       q    Type
REMARK                         _______ _______ _______ _____ _____    ______ ____
ROOT
ATOM      1  C   UNL     1      34.866 -17.156 -22.965  0.00  0.00    +0.122 C 
ATOM      2  C   UNL     1      35.285 -18.512 -23.518  0.00  0.00    +0.033 C 
ENDROOT
BRANCH   1   4
ATOM      3 BR   UNL     1      34.400 -15.404 -20.755  0.00  0.00    -0.078 Br
ATOM      4  C   UNL     1      35.044 -17.110 -21.456  0.00  0.00    +0.097 C 
ENDBRANCH   1   4
BRANCH   1   5
ATOM      5  O   UNL     1      35.691 -16.154 -23.557  0.00  0.00    -0.384 OA
ATOM      6  H   UNL     1      36.371 -16.578 -24.104  0.00  0.00    +0.210 HD
ENDBRANCH   1   5
TORSDOF 2
ENDMDL
MODEL 6
REMARK VINA RESULT:      -3.3     11.956     12.525
REMARK  Name = 641237
REMARK  2 active torsions:
REMARK  status: ('A' for Active; 'I' for Inactive)
REMARK    1  A    between atoms: C_1  and  C_4
REMARK    2  A    between atoms: C_1  and  O_5
REMARK                            x       y       z     vdW  Elec       q    Type
REMARK                         _______ _______ _______ _____ _____    ______ ____
ROOT
ATOM      1  C   UNL     1      32.129  -7.574 -20.216  0.00  0.00    +0.122 C 
ATOM      2  C   UNL     1      31.988  -6.568 -21.350  0.00  0.00    +0.033 C 
ENDROOT
BRANCH   1   4
ATOM      3 BR   UNL     1      31.634 -10.259 -19.368  0.00  0.00    -0.078 Br
ATOM      4  C   UNL     1      32.174  -8.995 -20.756  0.00  0.00    +0.097 C 
ENDBRANCH   1   4
BRANCH   1   5
ATOM      5  O   UNL     1      33.349  -7.306 -19.526  0.00  0.00    -0.384 OA
ATOM      6  H   UNL     1      33.834  -6.605 -19.990  0.00  0.00    +0.210 HD
ENDBRANCH   1   5
TORSDOF 2
ENDMDL
MODEL 7
REMARK VINA RESULT:      -3.3      9.461      9.781
REMARK  Name = 641237
REMARK  2 active torsions:
REMARK  status: ('A' for Active; 'I' for Inactive)
REMARK    1  A    between atoms: C_1  and  C_4
REMARK    2  A    between atoms: C_1  and  O_5
REMARK                            x       y       z     vdW  Elec       q    Type
REMARK                         _______ _______ _______ _____ _____    ______ ____
ROOT
ATOM      1  C   UNL     1      34.326 -21.984 -19.128  0.00  0.00    +0.122 C 
ATOM      2  C   UNL     1      35.704 -21.646 -19.682  0.00  0.00    +0.033 C 
ENDROOT
BRANCH   1   4
ATOM      3 BR   UNL     1      34.096 -19.758 -20.905  0.00  0.00    -0.078 Br
ATOM      4  C   UNL     1      33.263 -21.085 -19.739  0.00  0.00    +0.097 C 
ENDBRANCH   1   4
BRANCH   1   5
ATOM      5  O   UNL     1      34.028 -23.339 -19.459  0.00  0.00    -0.384 OA
ATOM      6  H   UNL     1      34.674 -23.925 -19.034  0.00  0.00    +0.210 HD
ENDBRANCH   1   5
TORSDOF 2
ENDMDL
MODEL 8
REMARK VINA RESULT:      -3.3      9.662      9.954
REMARK  Name = 641237
REMARK  2 active torsions:
REMARK  status: ('A' for Active; 'I' for Inactive)
REMARK    1  A    between atoms: C_1  and  C_4
REMARK    2  A    between atoms: C_1  and  O_5
REMARK                            x       y       z     vdW  Elec       q    Type
REMARK                         _______ _______ _______ _____ _____    ______ ____
ROOT
ATOM      1  C   UNL     1      34.880 -17.283 -23.622  0.00  0.00    +0.122 C 
ATOM      2  C   UNL     1      34.586 -17.658 -25.069  0.00  0.00    +0.033 C 
ENDROOT
BRANCH   1   4
ATOM      3 BR   UNL     1      34.563 -19.205 -21.530  0.00  0.00    -0.078 Br
ATOM      4  C   UNL     1      35.659 -18.388 -22.926  0.00  0.00    +0.097 C 
ENDBRANCH   1   4
BRANCH   1   5
ATOM      5  O   UNL     1      35.665 -16.092 -23.617  0.00  0.00    -0.384 OA
ATOM      6  H   UNL     1      36.602 -16.324 -23.517  0.00  0.00    +0.210 HD
ENDBRANCH   1   5
TORSDOF 2
ENDMDL
MODEL 9
REMARK VINA RESULT:      -3.2      9.232      9.412
REMARK  Name = 641237
REMARK  2 active torsions:
REMARK  status: ('A' for Active; 'I' for Inactive)
REMARK    1  A    between atoms: C_1  and  C_4
REMARK    2  A    between atoms: C_1  and  O_5
REMARK                            x       y       z     vdW  Elec       q    Type
REMARK                         _______ _______ _______ _____ _____    ______ ____
ROOT
ATOM      1  C   UNL     1      34.513 -19.911 -21.181  0.00  0.00    +0.122 C 
ATOM      2  C   UNL     1      33.169 -20.120 -20.494  0.00  0.00    +0.033 C 
ENDROOT
BRANCH   1   4
ATOM      3 BR   UNL     1      34.880 -18.930 -23.840  0.00  0.00    -0.078 Br
ATOM      4  C   UNL     1      34.528 -18.598 -21.947  0.00  0.00    +0.097 C 
ENDBRANCH   1   4
BRANCH   1   5
ATOM      5  O   UNL     1      35.528 -19.871 -20.179  0.00  0.00    -0.384 OA
ATOM      6  H   UNL     1      35.891 -20.761 -20.053  0.00  0.00    +0.210 HD
ENDBRANCH   1   5
TORSDOF 2
ENDMDL
