MODEL 1
REMARK VINA RESULT:      -9.8      0.000      0.000
REMARK  Name = 5288616
REMARK  5 active torsions:
REMARK  status: ('A' for Active; 'I' for Inactive)
REMARK    1  A    between atoms: N_1  and  C_20
REMARK    2  A    between atoms: C_9  and  C_19
REMARK    3  A    between atoms: N_10  and  C_12
REMARK    4  A    between atoms: C_20  and  C_21
REMARK    5  A    between atoms: C_21  and  N_22
REMARK                            x       y       z     vdW  Elec       q    Type
REMARK                         _______ _______ _______ _____ _____    ______ ____
ROOT
ATOM      1  N   UNL     1      31.974 -12.056 -21.821  0.00  0.00    -0.263 N 
ATOM      2  N   UNL     1      32.403 -13.589 -20.281  0.00  0.00    -0.240 NA
ATOM      3  N   UNL     1      33.414 -15.499 -23.284  0.00  0.00    -0.315 NA
ATOM      4  N   UNL     1      32.621 -13.256 -23.827  0.00  0.00    -0.315 NA
ATOM      5  C   UNL     1      33.210 -15.300 -21.959  0.00  0.00    +0.215 C 
ATOM      6  C   UNL     1      32.707 -14.077 -21.528  0.00  0.00    +0.167 C 
ATOM      7  C   UNL     1      32.444 -13.129 -22.503  0.00  0.00    +0.219 C 
ATOM      8  C   UNL     1      31.963 -12.366 -20.496  0.00  0.00    +0.222 C 
ATOM      9  C   UNL     1      33.110 -14.480 -24.123  0.00  0.00    +0.215 C 
ATOM     10  N   UNL     1      33.505 -16.320 -21.038  0.00  0.00    -0.308 N 
ATOM     11  H   UNL     1      33.348 -16.149 -20.082  0.00  0.00    +0.149 HD
ENDROOT
BRANCH  10  12
ATOM     12  C   UNL     1      34.030 -17.611 -21.430  0.00  0.00    +0.071 C 
ATOM     13  C   UNL     1      35.513 -17.698 -21.062  0.00  0.00    +0.020 C 
ATOM     14  C   UNL     1      33.220 -18.717 -20.751  0.00  0.00    +0.020 C 
ATOM     15  C   UNL     1      36.085 -19.080 -21.368  0.00  0.00    +0.002 C 
ATOM     16  C   UNL     1      33.795 -20.098 -21.055  0.00  0.00    +0.002 C 
ATOM     17  C   UNL     1      35.275 -20.184 -20.694  0.00  0.00    +0.000 C 
ENDBRANCH  10  12
BRANCH   9  19
ATOM     18  N   UNL     1      33.527 -14.943 -26.638  0.00  0.00    -0.178 NA
ATOM     19  C   UNL     1      33.339 -14.734 -25.505  0.00  0.00    +0.198 C 
ENDBRANCH   9  19
BRANCH   1  20
ATOM     20  C   UNL     1      31.549 -10.784 -22.396  0.00  0.00    +0.072 C 
BRANCH  20  21
ATOM     21  C   UNL     1      31.951  -9.600 -21.521  0.00  0.00    -0.056 C 
BRANCH  21  22
ATOM     22  N   UNL     1      31.530  -8.347 -22.145  0.00  0.00    +0.385 N 
ATOM     23  N   UNL     1      31.970  -6.019 -23.803  0.00  0.00    +0.383 N 
ATOM     24  C   UNL     1      32.363  -7.229 -21.684  0.00  0.00    -0.101 C 
ATOM     25  C   UNL     1      31.578  -8.451 -23.609  0.00  0.00    -0.101 C 
ATOM     26  C   UNL     1      31.924  -5.915 -22.338  0.00  0.00    -0.101 C 
ATOM     27  C   UNL     1      31.138  -7.137 -24.263  0.00  0.00    -0.101 C 
ATOM     28  C   UNL     1      31.547  -4.766 -24.425  0.00  0.00    -0.101 C 
ATOM     29  H   UNL     1      30.565  -8.165 -21.867  0.00  0.00    -0.080 HD
ATOM     30  H   UNL     1      32.934  -6.200 -24.082  0.00  0.00    -0.080 HD
ENDBRANCH  21  22
ENDBRANCH  20  21
ENDBRANCH   1  20
TORSDOF 5
ENDMDL
MODEL 2
REMARK VINA RESULT:      -9.7      2.027      9.345
REMARK  Name = 5288616
REMARK  5 active torsions:
REMARK  status: ('A' for Active; 'I' for Inactive)
REMARK    1  A    between atoms: N_1  and  C_20
REMARK    2  A    between atoms: C_9  and  C_19
REMARK    3  A    between atoms: N_10  and  C_12
REMARK    4  A    between atoms: C_20  and  C_21
REMARK    5  A    between atoms: C_21  and  N_22
REMARK                            x       y       z     vdW  Elec       q    Type
REMARK                         _______ _______ _______ _____ _____    ______ ____
ROOT
ATOM      1  N   UNL     1      33.107 -14.158 -23.098  0.00  0.00    -0.263 N 
ATOM      2  N   UNL     1      31.956 -12.785 -21.798  0.00  0.00    -0.240 NA
ATOM      3  N   UNL     1      33.554 -10.278 -23.999  0.00  0.00    -0.315 NA
ATOM      4  N   UNL     1      34.185 -12.564 -24.575  0.00  0.00    -0.315 NA
ATOM      5  C   UNL     1      32.765 -10.703 -22.982  0.00  0.00    +0.215 C 
ATOM      6  C   UNL     1      32.660 -12.067 -22.732  0.00  0.00    +0.167 C 
ATOM      7  C   UNL     1      33.387 -12.913 -23.555  0.00  0.00    +0.219 C 
ATOM      8  C   UNL     1      32.250 -14.044 -22.048  0.00  0.00    +0.222 C 
ATOM      9  C   UNL     1      34.206 -11.221 -24.721  0.00  0.00    +0.215 C 
ATOM     10  N   UNL     1      32.063  -9.772 -22.197  0.00  0.00    -0.308 N 
ATOM     11  H   UNL     1      31.496 -10.108 -21.466  0.00  0.00    +0.149 HD
ENDROOT
BRANCH  10  12
ATOM     12  C   UNL     1      32.134  -8.343 -22.413  0.00  0.00    +0.071 C 
ATOM     13  C   UNL     1      31.039  -7.914 -23.394  0.00  0.00    +0.020 C 
ATOM     14  C   UNL     1      31.997  -7.618 -21.073  0.00  0.00    +0.020 C 
ATOM     15  C   UNL     1      31.013  -6.398 -23.576  0.00  0.00    +0.002 C 
ATOM     16  C   UNL     1      31.969  -6.103 -21.257  0.00  0.00    +0.002 C 
ATOM     17  C   UNL     1      30.882  -5.675 -22.238  0.00  0.00    +0.000 C 
ENDBRANCH  10  12
BRANCH   9  19
ATOM     18  N   UNL     1      35.697 -10.326 -26.641  0.00  0.00    -0.178 NA
ATOM     19  C   UNL     1      35.025 -10.729 -25.776  0.00  0.00    +0.198 C 
ENDBRANCH   9  19
BRANCH   1  20
ATOM     20  C   UNL     1      33.630 -15.412 -23.632  0.00  0.00    +0.072 C 
BRANCH  20  21
ATOM     21  C   UNL     1      34.886 -15.867 -22.893  0.00  0.00    -0.056 C 
BRANCH  21  22
ATOM     22  N   UNL     1      34.748 -17.261 -22.476  0.00  0.00    +0.385 N 
ATOM     23  N   UNL     1      34.979 -19.410 -20.557  0.00  0.00    +0.383 N 
ATOM     24  C   UNL     1      36.055 -17.831 -22.124  0.00  0.00    -0.101 C 
ATOM     25  C   UNL     1      33.818 -17.377 -21.347  0.00  0.00    -0.101 C 
ATOM     26  C   UNL     1      35.912 -19.292 -21.685  0.00  0.00    -0.101 C 
ATOM     27  C   UNL     1      33.674 -18.839 -20.909  0.00  0.00    -0.101 C 
ATOM     28  C   UNL     1      34.842 -20.805 -20.142  0.00  0.00    -0.101 C 
ATOM     29  H   UNL     1      34.368 -17.788 -23.262  0.00  0.00    -0.080 HD
ATOM     30  H   UNL     1      35.359 -18.883 -19.770  0.00  0.00    -0.080 HD
ENDBRANCH  21  22
ENDBRANCH  20  21
ENDBRANCH   1  20
TORSDOF 5
ENDMDL
MODEL 3
REMARK VINA RESULT:      -9.6      5.815      9.988
REMARK  Name = 5288616
REMARK  5 active torsions:
REMARK  status: ('A' for Active; 'I' for Inactive)
REMARK    1  A    between atoms: N_1  and  C_20
REMARK    2  A    between atoms: C_9  and  C_19
REMARK    3  A    between atoms: N_10  and  C_12
REMARK    4  A    between atoms: C_20  and  C_21
REMARK    5  A    between atoms: C_21  and  N_22
REMARK                            x       y       z     vdW  Elec       q    Type
REMARK                         _______ _______ _______ _____ _____    ______ ____
ROOT
ATOM      1  N   UNL     1      34.815 -20.792 -20.252  0.00  0.00    -0.263 N 
ATOM      2  N   UNL     1      32.786 -21.487 -19.704  0.00  0.00    -0.240 NA
ATOM      3  N   UNL     1      34.655 -22.868 -16.827  0.00  0.00    -0.315 NA
ATOM      4  N   UNL     1      36.098 -21.672 -18.390  0.00  0.00    -0.315 NA
ATOM      5  C   UNL     1      33.556 -22.619 -17.578  0.00  0.00    +0.215 C 
ATOM      6  C   UNL     1      33.692 -21.890 -18.755  0.00  0.00    +0.167 C 
ATOM      7  C   UNL     1      34.969 -21.463 -19.084  0.00  0.00    +0.219 C 
ATOM      8  C   UNL     1      33.499 -20.827 -20.593  0.00  0.00    +0.222 C 
ATOM      9  C   UNL     1      35.841 -22.386 -17.272  0.00  0.00    +0.215 C 
ATOM     10  N   UNL     1      32.298 -23.092 -17.168  0.00  0.00    -0.308 N 
ATOM     11  H   UNL     1      31.516 -22.897 -17.732  0.00  0.00    +0.149 HD
ENDROOT
BRANCH  10  12
ATOM     12  C   UNL     1      32.098 -23.854 -15.954  0.00  0.00    +0.071 C 
ATOM     13  C   UNL     1      32.297 -22.947 -14.737  0.00  0.00    +0.020 C 
ATOM     14  C   UNL     1      30.698 -24.472 -15.965  0.00  0.00    +0.020 C 
ATOM     15  C   UNL     1      31.999 -23.684 -13.434  0.00  0.00    +0.002 C 
ATOM     16  C   UNL     1      30.401 -25.207 -14.660  0.00  0.00    +0.002 C 
ATOM     17  C   UNL     1      30.605 -24.306 -13.447  0.00  0.00    +0.000 C 
ENDBRANCH  10  12
BRANCH   9  19
ATOM     18  N   UNL     1      37.892 -22.908 -15.778  0.00  0.00    -0.178 NA
ATOM     19  C   UNL     1      36.968 -22.673 -16.452  0.00  0.00    +0.198 C 
ENDBRANCH   9  19
BRANCH   1  20
ATOM     20  C   UNL     1      35.873 -20.142 -21.020  0.00  0.00    +0.072 C 
BRANCH  20  21
ATOM     21  C   UNL     1      35.811 -18.622 -20.903  0.00  0.00    -0.056 C 
BRANCH  21  22
ATOM     22  N   UNL     1      35.013 -18.065 -21.994  0.00  0.00    +0.385 N 
ATOM     23  N   UNL     1      34.674 -16.479 -24.387  0.00  0.00    +0.383 N 
ATOM     24  C   UNL     1      35.012 -16.597 -21.942  0.00  0.00    -0.101 C 
ATOM     25  C   UNL     1      35.511 -18.531 -23.294  0.00  0.00    -0.101 C 
ATOM     26  C   UNL     1      34.178 -16.011 -23.086  0.00  0.00    -0.101 C 
ATOM     27  C   UNL     1      34.676 -17.945 -24.438  0.00  0.00    -0.101 C 
ATOM     28  C   UNL     1      33.875 -15.921 -25.477  0.00  0.00    -0.101 C 
ATOM     29  H   UNL     1      34.053 -18.391 -21.881  0.00  0.00    -0.080 HD
ATOM     30  H   UNL     1      35.633 -16.152 -24.501  0.00  0.00    -0.080 HD
ENDBRANCH  21  22
ENDBRANCH  20  21
ENDBRANCH   1  20
TORSDOF 5
ENDMDL
MODEL 4
REMARK VINA RESULT:      -9.5      2.100      3.080
REMARK  Name = 5288616
REMARK  5 active torsions:
REMARK  status: ('A' for Active; 'I' for Inactive)
REMARK    1  A    between atoms: N_1  and  C_20
REMARK    2  A    between atoms: C_9  and  C_19
REMARK    3  A    between atoms: N_10  and  C_12
REMARK    4  A    between atoms: C_20  and  C_21
REMARK    5  A    between atoms: C_21  and  N_22
REMARK                            x       y       z     vdW  Elec       q    Type
REMARK                         _______ _______ _______ _____ _____    ______ ____
ROOT
ATOM      1  N   UNL     1      31.553 -10.099 -22.378  0.00  0.00    -0.263 N 
ATOM      2  N   UNL     1      31.556 -12.188 -21.645  0.00  0.00    -0.240 NA
ATOM      3  N   UNL     1      34.197 -12.483 -24.218  0.00  0.00    -0.315 NA
ATOM      4  N   UNL     1      33.277 -10.228 -24.079  0.00  0.00    -0.315 NA
ATOM      5  C   UNL     1      33.379 -12.928 -23.233  0.00  0.00    +0.215 C 
ATOM      6  C   UNL     1      32.487 -12.039 -22.642  0.00  0.00    +0.167 C 
ATOM      7  C   UNL     1      32.498 -10.735 -23.112  0.00  0.00    +0.219 C 
ATOM      8  C   UNL     1      31.010 -10.997 -21.512  0.00  0.00    +0.222 C 
ATOM      9  C   UNL     1      34.097 -11.180 -24.575  0.00  0.00    +0.215 C 
ATOM     10  N   UNL     1      33.437 -14.270 -22.819  0.00  0.00    -0.308 N 
ATOM     11  H   UNL     1      32.832 -14.566 -22.101  0.00  0.00    +0.149 HD
ENDROOT
BRANCH  10  12
ATOM     12  C   UNL     1      34.344 -15.237 -23.398  0.00  0.00    +0.071 C 
ATOM     13  C   UNL     1      34.600 -16.367 -22.398  0.00  0.00    +0.020 C 
ATOM     14  C   UNL     1      33.754 -15.771 -24.704  0.00  0.00    +0.020 C 
ATOM     15  C   UNL     1      35.475 -17.462 -23.003  0.00  0.00    +0.002 C 
ATOM     16  C   UNL     1      34.629 -16.867 -25.306  0.00  0.00    +0.002 C 
ATOM     17  C   UNL     1      34.889 -17.992 -24.309  0.00  0.00    +0.000 C 
ENDBRANCH  10  12
BRANCH   9  19
ATOM     18  N   UNL     1      35.693 -10.414 -26.466  0.00  0.00    -0.178 NA
ATOM     19  C   UNL     1      34.974 -10.759 -25.614  0.00  0.00    +0.198 C 
ENDBRANCH   9  19
BRANCH   1  20
ATOM     20  C   UNL     1      31.173  -8.694 -22.489  0.00  0.00    +0.072 C 
BRANCH  20  21
ATOM     21  C   UNL     1      32.216  -7.770 -21.868  0.00  0.00    -0.056 C 
BRANCH  21  22
ATOM     22  N   UNL     1      32.255  -6.498 -22.587  0.00  0.00    +0.385 N 
ATOM     23  N   UNL     1      31.196  -4.562 -24.455  0.00  0.00    +0.383 N 
ATOM     24  C   UNL     1      32.324  -6.721 -24.037  0.00  0.00    -0.101 C 
ATOM     25  C   UNL     1      31.088  -5.673 -22.250  0.00  0.00    -0.101 C 
ATOM     26  C   UNL     1      32.362  -5.389 -24.792  0.00  0.00    -0.101 C 
ATOM     27  C   UNL     1      31.128  -4.340 -23.006  0.00  0.00    -0.101 C 
ATOM     28  C   UNL     1      31.237  -3.289 -25.174  0.00  0.00    -0.101 C 
ATOM     29  H   UNL     1      33.096  -5.998 -22.298  0.00  0.00    -0.080 HD
ATOM     30  H   UNL     1      30.355  -5.060 -24.744  0.00  0.00    -0.080 HD
ENDBRANCH  21  22
ENDBRANCH  20  21
ENDBRANCH   1  20
TORSDOF 5
ENDMDL
MODEL 5
REMARK VINA RESULT:      -9.4      6.018     10.476
REMARK  Name = 5288616
REMARK  5 active torsions:
REMARK  status: ('A' for Active; 'I' for Inactive)
REMARK    1  A    between atoms: N_1  and  C_20
REMARK    2  A    between atoms: C_9  and  C_19
REMARK    3  A    between atoms: N_10  and  C_12
REMARK    4  A    between atoms: C_20  and  C_21
REMARK    5  A    between atoms: C_21  and  N_22
REMARK                            x       y       z     vdW  Elec       q    Type
REMARK                         _______ _______ _______ _____ _____    ______ ____
ROOT
ATOM      1  N   UNL     1      35.011 -21.152 -19.506  0.00  0.00    -0.263 N 
ATOM      2  N   UNL     1      36.826 -21.670 -18.348  0.00  0.00    -0.240 NA
ATOM      3  N   UNL     1      34.307 -23.391 -16.257  0.00  0.00    -0.315 NA
ATOM      4  N   UNL     1      33.311 -22.260 -18.177  0.00  0.00    -0.315 NA
ATOM      5  C   UNL     1      35.552 -22.989 -16.607  0.00  0.00    +0.215 C 
ATOM      6  C   UNL     1      35.716 -22.214 -17.750  0.00  0.00    +0.167 C 
ATOM      7  C   UNL     1      34.571 -21.899 -18.463  0.00  0.00    +0.219 C 
ATOM      8  C   UNL     1      36.362 -21.035 -19.405  0.00  0.00    +0.222 C 
ATOM      9  C   UNL     1      33.278 -23.007 -17.051  0.00  0.00    +0.215 C 
ATOM     10  N   UNL     1      36.659 -23.356 -15.823  0.00  0.00    -0.308 N 
ATOM     11  H   UNL     1      37.553 -23.052 -16.101  0.00  0.00    +0.149 HD
ENDROOT
BRANCH  10  12
ATOM     12  C   UNL     1      36.547 -24.161 -14.626  0.00  0.00    +0.071 C 
ATOM     13  C   UNL     1      37.210 -25.522 -14.855  0.00  0.00    +0.020 C 
ATOM     14  C   UNL     1      37.189 -23.419 -13.451  0.00  0.00    +0.020 C 
ATOM     15  C   UNL     1      37.203 -26.369 -13.585  0.00  0.00    +0.002 C 
ATOM     16  C   UNL     1      37.183 -24.269 -12.183  0.00  0.00    +0.002 C 
ATOM     17  C   UNL     1      37.838 -25.627 -12.412  0.00  0.00    +0.000 C 
ENDBRANCH  10  12
BRANCH   9  19
ATOM     18  N   UNL     1      30.931 -23.813 -16.308  0.00  0.00    -0.178 NA
ATOM     19  C   UNL     1      31.988 -23.450 -16.643  0.00  0.00    +0.198 C 
ENDBRANCH   9  19
BRANCH   1  20
ATOM     20  C   UNL     1      34.187 -20.568 -20.559  0.00  0.00    +0.072 C 
BRANCH  20  21
ATOM     21  C   UNL     1      35.032 -20.001 -21.697  0.00  0.00    -0.056 C 
BRANCH  21  22
ATOM     22  N   UNL     1      34.544 -18.677 -22.075  0.00  0.00    +0.385 N 
ATOM     23  N   UNL     1      34.922 -15.915 -22.842  0.00  0.00    +0.383 N 
ATOM     24  C   UNL     1      34.970 -17.666 -21.099  0.00  0.00    -0.101 C 
ATOM     25  C   UNL     1      35.008 -18.316 -23.421  0.00  0.00    -0.101 C 
ATOM     26  C   UNL     1      34.461 -16.276 -21.495  0.00  0.00    -0.101 C 
ATOM     27  C   UNL     1      34.497 -16.926 -23.817  0.00  0.00    -0.101 C 
ATOM     28  C   UNL     1      34.433 -14.590 -23.219  0.00  0.00    -0.101 C 
ATOM     29  H   UNL     1      33.524 -18.707 -22.083  0.00  0.00    -0.080 HD
ATOM     30  H   UNL     1      35.942 -15.884 -22.834  0.00  0.00    -0.080 HD
ENDBRANCH  21  22
ENDBRANCH  20  21
ENDBRANCH   1  20
TORSDOF 5
ENDMDL
MODEL 6
REMARK VINA RESULT:      -9.3      2.142      9.274
REMARK  Name = 5288616
REMARK  5 active torsions:
REMARK  status: ('A' for Active; 'I' for Inactive)
REMARK    1  A    between atoms: N_1  and  C_20
REMARK    2  A    between atoms: C_9  and  C_19
REMARK    3  A    between atoms: N_10  and  C_12
REMARK    4  A    between atoms: C_20  and  C_21
REMARK    5  A    between atoms: C_21  and  N_22
REMARK                            x       y       z     vdW  Elec       q    Type
REMARK                         _______ _______ _______ _____ _____    ______ ____
ROOT
ATOM      1  N   UNL     1      32.502 -13.129 -22.257  0.00  0.00    -0.263 N 
ATOM      2  N   UNL     1      31.392 -11.415 -21.404  0.00  0.00    -0.240 NA
ATOM      3  N   UNL     1      33.359  -9.603 -23.959  0.00  0.00    -0.315 NA
ATOM      4  N   UNL     1      33.821 -12.000 -23.951  0.00  0.00    -0.315 NA
ATOM      5  C   UNL     1      32.465  -9.725 -22.947  0.00  0.00    +0.215 C 
ATOM      6  C   UNL     1      32.221 -10.984 -22.409  0.00  0.00    +0.167 C 
ATOM      7  C   UNL     1      32.924 -12.046 -22.954  0.00  0.00    +0.219 C 
ATOM      8  C   UNL     1      31.587 -12.716 -21.339  0.00  0.00    +0.222 C 
ATOM      9  C   UNL     1      33.973 -10.731 -24.391  0.00  0.00    +0.215 C 
ATOM     10  N   UNL     1      31.797  -8.591 -22.456  0.00  0.00    -0.308 N 
ATOM     11  H   UNL     1      31.152  -8.708 -21.721  0.00  0.00    +0.149 HD
ENDROOT
BRANCH  10  12
ATOM     12  C   UNL     1      32.011  -7.259 -22.978  0.00  0.00    +0.071 C 
ATOM     13  C   UNL     1      31.180  -7.063 -24.249  0.00  0.00    +0.020 C 
ATOM     14  C   UNL     1      31.647  -6.227 -21.909  0.00  0.00    +0.020 C 
ATOM     15  C   UNL     1      31.298  -5.636 -24.781  0.00  0.00    +0.002 C 
ATOM     16  C   UNL     1      31.764  -4.802 -22.443  0.00  0.00    +0.002 C 
ATOM     17  C   UNL     1      30.940  -4.607 -23.712  0.00  0.00    +0.000 C 
ENDBRANCH  10  12
BRANCH   9  19
ATOM     18  N   UNL     1      35.669 -10.411 -26.323  0.00  0.00    -0.178 NA
ATOM     19  C   UNL     1      34.904 -10.555 -25.453  0.00  0.00    +0.198 C 
ENDBRANCH   9  19
BRANCH   1  20
ATOM     20  C   UNL     1      32.947 -14.507 -22.449  0.00  0.00    +0.072 C 
BRANCH  20  21
ATOM     21  C   UNL     1      34.463 -14.639 -22.330  0.00  0.00    -0.056 C 
BRANCH  21  22
ATOM     22  N   UNL     1      34.915 -15.861 -22.991  0.00  0.00    +0.385 N 
ATOM     23  N   UNL     1      34.497 -18.505 -24.084  0.00  0.00    +0.383 N 
ATOM     24  C   UNL     1      34.728 -17.026 -22.117  0.00  0.00    -0.101 C 
ATOM     25  C   UNL     1      34.210 -16.057 -24.264  0.00  0.00    -0.101 C 
ATOM     26  C   UNL     1      35.200 -18.309 -22.809  0.00  0.00    -0.101 C 
ATOM     27  C   UNL     1      34.684 -17.339 -24.956  0.00  0.00    -0.101 C 
ATOM     28  C   UNL     1      34.952 -19.727 -24.745  0.00  0.00    -0.101 C 
ATOM     29  H   UNL     1      35.912 -15.763 -23.186  0.00  0.00    -0.080 HD
ATOM     30  H   UNL     1      33.501 -18.604 -23.889  0.00  0.00    -0.080 HD
ENDBRANCH  21  22
ENDBRANCH  20  21
ENDBRANCH   1  20
TORSDOF 5
ENDMDL
MODEL 7
REMARK VINA RESULT:      -8.8      1.665      9.758
REMARK  Name = 5288616
REMARK  5 active torsions:
REMARK  status: ('A' for Active; 'I' for Inactive)
REMARK    1  A    between atoms: N_1  and  C_20
REMARK    2  A    between atoms: C_9  and  C_19
REMARK    3  A    between atoms: N_10  and  C_12
REMARK    4  A    between atoms: C_20  and  C_21
REMARK    5  A    between atoms: C_21  and  N_22
REMARK                            x       y       z     vdW  Elec       q    Type
REMARK                         _______ _______ _______ _____ _____    ______ ____
ROOT
ATOM      1  N   UNL     1      33.407 -12.985 -23.396  0.00  0.00    -0.263 N 
ATOM      2  N   UNL     1      33.502 -11.215 -24.723  0.00  0.00    -0.240 NA
ATOM      3  N   UNL     1      31.617  -9.721 -21.913  0.00  0.00    -0.315 NA
ATOM      4  N   UNL     1      32.174 -12.064 -21.521  0.00  0.00    -0.315 NA
ATOM      5  C   UNL     1      32.224  -9.730 -23.124  0.00  0.00    +0.215 C 
ATOM      6  C   UNL     1      32.825 -10.903 -23.570  0.00  0.00    +0.167 C 
ATOM      7  C   UNL     1      32.757 -12.001 -22.728  0.00  0.00    +0.219 C 
ATOM      8  C   UNL     1      33.839 -12.481 -24.583  0.00  0.00    +0.222 C 
ATOM      9  C   UNL     1      31.629 -10.871 -21.197  0.00  0.00    +0.215 C 
ATOM     10  N   UNL     1      32.245  -8.567 -23.913  0.00  0.00    -0.308 N 
ATOM     11  H   UNL     1      32.694  -8.602 -24.788  0.00  0.00    +0.149 HD
ENDROOT
BRANCH  10  12
ATOM     12  C   UNL     1      31.638  -7.321 -23.499  0.00  0.00    +0.071 C 
ATOM     13  C   UNL     1      32.513  -6.647 -22.439  0.00  0.00    +0.020 C 
ATOM     14  C   UNL     1      31.445  -6.418 -24.719  0.00  0.00    +0.020 C 
ATOM     15  C   UNL     1      31.961  -5.279 -22.044  0.00  0.00    +0.002 C 
ATOM     16  C   UNL     1      30.896  -5.050 -24.322  0.00  0.00    +0.002 C 
ATOM     17  C   UNL     1      31.764  -4.381 -23.261  0.00  0.00    +0.000 C 
ENDBRANCH  10  12
BRANCH   9  19
ATOM     18  N   UNL     1      30.444 -10.769 -18.896  0.00  0.00    -0.178 NA
ATOM     19  C   UNL     1      30.978 -10.815 -19.933  0.00  0.00    +0.198 C 
ENDBRANCH   9  19
BRANCH   1  20
ATOM     20  C   UNL     1      33.614 -14.354 -22.932  0.00  0.00    +0.072 C 
BRANCH  20  21
ATOM     21  C   UNL     1      34.551 -15.132 -23.851  0.00  0.00    -0.056 C 
BRANCH  21  22
ATOM     22  N   UNL     1      35.093 -16.295 -23.151  0.00  0.00    +0.385 N 
ATOM     23  N   UNL     1      34.830 -18.780 -21.698  0.00  0.00    +0.383 N 
ATOM     24  C   UNL     1      34.646 -16.316 -21.753  0.00  0.00    -0.101 C 
ATOM     25  C   UNL     1      34.709 -17.538 -23.831  0.00  0.00    -0.101 C 
ATOM     26  C   UNL     1      35.211 -17.536 -21.017  0.00  0.00    -0.101 C 
ATOM     27  C   UNL     1      35.277 -18.758 -23.095  0.00  0.00    -0.101 C 
ATOM     28  C   UNL     1      35.374 -19.942 -20.996  0.00  0.00    -0.101 C 
ATOM     29  H   UNL     1      36.111 -16.223 -23.162  0.00  0.00    -0.080 HD
ATOM     30  H   UNL     1      33.813 -18.853 -21.686  0.00  0.00    -0.080 HD
ENDBRANCH  21  22
ENDBRANCH  20  21
ENDBRANCH   1  20
TORSDOF 5
ENDMDL
MODEL 8
REMARK VINA RESULT:      -8.5      1.913      9.458
REMARK  Name = 5288616
REMARK  5 active torsions:
REMARK  status: ('A' for Active; 'I' for Inactive)
REMARK    1  A    between atoms: N_1  and  C_20
REMARK    2  A    between atoms: C_9  and  C_19
REMARK    3  A    between atoms: N_10  and  C_12
REMARK    4  A    between atoms: C_20  and  C_21
REMARK    5  A    between atoms: C_21  and  N_22
REMARK                            x       y       z     vdW  Elec       q    Type
REMARK                         _______ _______ _______ _____ _____    ______ ____
ROOT
ATOM      1  N   UNL     1      31.925 -12.353 -21.946  0.00  0.00    -0.263 N 
ATOM      2  N   UNL     1      30.935 -10.488 -21.284  0.00  0.00    -0.240 NA
ATOM      3  N   UNL     1      33.253  -9.046 -23.779  0.00  0.00    -0.315 NA
ATOM      4  N   UNL     1      33.469 -11.470 -23.595  0.00  0.00    -0.315 NA
ATOM      5  C   UNL     1      32.282  -9.014 -22.835  0.00  0.00    +0.215 C 
ATOM      6  C   UNL     1      31.874 -10.205 -22.244  0.00  0.00    +0.167 C 
ATOM      7  C   UNL     1      32.503 -11.364 -22.670  0.00  0.00    +0.219 C 
ATOM      8  C   UNL     1      30.993 -11.794 -21.128  0.00  0.00    +0.222 C 
ATOM      9  C   UNL     1      33.780 -10.254 -24.095  0.00  0.00    +0.215 C 
ATOM     10  N   UNL     1      31.697  -7.791 -22.465  0.00  0.00    -0.308 N 
ATOM     11  H   UNL     1      30.993  -7.797 -21.777  0.00  0.00    +0.149 HD
ENDROOT
BRANCH  10  12
ATOM     12  C   UNL     1      32.082  -6.523 -23.046  0.00  0.00    +0.071 C 
ATOM     13  C   UNL     1      31.790  -6.535 -24.549  0.00  0.00    +0.020 C 
ATOM     14  C   UNL     1      31.332  -5.391 -22.341  0.00  0.00    +0.020 C 
ATOM     15  C   UNL     1      32.089  -5.181 -25.188  0.00  0.00    +0.002 C 
ATOM     16  C   UNL     1      31.630  -4.038 -22.983  0.00  0.00    +0.002 C 
ATOM     17  C   UNL     1      31.345  -4.051 -24.481  0.00  0.00    +0.000 C 
ENDBRANCH  10  12
BRANCH   9  19
ATOM     18  N   UNL     1      35.633 -10.227 -25.906  0.00  0.00    -0.178 NA
ATOM     19  C   UNL     1      34.798 -10.239 -25.090  0.00  0.00    +0.198 C 
ENDBRANCH   9  19
BRANCH   1  20
ATOM     20  C   UNL     1      32.241 -13.777 -22.021  0.00  0.00    +0.072 C 
BRANCH  20  21
ATOM     21  C   UNL     1      33.742 -14.022 -22.146  0.00  0.00    -0.056 C 
BRANCH  21  22
ATOM     22  N   UNL     1      34.018 -15.457 -22.162  0.00  0.00    +0.385 N 
ATOM     23  N   UNL     1      35.793 -17.740 -22.121  0.00  0.00    +0.383 N 
ATOM     24  C   UNL     1      34.820 -15.820 -23.337  0.00  0.00    -0.101 C 
ATOM     25  C   UNL     1      34.700 -15.871 -20.929  0.00  0.00    -0.101 C 
ATOM     26  C   UNL     1      35.113 -17.324 -23.355  0.00  0.00    -0.101 C 
ATOM     27  C   UNL     1      34.991 -17.376 -20.947  0.00  0.00    -0.101 C 
ATOM     28  C   UNL     1      36.067 -19.175 -22.139  0.00  0.00    -0.101 C 
ATOM     29  H   UNL     1      33.126 -15.949 -22.217  0.00  0.00    -0.080 HD
ATOM     30  H   UNL     1      36.685 -17.249 -22.066  0.00  0.00    -0.080 HD
ENDBRANCH  21  22
ENDBRANCH  20  21
ENDBRANCH   1  20
TORSDOF 5
ENDMDL
MODEL 9
REMARK VINA RESULT:      -8.3     11.506     13.522
REMARK  Name = 5288616
REMARK  5 active torsions:
REMARK  status: ('A' for Active; 'I' for Inactive)
REMARK    1  A    between atoms: N_1  and  C_20
REMARK    2  A    between atoms: C_9  and  C_19
REMARK    3  A    between atoms: N_10  and  C_12
REMARK    4  A    between atoms: C_20  and  C_21
REMARK    5  A    between atoms: C_21  and  N_22
REMARK                            x       y       z     vdW  Elec       q    Type
REMARK                         _______ _______ _______ _____ _____    ______ ____
ROOT
ATOM      1  N   UNL     1      31.231 -23.577 -14.318  0.00  0.00    -0.263 N 
ATOM      2  N   UNL     1      32.855 -24.460 -13.100  0.00  0.00    -0.240 NA
ATOM      3  N   UNL     1      34.686 -24.064 -16.290  0.00  0.00    -0.315 NA
ATOM      4  N   UNL     1      32.376 -23.292 -16.437  0.00  0.00    -0.315 NA
ATOM      5  C   UNL     1      34.535 -24.414 -14.989  0.00  0.00    +0.215 C 
ATOM      6  C   UNL     1      33.304 -24.213 -14.374  0.00  0.00    +0.167 C 
ATOM      7  C   UNL     1      32.298 -23.661 -15.150  0.00  0.00    +0.219 C 
ATOM      8  C   UNL     1      31.599 -24.064 -13.102  0.00  0.00    +0.222 C 
ATOM      9  C   UNL     1      33.613 -23.533 -16.924  0.00  0.00    +0.215 C 
ATOM     10  N   UNL     1      35.612 -24.970 -14.278  0.00  0.00    -0.308 N 
ATOM     11  H   UNL     1      35.475 -25.214 -13.335  0.00  0.00    +0.149 HD
ENDROOT
BRANCH  10  12
ATOM     12  C   UNL     1      36.914 -25.200 -14.868  0.00  0.00    +0.071 C 
ATOM     13  C   UNL     1      37.689 -23.882 -14.937  0.00  0.00    +0.020 C 
ATOM     14  C   UNL     1      37.667 -26.247 -14.045  0.00  0.00    +0.020 C 
ATOM     15  C   UNL     1      39.107 -24.093 -15.462  0.00  0.00    +0.002 C 
ATOM     16  C   UNL     1      39.086 -26.456 -14.570  0.00  0.00    +0.002 C 
ATOM     17  C   UNL     1      39.857 -25.141 -14.645  0.00  0.00    +0.000 C 
ENDBRANCH  10  12
BRANCH   9  19
ATOM     18  N   UNL     1      33.986 -22.896 -19.407  0.00  0.00    -0.178 NA
ATOM     19  C   UNL     1      33.817 -23.183 -18.289  0.00  0.00    +0.198 C 
ENDBRANCH   9  19
BRANCH   1  20
ATOM     20  C   UNL     1      29.909 -23.059 -14.657  0.00  0.00    +0.072 C 
BRANCH  20  21
ATOM     21  C   UNL     1      28.972 -24.161 -15.144  0.00  0.00    -0.056 C 
BRANCH  21  22
ATOM     22  N   UNL     1      27.884 -23.585 -15.932  0.00  0.00    +0.385 N 
ATOM     23  N   UNL     1      26.659 -21.465 -17.470  0.00  0.00    +0.383 N 
ATOM     24  C   UNL     1      27.348 -22.383 -15.281  0.00  0.00    -0.101 C 
ATOM     25  C   UNL     1      28.336 -23.271 -17.293  0.00  0.00    -0.101 C 
ATOM     26  C   UNL     1      26.209 -21.777 -16.107  0.00  0.00    -0.101 C 
ATOM     27  C   UNL     1      27.196 -22.666 -18.120  0.00  0.00    -0.101 C 
ATOM     28  C   UNL     1      25.570 -20.890 -18.257  0.00  0.00    -0.101 C 
ATOM     29  H   UNL     1      27.138 -24.278 -15.993  0.00  0.00    -0.080 HD
ATOM     30  H   UNL     1      27.405 -20.771 -17.410  0.00  0.00    -0.080 HD
ENDBRANCH  21  22
ENDBRANCH  20  21
ENDBRANCH   1  20
TORSDOF 5
ENDMDL
