MODEL 1
REMARK VINA RESULT:      -9.1      0.000      0.000
REMARK  Name = 3608
REMARK  1 active torsions:
REMARK  status: ('A' for Active; 'I' for Inactive)
REMARK    1  A    between atoms: C_6  and  C_13
REMARK                            x       y       z     vdW  Elec       q    Type
REMARK                         _______ _______ _______ _____ _____    ______ ____
ROOT
ATOM      1  O   UNL     1      35.263 -19.570 -24.040  0.00  0.00    -0.274 OA
ATOM      2  O   UNL     1      35.382 -16.788 -20.148  0.00  0.00    -0.274 OA
ATOM      3  O   UNL     1      33.676 -15.195 -24.063  0.00  0.00    -0.252 OA
ATOM      4  N   UNL     1      34.472 -17.389 -24.088  0.00  0.00    -0.212 N 
ATOM      5  N   UNL     1      34.546 -16.051 -22.143  0.00  0.00    -0.239 N 
ATOM      6  C   UNL     1      35.490 -18.308 -22.015  0.00  0.00    +0.153 C 
ATOM      7  C   UNL     1      35.068 -18.494 -23.464  0.00  0.00    +0.243 C 
ATOM      8  C   UNL     1      37.011 -18.494 -21.935  0.00  0.00    +0.022 C 
ATOM      9  C   UNL     1      35.142 -17.001 -21.338  0.00  0.00    +0.240 C 
ATOM     10  C   UNL     1      34.197 -16.152 -23.484  0.00  0.00    +0.316 C 
ATOM     11  C   UNL     1      34.101 -17.562 -25.490  0.00  0.00    +0.124 C 
ATOM     12  H   UNL     1      34.341 -15.191 -21.710  0.00  0.00    +0.159 HD
ENDROOT
BRANCH   6  13
ATOM     13  C   UNL     1      34.767 -19.371 -21.238  0.00  0.00    -0.033 C 
ATOM     14  C   UNL     1      35.633 -20.335 -20.466  0.00  0.00    +0.023 C 
ATOM     15  C   UNL     1      34.882 -21.573 -19.970  0.00  0.00    +0.005 C 
ATOM     16  C   UNL     1      33.519 -21.200 -19.398  0.00  0.00    +0.005 C 
ATOM     17  C   UNL     1      32.664 -20.483 -20.443  0.00  0.00    +0.025 C 
ATOM     18  C   UNL     1      33.425 -19.460 -21.232  0.00  0.00    -0.034 C 
ENDBRANCH   6  13
TORSDOF 1
ENDMDL
MODEL 2
REMARK VINA RESULT:      -7.5      2.446      4.927
REMARK  Name = 3608
REMARK  1 active torsions:
REMARK  status: ('A' for Active; 'I' for Inactive)
REMARK    1  A    between atoms: C_6  and  C_13
REMARK                            x       y       z     vdW  Elec       q    Type
REMARK                         _______ _______ _______ _____ _____    ______ ____
ROOT
ATOM      1  O   UNL     1      32.720 -18.638 -20.897  0.00  0.00    -0.274 OA
ATOM      2  O   UNL     1      37.426 -18.447 -21.744  0.00  0.00    -0.274 OA
ATOM      3  O   UNL     1      35.627 -22.014 -19.549  0.00  0.00    -0.252 OA
ATOM      4  N   UNL     1      34.143 -20.334 -20.203  0.00  0.00    -0.212 N 
ATOM      5  N   UNL     1      36.460 -20.202 -20.645  0.00  0.00    -0.239 N 
ATOM      6  C   UNL     1      35.055 -18.319 -21.336  0.00  0.00    +0.153 C 
ATOM      7  C   UNL     1      33.864 -19.098 -20.803  0.00  0.00    +0.243 C 
ATOM      8  C   UNL     1      35.134 -16.989 -20.573  0.00  0.00    +0.022 C 
ATOM      9  C   UNL     1      36.417 -18.974 -21.274  0.00  0.00    +0.240 C 
ATOM     10  C   UNL     1      35.412 -20.925 -20.090  0.00  0.00    +0.316 C 
ATOM     11  C   UNL     1      32.999 -21.063 -19.661  0.00  0.00    +0.124 C 
ATOM     12  H   UNL     1      37.350 -20.620 -20.582  0.00  0.00    +0.159 HD
ENDROOT
BRANCH   6  13
ATOM     13  C   UNL     1      34.778 -18.095 -22.796  0.00  0.00    -0.033 C 
ATOM     14  C   UNL     1      34.723 -16.658 -23.250  0.00  0.00    +0.023 C 
ATOM     15  C   UNL     1      34.123 -16.479 -24.647  0.00  0.00    +0.005 C 
ATOM     16  C   UNL     1      34.656 -17.528 -25.616  0.00  0.00    +0.005 C 
ATOM     17  C   UNL     1      34.348 -18.940 -25.118  0.00  0.00    +0.025 C 
ATOM     18  C   UNL     1      34.591 -19.118 -23.649  0.00  0.00    -0.034 C 
ENDBRANCH   6  13
TORSDOF 1
ENDMDL
MODEL 3
REMARK VINA RESULT:      -7.2      8.937     10.930
REMARK  Name = 3608
REMARK  1 active torsions:
REMARK  status: ('A' for Active; 'I' for Inactive)
REMARK    1  A    between atoms: C_6  and  C_13
REMARK                            x       y       z     vdW  Elec       q    Type
REMARK                         _______ _______ _______ _____ _____    ______ ____
ROOT
ATOM      1  O   UNL     1      36.117 -22.455 -13.310  0.00  0.00    -0.274 OA
ATOM      2  O   UNL     1      35.942 -26.420 -15.984  0.00  0.00    -0.274 OA
ATOM      3  O   UNL     1      37.432 -26.612 -11.681  0.00  0.00    -0.252 OA
ATOM      4  N   UNL     1      36.790 -24.511 -12.469  0.00  0.00    -0.212 N 
ATOM      5  N   UNL     1      36.683 -26.444 -13.822  0.00  0.00    -0.239 N 
ATOM      6  C   UNL     1      36.039 -24.307 -14.830  0.00  0.00    +0.153 C 
ATOM      7  C   UNL     1      36.310 -23.665 -13.479  0.00  0.00    +0.243 C 
ATOM      8  C   UNL     1      36.960 -23.644 -15.864  0.00  0.00    +0.022 C 
ATOM      9  C   UNL     1      36.205 -25.805 -14.949  0.00  0.00    +0.240 C 
ATOM     10  C   UNL     1      37.001 -25.894 -12.587  0.00  0.00    +0.316 C 
ATOM     11  C   UNL     1      37.081 -23.882 -11.184  0.00  0.00    +0.124 C 
ATOM     12  H   UNL     1      36.815 -27.416 -13.905  0.00  0.00    +0.159 HD
ENDROOT
BRANCH   6  13
ATOM     13  C   UNL     1      34.593 -24.034 -15.131  0.00  0.00    -0.033 C 
ATOM     14  C   UNL     1      33.610 -24.380 -14.041  0.00  0.00    +0.023 C 
ATOM     15  C   UNL     1      32.153 -24.394 -14.510  0.00  0.00    +0.005 C 
ATOM     16  C   UNL     1      31.851 -23.201 -15.410  0.00  0.00    +0.005 C 
ATOM     17  C   UNL     1      32.769 -23.190 -16.632  0.00  0.00    +0.025 C 
ATOM     18  C   UNL     1      34.197 -23.511 -16.305  0.00  0.00    -0.034 C 
ENDBRANCH   6  13
TORSDOF 1
ENDMDL
MODEL 4
REMARK VINA RESULT:      -7.1      8.859     11.776
REMARK  Name = 3608
REMARK  1 active torsions:
REMARK  status: ('A' for Active; 'I' for Inactive)
REMARK    1  A    between atoms: C_6  and  C_13
REMARK                            x       y       z     vdW  Elec       q    Type
REMARK                         _______ _______ _______ _____ _____    ______ ____
ROOT
ATOM      1  O   UNL     1      31.002  -9.245 -23.263  0.00  0.00    -0.274 OA
ATOM      2  O   UNL     1      32.732  -5.726 -20.519  0.00  0.00    -0.274 OA
ATOM      3  O   UNL     1      32.368  -9.960 -18.872  0.00  0.00    -0.252 OA
ATOM      4  N   UNL     1      31.665  -9.634 -21.074  0.00  0.00    -0.212 N 
ATOM      5  N   UNL     1      32.517  -7.869 -19.755  0.00  0.00    -0.239 N 
ATOM      6  C   UNL     1      31.758  -7.338 -22.022  0.00  0.00    +0.153 C 
ATOM      7  C   UNL     1      31.441  -8.816 -22.190  0.00  0.00    +0.243 C 
ATOM      8  C   UNL     1      30.457  -6.548 -22.224  0.00  0.00    +0.022 C 
ATOM      9  C   UNL     1      32.379  -6.890 -20.718  0.00  0.00    +0.240 C 
ATOM     10  C   UNL     1      32.189  -9.216 -19.840  0.00  0.00    +0.316 C 
ATOM     11  C   UNL     1      31.327 -11.046 -21.230  0.00  0.00    +0.124 C 
ATOM     12  H   UNL     1      32.899  -7.574 -18.897  0.00  0.00    +0.159 HD
ENDROOT
BRANCH   6  13
ATOM     13  C   UNL     1      32.767  -7.012 -23.086  0.00  0.00    -0.033 C 
ATOM     14  C   UNL     1      34.084  -7.743 -23.000  0.00  0.00    +0.023 C 
ATOM     15  C   UNL     1      35.176  -7.145 -23.891  0.00  0.00    +0.005 C 
ATOM     16  C   UNL     1      34.631  -6.786 -25.269  0.00  0.00    +0.005 C 
ATOM     17  C   UNL     1      33.477  -5.790 -25.159  0.00  0.00    +0.025 C 
ATOM     18  C   UNL     1      32.512  -6.119 -24.058  0.00  0.00    -0.034 C 
ENDBRANCH   6  13
TORSDOF 1
ENDMDL
MODEL 5
REMARK VINA RESULT:      -6.9      8.848     11.733
REMARK  Name = 3608
REMARK  1 active torsions:
REMARK  status: ('A' for Active; 'I' for Inactive)
REMARK    1  A    between atoms: C_6  and  C_13
REMARK                            x       y       z     vdW  Elec       q    Type
REMARK                         _______ _______ _______ _____ _____    ______ ____
ROOT
ATOM      1  O   UNL     1      30.952  -9.358 -23.175  0.00  0.00    -0.274 OA
ATOM      2  O   UNL     1      32.896  -5.857 -20.554  0.00  0.00    -0.274 OA
ATOM      3  O   UNL     1      32.314 -10.012 -18.773  0.00  0.00    -0.252 OA
ATOM      4  N   UNL     1      31.612  -9.715 -20.980  0.00  0.00    -0.212 N 
ATOM      5  N   UNL     1      32.571  -7.961 -19.723  0.00  0.00    -0.239 N 
ATOM      6  C   UNL     1      31.822  -7.459 -22.000  0.00  0.00    +0.153 C 
ATOM      7  C   UNL     1      31.424  -8.921 -22.119  0.00  0.00    +0.243 C 
ATOM      8  C   UNL     1      30.566  -6.604 -22.218  0.00  0.00    +0.022 C 
ATOM      9  C   UNL     1      32.478  -7.006 -20.715  0.00  0.00    +0.240 C 
ATOM     10  C   UNL     1      32.168  -9.289 -19.763  0.00  0.00    +0.316 C 
ATOM     11  C   UNL     1      31.195 -11.111 -21.089  0.00  0.00    +0.124 C 
ATOM     12  H   UNL     1      32.976  -7.661 -18.876  0.00  0.00    +0.159 HD
ENDROOT
BRANCH   6  13
ATOM     13  C   UNL     1      32.839  -7.221 -23.080  0.00  0.00    -0.033 C 
ATOM     14  C   UNL     1      32.542  -6.093 -24.036  0.00  0.00    +0.023 C 
ATOM     15  C   UNL     1      33.422  -6.104 -25.289  0.00  0.00    +0.005 C 
ATOM     16  C   UNL     1      34.876  -6.399 -24.941  0.00  0.00    +0.005 C 
ATOM     17  C   UNL     1      35.007  -7.745 -24.228  0.00  0.00    +0.025 C 
ATOM     18  C   UNL     1      33.950  -7.971 -23.188  0.00  0.00    -0.034 C 
ENDBRANCH   6  13
TORSDOF 1
ENDMDL
MODEL 6
REMARK VINA RESULT:      -6.8      8.128     10.632
REMARK  Name = 3608
REMARK  1 active torsions:
REMARK  status: ('A' for Active; 'I' for Inactive)
REMARK    1  A    between atoms: C_6  and  C_13
REMARK                            x       y       z     vdW  Elec       q    Type
REMARK                         _______ _______ _______ _____ _____    ______ ____
ROOT
ATOM      1  O   UNL     1      37.826 -22.122 -13.450  0.00  0.00    -0.274 OA
ATOM      2  O   UNL     1      36.494 -26.258 -15.454  0.00  0.00    -0.274 OA
ATOM      3  O   UNL     1      35.589 -25.433 -11.064  0.00  0.00    -0.252 OA
ATOM      4  N   UNL     1      36.720 -23.756 -12.229  0.00  0.00    -0.212 N 
ATOM      5  N   UNL     1      36.077 -25.782 -13.258  0.00  0.00    -0.239 N 
ATOM      6  C   UNL     1      37.321 -24.160 -14.607  0.00  0.00    +0.153 C 
ATOM      7  C   UNL     1      37.316 -23.246 -13.391  0.00  0.00    +0.243 C 
ATOM      8  C   UNL     1      38.782 -24.442 -14.983  0.00  0.00    +0.022 C 
ATOM      9  C   UNL     1      36.601 -25.485 -14.500  0.00  0.00    +0.240 C 
ATOM     10  C   UNL     1      36.099 -25.009 -12.105  0.00  0.00    +0.316 C 
ATOM     11  C   UNL     1      36.748 -22.887 -11.055  0.00  0.00    +0.124 C 
ATOM     12  H   UNL     1      35.629 -26.656 -13.180  0.00  0.00    +0.159 HD
ENDROOT
BRANCH   6  13
ATOM     13  C   UNL     1      36.614 -23.400 -15.693  0.00  0.00    -0.033 C 
ATOM     14  C   UNL     1      37.483 -22.544 -16.580  0.00  0.00    +0.023 C 
ATOM     15  C   UNL     1      36.694 -21.555 -17.441  0.00  0.00    +0.005 C 
ATOM     16  C   UNL     1      35.460 -22.212 -18.049  0.00  0.00    +0.005 C 
ATOM     17  C   UNL     1      34.542 -22.767 -16.959  0.00  0.00    +0.025 C 
ATOM     18  C   UNL     1      35.282 -23.479 -15.866  0.00  0.00    -0.034 C 
ENDBRANCH   6  13
TORSDOF 1
ENDMDL
MODEL 7
REMARK VINA RESULT:      -6.7      8.522     11.509
REMARK  Name = 3608
REMARK  1 active torsions:
REMARK  status: ('A' for Active; 'I' for Inactive)
REMARK    1  A    between atoms: C_6  and  C_13
REMARK                            x       y       z     vdW  Elec       q    Type
REMARK                         _______ _______ _______ _____ _____    ______ ____
ROOT
ATOM      1  O   UNL     1      31.331  -9.205 -21.607  0.00  0.00    -0.274 OA
ATOM      2  O   UNL     1      35.093  -7.098 -23.682  0.00  0.00    -0.274 OA
ATOM      3  O   UNL     1      34.177 -11.487 -24.498  0.00  0.00    -0.252 OA
ATOM      4  N   UNL     1      32.736 -10.375 -23.036  0.00  0.00    -0.212 N 
ATOM      5  N   UNL     1      34.580  -9.295 -24.042  0.00  0.00    -0.239 N 
ATOM      6  C   UNL     1      33.211  -8.000 -22.478  0.00  0.00    +0.153 C 
ATOM      7  C   UNL     1      32.334  -9.233 -22.329  0.00  0.00    +0.243 C 
ATOM      8  C   UNL     1      33.769  -7.643 -21.092  0.00  0.00    +0.022 C 
ATOM      9  C   UNL     1      34.372  -8.068 -23.445  0.00  0.00    +0.240 C 
ATOM     10  C   UNL     1      33.845 -10.464 -23.893  0.00  0.00    +0.316 C 
ATOM     11  C   UNL     1      31.909 -11.566 -22.862  0.00  0.00    +0.124 C 
ATOM     12  H   UNL     1      35.350  -9.348 -24.654  0.00  0.00    +0.159 HD
ENDROOT
BRANCH   6  13
ATOM     13  C   UNL     1      32.311  -6.917 -23.000  0.00  0.00    -0.033 C 
ATOM     14  C   UNL     1      32.003  -5.790 -22.046  0.00  0.00    +0.023 C 
ATOM     15  C   UNL     1      30.842  -4.902 -22.500  0.00  0.00    +0.005 C 
ATOM     16  C   UNL     1      30.935  -4.589 -23.989  0.00  0.00    +0.005 C 
ATOM     17  C   UNL     1      30.935  -5.873 -24.819  0.00  0.00    +0.025 C 
ATOM     18  C   UNL     1      31.807  -6.950 -24.247  0.00  0.00    -0.034 C 
ENDBRANCH   6  13
TORSDOF 1
ENDMDL
MODEL 8
REMARK VINA RESULT:      -6.7      2.580      4.958
REMARK  Name = 3608
REMARK  1 active torsions:
REMARK  status: ('A' for Active; 'I' for Inactive)
REMARK    1  A    between atoms: C_6  and  C_13
REMARK                            x       y       z     vdW  Elec       q    Type
REMARK                         _______ _______ _______ _____ _____    ______ ____
ROOT
ATOM      1  O   UNL     1      37.111 -18.696 -21.887  0.00  0.00    -0.274 OA
ATOM      2  O   UNL     1      32.355 -19.200 -21.731  0.00  0.00    -0.274 OA
ATOM      3  O   UNL     1      35.015 -21.599 -18.914  0.00  0.00    -0.252 OA
ATOM      4  N   UNL     1      36.099 -20.160 -20.399  0.00  0.00    -0.212 N 
ATOM      5  N   UNL     1      33.747 -20.375 -20.352  0.00  0.00    -0.239 N 
ATOM      6  C   UNL     1      34.724 -18.874 -22.021  0.00  0.00    +0.153 C 
ATOM      7  C   UNL     1      36.085 -19.221 -21.440  0.00  0.00    +0.243 C 
ATOM      8  C   UNL     1      34.724 -19.277 -23.503  0.00  0.00    +0.022 C 
ATOM      9  C   UNL     1      33.500 -19.479 -21.372  0.00  0.00    +0.240 C 
ATOM     10  C   UNL     1      34.970 -20.770 -19.827  0.00  0.00    +0.316 C 
ATOM     11  C   UNL     1      37.411 -20.516 -19.867  0.00  0.00    +0.124 C 
ATOM     12  H   UNL     1      32.952 -20.789 -19.944  0.00  0.00    +0.159 HD
ENDROOT
BRANCH   6  13
ATOM     13  C   UNL     1      34.577 -17.387 -21.860  0.00  0.00    -0.033 C 
ATOM     14  C   UNL     1      34.388 -16.596 -23.130  0.00  0.00    +0.023 C 
ATOM     15  C   UNL     1      34.571 -15.087 -22.944  0.00  0.00    +0.005 C 
ATOM     16  C   UNL     1      33.886 -14.599 -21.674  0.00  0.00    +0.005 C 
ATOM     17  C   UNL     1      34.433 -15.322 -20.443  0.00  0.00    +0.025 C 
ATOM     18  C   UNL     1      34.611 -16.796 -20.652  0.00  0.00    -0.034 C 
ENDBRANCH   6  13
TORSDOF 1
ENDMDL
MODEL 9
REMARK VINA RESULT:      -6.6      8.749     11.037
REMARK  Name = 3608
REMARK  1 active torsions:
REMARK  status: ('A' for Active; 'I' for Inactive)
REMARK    1  A    between atoms: C_6  and  C_13
REMARK                            x       y       z     vdW  Elec       q    Type
REMARK                         _______ _______ _______ _____ _____    ______ ____
ROOT
ATOM      1  O   UNL     1      36.642 -22.601 -15.085  0.00  0.00    -0.274 OA
ATOM      2  O   UNL     1      36.254 -25.422 -11.239  0.00  0.00    -0.274 OA
ATOM      3  O   UNL     1      32.594 -24.501 -13.794  0.00  0.00    -0.252 OA
ATOM      4  N   UNL     1      34.606 -23.525 -14.464  0.00  0.00    -0.212 N 
ATOM      5  N   UNL     1      34.460 -24.915 -12.560  0.00  0.00    -0.239 N 
ATOM      6  C   UNL     1      36.633 -23.914 -13.079  0.00  0.00    +0.153 C 
ATOM      7  C   UNL     1      35.978 -23.287 -14.300  0.00  0.00    +0.243 C 
ATOM      8  C   UNL     1      37.180 -22.781 -12.199  0.00  0.00    +0.022 C 
ATOM      9  C   UNL     1      35.791 -24.817 -12.207  0.00  0.00    +0.240 C 
ATOM     10  C   UNL     1      33.803 -24.317 -13.627  0.00  0.00    +0.316 C 
ATOM     11  C   UNL     1      33.975 -22.892 -15.618  0.00  0.00    +0.124 C 
ATOM     12  H   UNL     1      33.904 -25.484 -11.979  0.00  0.00    +0.159 HD
ENDROOT
BRANCH   6  13
ATOM     13  C   UNL     1      37.742 -24.778 -13.608  0.00  0.00    -0.033 C 
ATOM     14  C   UNL     1      37.353 -25.791 -14.657  0.00  0.00    +0.023 C 
ATOM     15  C   UNL     1      38.429 -26.848 -14.916  0.00  0.00    +0.005 C 
ATOM     16  C   UNL     1      39.816 -26.219 -14.991  0.00  0.00    +0.005 C 
ATOM     17  C   UNL     1      40.150 -25.475 -13.699  0.00  0.00    +0.025 C 
ATOM     18  C   UNL     1      39.008 -24.657 -13.172  0.00  0.00    -0.034 C 
ENDBRANCH   6  13
TORSDOF 1
ENDMDL
