MODEL 1
REMARK VINA RESULT:      -7.8      0.000      0.000
REMARK  Name = 108714
REMARK  0 active torsions:
REMARK  status: ('A' for Active; 'I' for Inactive)
REMARK                            x       y       z     vdW  Elec       q    Type
REMARK                         _______ _______ _______ _____ _____    ______ ____
ROOT
ATOM      1  O   UNL     1      36.836 -27.285 -16.148  0.00  0.00    -0.246 OA
ATOM      2  O   UNL     1      33.640 -24.331 -13.067  0.00  0.00    -0.265 OA
ATOM      3  O   UNL     1      37.416 -22.403 -11.155  0.00  0.00    -0.247 OA
ATOM      4  N   UNL     1      37.720 -25.724 -14.563  0.00  0.00    -0.264 N 
ATOM      5  N   UNL     1      35.480 -25.933 -14.739  0.00  0.00    -0.300 N 
ATOM      6  N   UNL     1      37.683 -24.003 -12.798  0.00  0.00    -0.292 N 
ATOM      7  N   UNL     1      35.522 -23.354 -12.099  0.00  0.00    -0.273 N 
ATOM      8  C   UNL     1      37.107 -24.868 -13.675  0.00  0.00    +0.149 A 
ATOM      9  C   UNL     1      35.784 -25.001 -13.790  0.00  0.00    +0.150 A 
ATOM     10  C   UNL     1      36.704 -26.438 -15.277  0.00  0.00    +0.330 A 
ATOM     11  C   UNL     1      34.857 -24.219 -12.974  0.00  0.00    +0.280 A 
ATOM     12  C   UNL     1      39.142 -25.877 -14.741  0.00  0.00    +0.137 C 
ATOM     13  C   UNL     1      36.917 -23.194 -11.957  0.00  0.00    +0.328 A 
ATOM     14  H   UNL     1      34.574 -26.209 -15.007  0.00  0.00    +0.171 HD
ATOM     15  H   UNL     1      38.666 -23.946 -12.755  0.00  0.00    +0.172 HD
ATOM     16  H   UNL     1      34.956 -22.796 -11.518  0.00  0.00    +0.173 HD
ENDROOT
TORSDOF 0
ENDMDL
MODEL 2
REMARK VINA RESULT:      -7.5      2.548      3.774
REMARK  Name = 108714
REMARK  0 active torsions:
REMARK  status: ('A' for Active; 'I' for Inactive)
REMARK                            x       y       z     vdW  Elec       q    Type
REMARK                         _______ _______ _______ _____ _____    ______ ____
ROOT
ATOM      1  O   UNL     1      34.550 -22.748 -15.018  0.00  0.00    -0.246 OA
ATOM      2  O   UNL     1      37.126 -26.450 -12.174  0.00  0.00    -0.265 OA
ATOM      3  O   UNL     1      40.897 -25.709 -14.794  0.00  0.00    -0.247 OA
ATOM      4  N   UNL     1      36.828 -23.319 -15.480  0.00  0.00    -0.264 N 
ATOM      5  N   UNL     1      35.767 -24.385 -13.798  0.00  0.00    -0.300 N 
ATOM      6  N   UNL     1      38.980 -24.493 -15.217  0.00  0.00    -0.292 N 
ATOM      7  N   UNL     1      39.026 -26.090 -13.477  0.00  0.00    -0.273 N 
ATOM      8  C   UNL     1      37.686 -24.223 -14.895  0.00  0.00    +0.149 A 
ATOM      9  C   UNL     1      37.047 -24.846 -13.903  0.00  0.00    +0.150 A 
ATOM     10  C   UNL     1      35.568 -23.388 -14.802  0.00  0.00    +0.330 A 
ATOM     11  C   UNL     1      37.700 -25.869 -13.087  0.00  0.00    +0.280 A 
ATOM     12  C   UNL     1      37.143 -22.453 -16.588  0.00  0.00    +0.137 C 
ATOM     13  C   UNL     1      39.724 -25.447 -14.521  0.00  0.00    +0.328 A 
ATOM     14  H   UNL     1      35.097 -24.688 -13.144  0.00  0.00    +0.171 HD
ATOM     15  H   UNL     1      39.402 -24.003 -15.960  0.00  0.00    +0.172 HD
ATOM     16  H   UNL     1      39.526 -26.768 -12.968  0.00  0.00    +0.173 HD
ENDROOT
TORSDOF 0
ENDMDL
MODEL 3
REMARK VINA RESULT:      -7.4      1.193      2.857
REMARK  Name = 108714
REMARK  0 active torsions:
REMARK  status: ('A' for Active; 'I' for Inactive)
REMARK                            x       y       z     vdW  Elec       q    Type
REMARK                         _______ _______ _______ _____ _____    ______ ____
ROOT
ATOM      1  O   UNL     1      39.774 -26.466 -14.626  0.00  0.00    -0.246 OA
ATOM      2  O   UNL     1      37.738 -22.849 -11.279  0.00  0.00    -0.265 OA
ATOM      3  O   UNL     1      33.489 -23.946 -12.822  0.00  0.00    -0.247 OA
ATOM      4  N   UNL     1      37.417 -26.072 -14.494  0.00  0.00    -0.264 N 
ATOM      5  N   UNL     1      38.788 -24.873 -13.162  0.00  0.00    -0.300 N 
ATOM      6  N   UNL     1      35.321 -25.042 -13.704  0.00  0.00    -0.292 N 
ATOM      7  N   UNL     1      35.601 -23.388 -12.040  0.00  0.00    -0.273 N 
ATOM      8  C   UNL     1      36.671 -25.209 -13.723  0.00  0.00    +0.149 A 
ATOM      9  C   UNL     1      37.493 -24.507 -12.941  0.00  0.00    +0.150 A 
ATOM     10  C   UNL     1      38.799 -25.891 -14.166  0.00  0.00    +0.330 A 
ATOM     11  C   UNL     1      36.995 -23.502 -12.003  0.00  0.00    +0.280 A 
ATOM     12  C   UNL     1      36.895 -26.998 -15.467  0.00  0.00    +0.137 C 
ATOM     13  C   UNL     1      34.709 -24.116 -12.857  0.00  0.00    +0.328 A 
ATOM     14  H   UNL     1      39.579 -24.501 -12.709  0.00  0.00    +0.171 HD
ATOM     15  H   UNL     1      34.761 -25.586 -14.304  0.00  0.00    +0.172 HD
ATOM     16  H   UNL     1      35.198 -22.728 -11.432  0.00  0.00    +0.173 HD
ENDROOT
TORSDOF 0
ENDMDL
MODEL 4
REMARK VINA RESULT:      -7.4      1.552      4.874
REMARK  Name = 108714
REMARK  0 active torsions:
REMARK  status: ('A' for Active; 'I' for Inactive)
REMARK                            x       y       z     vdW  Elec       q    Type
REMARK                         _______ _______ _______ _____ _____    ______ ____
ROOT
ATOM      1  O   UNL     1      37.147 -22.775 -10.647  0.00  0.00    -0.246 OA
ATOM      2  O   UNL     1      40.448 -25.134 -14.108  0.00  0.00    -0.265 OA
ATOM      3  O   UNL     1      36.775 -27.233 -16.040  0.00  0.00    -0.247 OA
ATOM      4  N   UNL     1      36.334 -24.268 -12.332  0.00  0.00    -0.264 N 
ATOM      5  N   UNL     1      38.552 -23.865 -12.225  0.00  0.00    -0.300 N 
ATOM      6  N   UNL     1      36.442 -25.816 -14.247  0.00  0.00    -0.292 N 
ATOM      7  N   UNL     1      38.617 -26.193 -15.089  0.00  0.00    -0.273 N 
ATOM      8  C   UNL     1      36.979 -24.981 -13.318  0.00  0.00    +0.149 A 
ATOM      9  C   UNL     1      38.288 -24.734 -13.243  0.00  0.00    +0.150 A 
ATOM     10  C   UNL     1      37.314 -23.527 -11.596  0.00  0.00    +0.330 A 
ATOM     11  C   UNL     1      39.243 -25.350 -14.164  0.00  0.00    +0.280 A 
ATOM     12  C   UNL     1      34.915 -24.268 -12.083  0.00  0.00    +0.137 C 
ATOM     13  C   UNL     1      37.237 -26.472 -15.189  0.00  0.00    +0.328 A 
ATOM     14  H   UNL     1      39.440 -23.529 -11.969  0.00  0.00    +0.171 HD
ATOM     15  H   UNL     1      35.468 -25.963 -14.256  0.00  0.00    +0.172 HD
ATOM     16  H   UNL     1      39.203 -26.642 -15.741  0.00  0.00    +0.173 HD
ENDROOT
TORSDOF 0
ENDMDL
MODEL 5
REMARK VINA RESULT:      -7.3      1.563      3.914
REMARK  Name = 108714
REMARK  0 active torsions:
REMARK  status: ('A' for Active; 'I' for Inactive)
REMARK                            x       y       z     vdW  Elec       q    Type
REMARK                         _______ _______ _______ _____ _____    ______ ____
ROOT
ATOM      1  O   UNL     1      34.303 -23.956 -12.332  0.00  0.00    -0.246 OA
ATOM      2  O   UNL     1      36.692 -27.109 -15.907  0.00  0.00    -0.265 OA
ATOM      3  O   UNL     1      40.802 -25.470 -14.472  0.00  0.00    -0.247 OA
ATOM      4  N   UNL     1      36.685 -23.999 -12.568  0.00  0.00    -0.264 N 
ATOM      5  N   UNL     1      35.444 -25.332 -13.900  0.00  0.00    -0.300 N 
ATOM      6  N   UNL     1      38.871 -24.685 -13.476  0.00  0.00    -0.292 N 
ATOM      7  N   UNL     1      38.761 -26.299 -15.198  0.00  0.00    -0.273 N 
ATOM      8  C   UNL     1      37.513 -24.715 -13.402  0.00  0.00    +0.149 A 
ATOM      9  C   UNL     1      36.768 -25.499 -14.183  0.00  0.00    +0.150 A 
ATOM     10  C   UNL     1      35.330 -24.365 -12.853  0.00  0.00    +0.330 A 
ATOM     11  C   UNL     1      37.364 -26.385 -15.182  0.00  0.00    +0.280 A 
ATOM     12  C   UNL     1      37.109 -23.043 -11.576  0.00  0.00    +0.137 C 
ATOM     13  C   UNL     1      39.573 -25.480 -14.385  0.00  0.00    +0.328 A 
ATOM     14  H   UNL     1      34.696 -25.797 -14.340  0.00  0.00    +0.171 HD
ATOM     15  H   UNL     1      39.372 -24.087 -12.875  0.00  0.00    +0.172 HD
ATOM     16  H   UNL     1      39.228 -26.871 -15.849  0.00  0.00    +0.173 HD
ENDROOT
TORSDOF 0
ENDMDL
MODEL 6
REMARK VINA RESULT:      -7.3     13.338     13.615
REMARK  Name = 108714
REMARK  0 active torsions:
REMARK  status: ('A' for Active; 'I' for Inactive)
REMARK                            x       y       z     vdW  Elec       q    Type
REMARK                         _______ _______ _______ _____ _____    ______ ____
ROOT
ATOM      1  O   UNL     1      33.423 -15.310 -26.757  0.00  0.00    -0.246 OA
ATOM      2  O   UNL     1      35.444 -18.934 -23.408  0.00  0.00    -0.265 OA
ATOM      3  O   UNL     1      34.959 -15.868 -19.943  0.00  0.00    -0.247 OA
ATOM      4  N   UNL     1      33.700 -14.841 -24.427  0.00  0.00    -0.264 N 
ATOM      5  N   UNL     1      34.315 -16.869 -25.201  0.00  0.00    -0.300 N 
ATOM      6  N   UNL     1      34.315 -15.261 -22.077  0.00  0.00    -0.292 N 
ATOM      7  N   UNL     1      35.206 -17.409 -21.660  0.00  0.00    -0.273 N 
ATOM      8  C   UNL     1      34.189 -15.601 -23.388  0.00  0.00    +0.149 A 
ATOM      9  C   UNL     1      34.549 -16.797 -23.858  0.00  0.00    +0.150 A 
ATOM     10  C   UNL     1      33.762 -15.622 -25.626  0.00  0.00    +0.330 A 
ATOM     11  C   UNL     1      35.108 -17.832 -22.990  0.00  0.00    +0.280 A 
ATOM     12  C   UNL     1      33.211 -13.490 -24.325  0.00  0.00    +0.137 C 
ATOM     13  C   UNL     1      34.835 -16.153 -21.135  0.00  0.00    +0.328 A 
ATOM     14  H   UNL     1      34.497 -17.647 -25.776  0.00  0.00    +0.171 HD
ATOM     15  H   UNL     1      34.035 -14.364 -21.784  0.00  0.00    +0.172 HD
ATOM     16  H   UNL     1      35.576 -18.059 -21.019  0.00  0.00    +0.173 HD
ENDROOT
TORSDOF 0
ENDMDL
MODEL 7
REMARK VINA RESULT:      -7.2     13.281     13.533
REMARK  Name = 108714
REMARK  0 active torsions:
REMARK  status: ('A' for Active; 'I' for Inactive)
REMARK                            x       y       z     vdW  Elec       q    Type
REMARK                         _______ _______ _______ _____ _____    ______ ____
ROOT
ATOM      1  O   UNL     1      34.959 -17.146 -25.869  0.00  0.00    -0.246 OA
ATOM      2  O   UNL     1      35.365 -16.909 -20.557  0.00  0.00    -0.265 OA
ATOM      3  O   UNL     1      32.404 -13.322 -20.582  0.00  0.00    -0.247 OA
ATOM      4  N   UNL     1      33.758 -15.514 -24.594  0.00  0.00    -0.264 N 
ATOM      5  N   UNL     1      35.086 -16.974 -23.501  0.00  0.00    -0.300 N 
ATOM      6  N   UNL     1      32.990 -14.307 -22.587  0.00  0.00    -0.292 N 
ATOM      7  N   UNL     1      33.880 -15.111 -20.552  0.00  0.00    -0.273 N 
ATOM      8  C   UNL     1      33.703 -15.262 -23.242  0.00  0.00    +0.149 A 
ATOM      9  C   UNL     1      34.491 -16.132 -22.608  0.00  0.00    +0.150 A 
ATOM     10  C   UNL     1      34.644 -16.618 -24.813  0.00  0.00    +0.330 A 
ATOM     11  C   UNL     1      34.644 -16.117 -21.153  0.00  0.00    +0.280 A 
ATOM     12  C   UNL     1      33.047 -14.789 -25.616  0.00  0.00    +0.137 C 
ATOM     13  C   UNL     1      33.040 -14.178 -21.197  0.00  0.00    +0.328 A 
ATOM     14  H   UNL     1      35.710 -17.702 -23.280  0.00  0.00    +0.171 HD
ATOM     15  H   UNL     1      32.424 -13.690 -23.106  0.00  0.00    +0.172 HD
ATOM     16  H   UNL     1      33.936 -15.044 -19.571  0.00  0.00    +0.173 HD
ENDROOT
TORSDOF 0
ENDMDL
MODEL 8
REMARK VINA RESULT:      -7.2      2.609      2.869
REMARK  Name = 108714
REMARK  0 active torsions:
REMARK  status: ('A' for Active; 'I' for Inactive)
REMARK                            x       y       z     vdW  Elec       q    Type
REMARK                         _______ _______ _______ _____ _____    ______ ____
ROOT
ATOM      1  O   UNL     1      33.162 -24.014 -15.287  0.00  0.00    -0.246 OA
ATOM      2  O   UNL     1      35.116 -25.149 -10.457  0.00  0.00    -0.265 OA
ATOM      3  O   UNL     1      39.067 -23.005 -11.652  0.00  0.00    -0.247 OA
ATOM      4  N   UNL     1      35.369 -23.348 -14.643  0.00  0.00    -0.264 N 
ATOM      5  N   UNL     1      34.106 -24.481 -13.155  0.00  0.00    -0.300 N 
ATOM      6  N   UNL     1      37.341 -23.111 -13.183  0.00  0.00    -0.292 N 
ATOM      7  N   UNL     1      37.103 -24.076 -11.040  0.00  0.00    -0.273 N 
ATOM      8  C   UNL     1      36.078 -23.522 -13.476  0.00  0.00    +0.149 A 
ATOM      9  C   UNL     1      35.320 -24.193 -12.605  0.00  0.00    +0.150 A 
ATOM     10  C   UNL     1      34.081 -23.954 -14.484  0.00  0.00    +0.330 A 
ATOM     11  C   UNL     1      35.800 -24.533 -11.267  0.00  0.00    +0.280 A 
ATOM     12  C   UNL     1      35.842 -22.672 -15.824  0.00  0.00    +0.137 C 
ATOM     13  C   UNL     1      37.926 -23.367 -11.941  0.00  0.00    +0.328 A 
ATOM     14  H   UNL     1      33.373 -24.967 -12.714  0.00  0.00    +0.171 HD
ATOM     15  H   UNL     1      37.856 -22.620 -13.863  0.00  0.00    +0.172 HD
ATOM     16  H   UNL     1      37.489 -24.272 -10.155  0.00  0.00    +0.173 HD
ENDROOT
TORSDOF 0
ENDMDL
MODEL 9
REMARK VINA RESULT:      -7.1      2.581      3.491
REMARK  Name = 108714
REMARK  0 active torsions:
REMARK  status: ('A' for Active; 'I' for Inactive)
REMARK                            x       y       z     vdW  Elec       q    Type
REMARK                         _______ _______ _______ _____ _____    ______ ____
ROOT
ATOM      1  O   UNL     1      36.093 -22.904 -16.470  0.00  0.00    -0.246 OA
ATOM      2  O   UNL     1      38.592 -22.434 -11.783  0.00  0.00    -0.265 OA
ATOM      3  O   UNL     1      35.186 -24.920  -9.821  0.00  0.00    -0.247 OA
ATOM      4  N   UNL     1      35.203 -23.880 -14.474  0.00  0.00    -0.264 N 
ATOM      5  N   UNL     1      37.145 -22.740 -14.344  0.00  0.00    -0.300 N 
ATOM      6  N   UNL     1      35.090 -24.477 -12.085  0.00  0.00    -0.292 N 
ATOM      7  N   UNL     1      36.894 -23.680 -10.784  0.00  0.00    -0.273 N 
ATOM      8  C   UNL     1      35.658 -23.894 -13.175  0.00  0.00    +0.149 A 
ATOM      9  C   UNL     1      36.806 -23.217 -13.112  0.00  0.00    +0.150 A 
ATOM     10  C   UNL     1      36.135 -23.142 -15.272  0.00  0.00    +0.330 A 
ATOM     11  C   UNL     1      37.538 -23.054 -11.857  0.00  0.00    +0.280 A 
ATOM     12  C   UNL     1      33.993 -24.502 -14.950  0.00  0.00    +0.137 C 
ATOM     13  C   UNL     1      35.681 -24.401 -10.822  0.00  0.00    +0.328 A 
ATOM     14  H   UNL     1      37.947 -22.210 -14.557  0.00  0.00    +0.171 HD
ATOM     15  H   UNL     1      34.240 -24.964 -12.189  0.00  0.00    +0.172 HD
ATOM     16  H   UNL     1      37.334 -23.610  -9.906  0.00  0.00    +0.173 HD
ENDROOT
TORSDOF 0
ENDMDL
