MODEL 1
REMARK VINA RESULT:     -12.2      0.000      0.000
REMARK  Name = 93184
REMARK  8 active torsions:
REMARK  status: ('A' for Active; 'I' for Inactive)
REMARK    1  A    between atoms: C_1  and  C_2
REMARK    2  A    between atoms: C_1  and  C_10
REMARK    3  A    between atoms: C_1  and  C_27
REMARK    4  A    between atoms: N_9  and  CA_18
REMARK    5  A    between atoms: CA_17  and  C_23
REMARK    6  A    between atoms: C_23  and  O_24
REMARK    7  A    between atoms: C_27  and  O_28
REMARK    8  A    between atoms: O_28  and  C_35
REMARK                            x       y       z     vdW  Elec       q    Type
REMARK                         _______ _______ _______ _____ _____    ______ ____
ROOT
ATOM      1  C   UNL     1      32.412 -23.460 -16.766  0.00  0.00    +0.198 C 
ENDROOT
BRANCH   1   2
ATOM      2  C   UNL     1      30.991 -23.536 -16.233  0.00  0.00    -0.003 C 
ATOM      3  C   UNL     1      30.552 -24.716 -15.665  0.00  0.00    -0.003 C 
ATOM      4  C   UNL     1      30.178 -22.423 -16.331  0.00  0.00    -0.003 C 
ATOM      5  C   UNL     1      29.246 -24.787 -15.177  0.00  0.00    -0.000 C 
ATOM      6  C   UNL     1      28.874 -22.494 -15.843  0.00  0.00    -0.000 C 
ATOM      7  C   UNL     1      28.407 -23.675 -15.266  0.00  0.00    -0.000 C 
ENDBRANCH   1   2
BRANCH   1  10
ATOM      8  O   UNL     1      32.979 -22.927 -14.469  0.00  0.00    -0.274 OA
ATOM      9  N   UNL     1      34.695 -22.975 -16.029  0.00  0.00    -0.296 N 
ATOM     10  C   UNL     1      33.363 -23.090 -15.626  0.00  0.00    +0.237 C 
ATOM     11  H   UNL     1      34.914 -23.122 -16.977  0.00  0.00    +0.150 HD
BRANCH   9  18
ATOM     12  S   UNL     1      35.473 -25.380 -14.285  0.00  0.00    -0.118 S 
ATOM     13  O   UNL     1      37.792 -22.490 -16.671  0.00  0.00    -0.273 OA
ATOM     14  N   UNL     1      37.477 -23.793 -14.728  0.00  0.00    -0.260 N 
ATOM     15  C   UNL     1      36.175 -23.704 -14.060  0.00  0.00    +0.151 C 
ATOM     16  C   UNL     1      37.174 -26.139 -14.249  0.00  0.00    +0.068 C 
ATOM     17  CA  UNL     1      38.053 -25.099 -14.976  0.00  0.00    +0.184 C 
ATOM     18  CA  UNL     1      35.785 -22.646 -15.100  0.00  0.00    +0.178 C 
ATOM     19  C   UNL     1      37.195 -22.863 -15.686  0.00  0.00    +0.247 C 
ATOM     20  C   UNL     1      37.552 -26.379 -12.781  0.00  0.00    +0.013 C 
ATOM     21  C   UNL     1      37.141 -27.468 -15.006  0.00  0.00    +0.013 C 
BRANCH  17  23
ATOM     22  OXT UNL     1      39.873 -24.510 -13.503  0.00  0.00    -0.248 OA
ATOM     23  C   UNL     1      39.479 -25.044 -14.529  0.00  0.00    +0.333 C 
BRANCH  23  24
ATOM     24  O   UNL     1      40.285 -25.668 -15.423  0.00  0.00    -0.479 OA
ATOM     25  H   UNL     1      40.995 -25.202 -15.819  0.00  0.00    +0.295 HD
ENDBRANCH  23  24
ENDBRANCH  17  23
ENDBRANCH   9  18
ENDBRANCH   1  10
BRANCH   1  27
ATOM     26  O   UNL     1      31.850 -21.535 -18.155  0.00  0.00    -0.249 OA
ATOM     27  C   UNL     1      32.528 -22.538 -17.973  0.00  0.00    +0.334 C 
BRANCH  27  28
ATOM     28  O   UNL     1      33.555 -22.996 -18.798  0.00  0.00    -0.424 OA
BRANCH  28  35
ATOM     29  C   UNL     1      35.097 -18.297 -22.120  0.00  0.00    +0.009 C 
ATOM     30  C   UNL     1      33.823 -18.751 -21.392  0.00  0.00    +0.026 C 
ATOM     31  C   UNL     1      36.284 -18.733 -21.248  0.00  0.00    +0.026 C 
ATOM     32  C   UNL     1      34.323 -19.955 -20.657  0.00  0.00    -0.023 C 
ATOM     33  C   UNL     1      35.720 -19.944 -20.576  0.00  0.00    -0.026 C 
ATOM     34  C   UNL     1      33.580 -20.963 -20.065  0.00  0.00    +0.033 C 
ATOM     35  C   UNL     1      34.262 -21.979 -19.393  0.00  0.00    +0.148 C 
ATOM     36  C   UNL     1      36.403 -20.941 -19.900  0.00  0.00    -0.001 C 
ATOM     37  C   UNL     1      35.664 -21.968 -19.310  0.00  0.00    +0.037 C 
ENDBRANCH  28  35
ENDBRANCH  27  28
ENDBRANCH   1  27
TORSDOF 8
ENDMDL
MODEL 2
REMARK VINA RESULT:     -10.6      1.318      5.168
REMARK  Name = 93184
REMARK  8 active torsions:
REMARK  status: ('A' for Active; 'I' for Inactive)
REMARK    1  A    between atoms: C_1  and  C_2
REMARK    2  A    between atoms: C_1  and  C_10
REMARK    3  A    between atoms: C_1  and  C_27
REMARK    4  A    between atoms: N_9  and  CA_18
REMARK    5  A    between atoms: CA_17  and  C_23
REMARK    6  A    between atoms: C_23  and  O_24
REMARK    7  A    between atoms: C_27  and  O_28
REMARK    8  A    between atoms: O_28  and  C_35
REMARK                            x       y       z     vdW  Elec       q    Type
REMARK                         _______ _______ _______ _____ _____    ______ ____
ROOT
ATOM      1  C   UNL     1      34.332 -22.023 -17.970  0.00  0.00    +0.198 C 
ENDROOT
BRANCH   1   2
ATOM      2  C   UNL     1      34.285 -21.219 -19.258  0.00  0.00    -0.003 C 
ATOM      3  C   UNL     1      35.462 -20.978 -19.940  0.00  0.00    -0.003 C 
ATOM      4  C   UNL     1      33.067 -20.752 -19.711  0.00  0.00    -0.003 C 
ATOM      5  C   UNL     1      35.418 -20.238 -21.122  0.00  0.00    -0.000 C 
ATOM      6  C   UNL     1      33.023 -20.013 -20.893  0.00  0.00    -0.000 C 
ATOM      7  C   UNL     1      34.199 -19.756 -21.599  0.00  0.00    -0.000 C 
ENDBRANCH   1   2
BRANCH   1  10
ATOM      8  O   UNL     1      36.620 -21.231 -17.846  0.00  0.00    -0.274 OA
ATOM      9  N   UNL     1      35.783 -22.419 -16.039  0.00  0.00    -0.296 N 
ATOM     10  C   UNL     1      35.699 -21.842 -17.307  0.00  0.00    +0.237 C 
ATOM     11  H   UNL     1      34.996 -22.891 -15.684  0.00  0.00    +0.150 HD
BRANCH   9  18
ATOM     12  S   UNL     1      35.894 -24.712 -13.999  0.00  0.00    -0.118 S 
ATOM     13  O   UNL     1      38.809 -23.059 -16.862  0.00  0.00    -0.273 OA
ATOM     14  N   UNL     1      38.256 -23.936 -14.742  0.00  0.00    -0.260 N 
ATOM     15  C   UNL     1      37.111 -23.344 -14.044  0.00  0.00    +0.151 C 
ATOM     16  C   UNL     1      37.260 -25.976 -13.920  0.00  0.00    +0.068 C 
ATOM     17  CA  UNL     1      38.363 -25.379 -14.822  0.00  0.00    +0.184 C 
ATOM     18  CA  UNL     1      36.994 -22.354 -15.210  0.00  0.00    +0.178 C 
ATOM     19  C   UNL     1      38.207 -23.091 -15.812  0.00  0.00    +0.247 C 
ATOM     20  C   UNL     1      37.663 -26.144 -12.448  0.00  0.00    +0.013 C 
ATOM     21  C   UNL     1      36.742 -27.303 -14.477  0.00  0.00    +0.013 C 
BRANCH  17  23
ATOM     22  OXT UNL     1      40.271 -26.841 -14.597  0.00  0.00    -0.248 OA
ATOM     23  C   UNL     1      39.763 -25.740 -14.442  0.00  0.00    +0.333 C 
BRANCH  23  24
ATOM     24  O   UNL     1      40.400 -24.676 -13.895  0.00  0.00    -0.479 OA
ATOM     25  H   UNL     1      39.909 -24.014 -13.450  0.00  0.00    +0.295 HD
ENDBRANCH  23  24
ENDBRANCH  17  23
ENDBRANCH   9  18
ENDBRANCH   1  10
BRANCH   1  27
ATOM     26  O   UNL     1      33.907 -24.040 -19.274  0.00  0.00    -0.249 OA
ATOM     27  C   UNL     1      33.955 -23.483 -18.185  0.00  0.00    +0.334 C 
BRANCH  27  28
ATOM     28  O   UNL     1      33.723 -24.081 -16.946  0.00  0.00    -0.424 OA
BRANCH  28  35
ATOM     29  C   UNL     1      28.146 -22.234 -15.958  0.00  0.00    +0.009 C 
ATOM     30  C   UNL     1      28.820 -23.197 -16.946  0.00  0.00    +0.026 C 
ATOM     31  C   UNL     1      28.895 -22.372 -14.624  0.00  0.00    +0.026 C 
ATOM     32  C   UNL     1      30.220 -23.224 -16.415  0.00  0.00    -0.023 C 
ATOM     33  C   UNL     1      30.261 -22.755 -15.097  0.00  0.00    -0.026 C 
ATOM     34  C   UNL     1      31.364 -23.677 -17.050  0.00  0.00    +0.033 C 
ATOM     35  C   UNL     1      32.569 -23.643 -16.344  0.00  0.00    +0.148 C 
ATOM     36  C   UNL     1      31.449 -22.730 -14.386  0.00  0.00    -0.001 C 
ATOM     37  C   UNL     1      32.611 -23.174 -15.021  0.00  0.00    +0.037 C 
ENDBRANCH  28  35
ENDBRANCH  27  28
ENDBRANCH   1  27
TORSDOF 8
ENDMDL
MODEL 3
REMARK VINA RESULT:     -10.5      2.032      6.466
REMARK  Name = 93184
REMARK  8 active torsions:
REMARK  status: ('A' for Active; 'I' for Inactive)
REMARK    1  A    between atoms: C_1  and  C_2
REMARK    2  A    between atoms: C_1  and  C_10
REMARK    3  A    between atoms: C_1  and  C_27
REMARK    4  A    between atoms: N_9  and  CA_18
REMARK    5  A    between atoms: CA_17  and  C_23
REMARK    6  A    between atoms: C_23  and  O_24
REMARK    7  A    between atoms: C_27  and  O_28
REMARK    8  A    between atoms: O_28  and  C_35
REMARK                            x       y       z     vdW  Elec       q    Type
REMARK                         _______ _______ _______ _____ _____    ______ ____
ROOT
ATOM      1  C   UNL     1      36.531 -22.912 -15.487  0.00  0.00    +0.198 C 
ENDROOT
BRANCH   1   2
ATOM      2  C   UNL     1      37.626 -23.731 -14.825  0.00  0.00    -0.003 C 
ATOM      3  C   UNL     1      37.527 -24.015 -13.477  0.00  0.00    -0.003 C 
ATOM      4  C   UNL     1      38.691 -24.169 -15.589  0.00  0.00    -0.003 C 
ATOM      5  C   UNL     1      38.534 -24.766 -12.868  0.00  0.00    -0.000 C 
ATOM      6  C   UNL     1      39.696 -24.920 -14.981  0.00  0.00    -0.000 C 
ATOM      7  C   UNL     1      39.618 -25.219 -13.621  0.00  0.00    -0.000 C 
ENDBRANCH   1   2
BRANCH   1  10
ATOM      8  O   UNL     1      35.497 -25.067 -15.893  0.00  0.00    -0.274 OA
ATOM      9  N   UNL     1      34.270 -23.162 -16.387  0.00  0.00    -0.296 N 
ATOM     10  C   UNL     1      35.404 -23.841 -15.939  0.00  0.00    +0.237 C 
ATOM     11  H   UNL     1      34.281 -22.178 -16.391  0.00  0.00    +0.150 HD
BRANCH   9  18
ATOM     12  S   UNL     1      32.547 -24.149 -14.045  0.00  0.00    -0.118 S 
ATOM     13  O   UNL     1      31.650 -21.911 -17.733  0.00  0.00    -0.273 OA
ATOM     14  N   UNL     1      31.128 -23.570 -16.137  0.00  0.00    -0.260 N 
ATOM     15  C   UNL     1      32.179 -24.533 -15.796  0.00  0.00    +0.151 C 
ATOM     16  C   UNL     1      30.784 -23.625 -13.749  0.00  0.00    +0.068 C 
ATOM     17  CA  UNL     1      30.382 -22.934 -15.070  0.00  0.00    +0.184 C 
ATOM     18  CA  UNL     1      33.058 -23.851 -16.853  0.00  0.00    +0.178 C 
ATOM     19  C   UNL     1      31.855 -22.914 -17.088  0.00  0.00    +0.247 C 
ATOM     20  C   UNL     1      29.969 -24.881 -13.413  0.00  0.00    +0.013 C 
ATOM     21  C   UNL     1      30.748 -22.646 -12.574  0.00  0.00    +0.013 C 
BRANCH  17  23
ATOM     22  OXT UNL     1      28.400 -23.999 -15.944  0.00  0.00    -0.248 OA
ATOM     23  C   UNL     1      28.933 -23.029 -15.425  0.00  0.00    +0.333 C 
BRANCH  23  24
ATOM     24  O   UNL     1      28.283 -21.886 -15.097  0.00  0.00    -0.479 OA
ATOM     25  H   UNL     1      27.891 -21.361 -15.766  0.00  0.00    +0.295 HD
ENDBRANCH  23  24
ENDBRANCH  17  23
ENDBRANCH   9  18
ENDBRANCH   1  10
BRANCH   1  27
ATOM     26  O   UNL     1      37.713 -20.999 -16.433  0.00  0.00    -0.249 OA
ATOM     27  C   UNL     1      37.067 -22.025 -16.603  0.00  0.00    +0.334 C 
BRANCH  27  28
ATOM     28  O   UNL     1      36.744 -22.596 -17.834  0.00  0.00    -0.424 OA
BRANCH  28  35
ATOM     29  C   UNL     1      33.424 -19.577 -21.752  0.00  0.00    +0.009 C 
ATOM     30  C   UNL     1      33.147 -20.375 -20.470  0.00  0.00    +0.026 C 
ATOM     31  C   UNL     1      34.769 -18.864 -21.548  0.00  0.00    +0.026 C 
ATOM     32  C   UNL     1      34.539 -20.668 -20.004  0.00  0.00    -0.023 C 
ATOM     33  C   UNL     1      35.459 -19.809 -20.617  0.00  0.00    -0.026 C 
ATOM     34  C   UNL     1      34.947 -21.602 -19.068  0.00  0.00    +0.033 C 
ATOM     35  C   UNL     1      36.306 -21.677 -18.756  0.00  0.00    +0.148 C 
ATOM     36  C   UNL     1      36.807 -19.868 -20.304  0.00  0.00    -0.001 C 
ATOM     37  C   UNL     1      37.230 -20.815 -19.370  0.00  0.00    +0.037 C 
ENDBRANCH  28  35
ENDBRANCH  27  28
ENDBRANCH   1  27
TORSDOF 8
ENDMDL
MODEL 4
REMARK VINA RESULT:     -10.4      8.305     13.149
REMARK  Name = 93184
REMARK  8 active torsions:
REMARK  status: ('A' for Active; 'I' for Inactive)
REMARK    1  A    between atoms: C_1  and  C_2
REMARK    2  A    between atoms: C_1  and  C_10
REMARK    3  A    between atoms: C_1  and  C_27
REMARK    4  A    between atoms: N_9  and  CA_18
REMARK    5  A    between atoms: CA_17  and  C_23
REMARK    6  A    between atoms: C_23  and  O_24
REMARK    7  A    between atoms: C_27  and  O_28
REMARK    8  A    between atoms: O_28  and  C_35
REMARK                            x       y       z     vdW  Elec       q    Type
REMARK                         _______ _______ _______ _____ _____    ______ ____
ROOT
ATOM      1  C   UNL     1      34.643 -15.113 -23.683  0.00  0.00    +0.198 C 
ENDROOT
BRANCH   1   2
ATOM      2  C   UNL     1      33.981 -15.089 -22.316  0.00  0.00    -0.003 C 
ATOM      3  C   UNL     1      32.609 -14.943 -22.239  0.00  0.00    -0.003 C 
ATOM      4  C   UNL     1      34.768 -15.214 -21.188  0.00  0.00    -0.003 C 
ATOM      5  C   UNL     1      32.001 -14.920 -20.984  0.00  0.00    -0.000 C 
ATOM      6  C   UNL     1      34.161 -15.191 -19.933  0.00  0.00    -0.000 C 
ATOM      7  C   UNL     1      32.777 -15.044 -19.831  0.00  0.00    -0.000 C 
ENDBRANCH   1   2
BRANCH   1  10
ATOM      8  O   UNL     1      33.274 -14.276 -25.500  0.00  0.00    -0.274 OA
ATOM      9  N   UNL     1      34.402 -12.731 -24.189  0.00  0.00    -0.296 N 
ATOM     10  C   UNL     1      34.031 -14.023 -24.565  0.00  0.00    +0.237 C 
ATOM     11  H   UNL     1      35.014 -12.620 -23.426  0.00  0.00    +0.150 HD
BRANCH   9  18
ATOM     12  S   UNL     1      31.987 -11.484 -22.761  0.00  0.00    -0.118 S 
ATOM     13  O   UNL     1      35.755  -9.835 -24.345  0.00  0.00    -0.273 OA
ATOM     14  N   UNL     1      33.422  -9.714 -24.000  0.00  0.00    -0.260 N 
ATOM     15  C   UNL     1      32.623 -10.886 -24.370  0.00  0.00    +0.151 C 
ATOM     16  C   UNL     1      31.952  -9.748 -22.086  0.00  0.00    +0.068 C 
ATOM     17  CA  UNL     1      33.200  -9.088 -22.712  0.00  0.00    +0.184 C 
ATOM     18  CA  UNL     1      33.920 -11.528 -24.881  0.00  0.00    +0.178 C 
ATOM     19  C   UNL     1      34.612 -10.226 -24.431  0.00  0.00    +0.247 C 
ATOM     20  C   UNL     1      30.619  -9.108 -22.497  0.00  0.00    +0.013 C 
ATOM     21  C   UNL     1      32.059  -9.805 -20.561  0.00  0.00    +0.013 C 
BRANCH  17  23
ATOM     22  OXT UNL     1      33.006  -7.086 -24.047  0.00  0.00    -0.248 OA
ATOM     23  C   UNL     1      33.093  -7.615 -22.950  0.00  0.00    +0.333 C 
BRANCH  23  24
ATOM     24  O   UNL     1      33.108  -6.939 -21.775  0.00  0.00    -0.479 OA
ATOM     25  H   UNL     1      32.905  -7.384 -20.976  0.00  0.00    +0.295 HD
ENDBRANCH  23  24
ENDBRANCH  17  23
ENDBRANCH   9  18
ENDBRANCH   1  10
BRANCH   1  27
ATOM     26  O   UNL     1      33.725 -16.896 -25.073  0.00  0.00    -0.249 OA
ATOM     27  C   UNL     1      34.605 -16.496 -24.320  0.00  0.00    +0.334 C 
BRANCH  27  28
ATOM     28  O   UNL     1      35.748 -17.203 -23.945  0.00  0.00    -0.424 OA
BRANCH  28  35
ATOM     29  C   UNL     1      33.147 -20.611 -19.809  0.00  0.00    +0.009 C 
ATOM     30  C   UNL     1      32.796 -20.162 -21.235  0.00  0.00    +0.026 C 
ATOM     31  C   UNL     1      34.670 -20.813 -19.771  0.00  0.00    +0.026 C 
ATOM     32  C   UNL     1      34.054 -19.459 -21.636  0.00  0.00    -0.023 C 
ATOM     33  C   UNL     1      35.118 -19.829 -20.804  0.00  0.00    -0.026 C 
ATOM     34  C   UNL     1      34.245 -18.587 -22.695  0.00  0.00    +0.033 C 
ATOM     35  C   UNL     1      35.526 -18.073 -22.906  0.00  0.00    +0.148 C 
ATOM     36  C   UNL     1      36.394 -19.335 -21.015  0.00  0.00    -0.001 C 
ATOM     37  C   UNL     1      36.593 -18.445 -22.073  0.00  0.00    +0.037 C 
ENDBRANCH  28  35
ENDBRANCH  27  28
ENDBRANCH   1  27
TORSDOF 8
ENDMDL
MODEL 5
REMARK VINA RESULT:     -10.0     10.899     14.805
REMARK  Name = 93184
REMARK  8 active torsions:
REMARK  status: ('A' for Active; 'I' for Inactive)
REMARK    1  A    between atoms: C_1  and  C_2
REMARK    2  A    between atoms: C_1  and  C_10
REMARK    3  A    between atoms: C_1  and  C_27
REMARK    4  A    between atoms: N_9  and  CA_18
REMARK    5  A    between atoms: CA_17  and  C_23
REMARK    6  A    between atoms: C_23  and  O_24
REMARK    7  A    between atoms: C_27  and  O_28
REMARK    8  A    between atoms: O_28  and  C_35
REMARK                            x       y       z     vdW  Elec       q    Type
REMARK                         _______ _______ _______ _____ _____    ______ ____
ROOT
ATOM      1  C   UNL     1      32.127  -9.843 -23.305  0.00  0.00    +0.198 C 
ENDROOT
BRANCH   1   2
ATOM      2  C   UNL     1      31.798 -10.010 -21.831  0.00  0.00    -0.003 C 
ATOM      3  C   UNL     1      32.261  -9.069 -20.931  0.00  0.00    -0.003 C 
ATOM      4  C   UNL     1      31.045 -11.097 -21.431  0.00  0.00    -0.003 C 
ATOM      5  C   UNL     1      31.960  -9.222 -19.578  0.00  0.00    -0.000 C 
ATOM      6  C   UNL     1      30.744 -11.250 -20.078  0.00  0.00    -0.000 C 
ATOM      7  C   UNL     1      31.201 -10.313 -19.151  0.00  0.00    -0.000 C 
ENDBRANCH   1   2
BRANCH   1  10
ATOM      8  O   UNL     1      34.496 -10.169 -23.704  0.00  0.00    -0.274 OA
ATOM      9  N   UNL     1      33.104 -12.018 -23.857  0.00  0.00    -0.296 N 
ATOM     10  C   UNL     1      33.372 -10.665 -23.644  0.00  0.00    +0.237 C 
ATOM     11  H   UNL     1      32.173 -12.329 -23.790  0.00  0.00    +0.150 HD
BRANCH   9  18
ATOM     12  S   UNL     1      33.778 -13.796 -21.447  0.00  0.00    -0.118 S 
ATOM     13  O   UNL     1      32.896 -14.639 -25.682  0.00  0.00    -0.273 OA
ATOM     14  N   UNL     1      34.130 -15.022 -23.706  0.00  0.00    -0.260 N 
ATOM     15  C   UNL     1      34.699 -13.853 -23.028  0.00  0.00    +0.151 C 
ATOM     16  C   UNL     1      33.607 -15.651 -21.435  0.00  0.00    +0.068 C 
ATOM     17  CA  UNL     1      33.413 -16.009 -22.925  0.00  0.00    +0.184 C 
ATOM     18  CA  UNL     1      34.150 -12.999 -24.178  0.00  0.00    +0.178 C 
ATOM     19  C   UNL     1      33.611 -14.323 -24.757  0.00  0.00    +0.247 C 
ATOM     20  C   UNL     1      34.875 -16.238 -20.799  0.00  0.00    +0.013 C 
ATOM     21  C   UNL     1      32.380 -16.032 -20.606  0.00  0.00    +0.013 C 
BRANCH  17  23
ATOM     22  OXT UNL     1      34.110 -18.294 -22.573  0.00  0.00    -0.248 OA
ATOM     23  C   UNL     1      33.929 -17.353 -23.331  0.00  0.00    +0.333 C 
BRANCH  23  24
ATOM     24  O   UNL     1      34.173 -17.389 -24.664  0.00  0.00    -0.479 OA
ATOM     25  H   UNL     1      34.430 -16.608 -25.114  0.00  0.00    +0.295 HD
ENDBRANCH  23  24
ENDBRANCH  17  23
ENDBRANCH   9  18
ENDBRANCH   1  10
BRANCH   1  27
ATOM     26  O   UNL     1      33.289  -7.810 -23.989  0.00  0.00    -0.249 OA
ATOM     27  C   UNL     1      32.241  -8.379 -23.710  0.00  0.00    +0.334 C 
BRANCH  27  28
ATOM     28  O   UNL     1      30.965  -7.818 -23.757  0.00  0.00    -0.424 OA
BRANCH  28  35
ATOM     29  C   UNL     1      31.657  -1.942 -24.444  0.00  0.00    +0.009 C 
ATOM     30  C   UNL     1      31.345  -3.122 -25.375  0.00  0.00    +0.026 C 
ATOM     31  C   UNL     1      30.954  -2.232 -23.109  0.00  0.00    +0.026 C 
ATOM     32  C   UNL     1      31.178  -4.234 -24.387  0.00  0.00    -0.023 C 
ATOM     33  C   UNL     1      30.957  -3.728 -23.101  0.00  0.00    -0.026 C 
ATOM     34  C   UNL     1      31.180  -5.598 -24.629  0.00  0.00    +0.033 C 
ATOM     35  C   UNL     1      30.966  -6.460 -23.551  0.00  0.00    +0.148 C 
ATOM     36  C   UNL     1      30.731  -4.576 -22.030  0.00  0.00    -0.001 C 
ATOM     37  C   UNL     1      30.742  -5.953 -22.261  0.00  0.00    +0.037 C 
ENDBRANCH  28  35
ENDBRANCH  27  28
ENDBRANCH   1  27
TORSDOF 8
ENDMDL
MODEL 6
REMARK VINA RESULT:     -10.0     10.777     14.670
REMARK  Name = 93184
REMARK  8 active torsions:
REMARK  status: ('A' for Active; 'I' for Inactive)
REMARK    1  A    between atoms: C_1  and  C_2
REMARK    2  A    between atoms: C_1  and  C_10
REMARK    3  A    between atoms: C_1  and  C_27
REMARK    4  A    between atoms: N_9  and  CA_18
REMARK    5  A    between atoms: CA_17  and  C_23
REMARK    6  A    between atoms: C_23  and  O_24
REMARK    7  A    between atoms: C_27  and  O_28
REMARK    8  A    between atoms: O_28  and  C_35
REMARK                            x       y       z     vdW  Elec       q    Type
REMARK                         _______ _______ _______ _____ _____    ______ ____
ROOT
ATOM      1  C   UNL     1      31.590 -10.036 -22.897  0.00  0.00    +0.198 C 
ENDROOT
BRANCH   1   2
ATOM      2  C   UNL     1      31.609 -10.060 -21.379  0.00  0.00    -0.003 C 
ATOM      3  C   UNL     1      31.193 -11.203 -20.722  0.00  0.00    -0.003 C 
ATOM      4  C   UNL     1      32.042  -8.940 -20.695  0.00  0.00    -0.003 C 
ATOM      5  C   UNL     1      31.211 -11.225 -19.327  0.00  0.00    -0.000 C 
ATOM      6  C   UNL     1      32.060  -8.963 -19.301  0.00  0.00    -0.000 C 
ATOM      7  C   UNL     1      31.644 -10.106 -18.617  0.00  0.00    -0.000 C 
ENDBRANCH   1   2
BRANCH   1  10
ATOM      8  O   UNL     1      33.846  -9.960 -23.782  0.00  0.00    -0.274 OA
ATOM      9  N   UNL     1      32.872 -12.041 -23.467  0.00  0.00    -0.296 N 
ATOM     10  C   UNL     1      32.886 -10.646 -23.433  0.00  0.00    +0.237 C 
ATOM     11  H   UNL     1      32.060 -12.511 -23.169  0.00  0.00    +0.150 HD
BRANCH   9  18
ATOM     12  S   UNL     1      33.728 -14.117 -21.373  0.00  0.00    -0.118 S 
ATOM     13  O   UNL     1      32.942 -14.328 -25.704  0.00  0.00    -0.273 OA
ATOM     14  N   UNL     1      34.208 -14.906 -23.797  0.00  0.00    -0.260 N 
ATOM     15  C   UNL     1      34.651 -13.814 -22.925  0.00  0.00    +0.151 C 
ATOM     16  C   UNL     1      33.754 -15.956 -21.672  0.00  0.00    +0.068 C 
ATOM     17  CA  UNL     1      33.599 -16.078 -23.203  0.00  0.00    +0.184 C 
ATOM     18  CA  UNL     1      34.015 -12.841 -23.927  0.00  0.00    +0.178 C 
ATOM     19  C   UNL     1      33.619 -14.099 -24.727  0.00  0.00    +0.247 C 
ATOM     20  C   UNL     1      35.076 -16.505 -21.119  0.00  0.00    +0.013 C 
ATOM     21  C   UNL     1      32.573 -16.595 -20.939  0.00  0.00    +0.013 C 
BRANCH  17  23
ATOM     22  OXT UNL     1      33.869 -18.428 -23.689  0.00  0.00    -0.248 OA
ATOM     23  C   UNL     1      34.253 -17.275 -23.818  0.00  0.00    +0.333 C 
BRANCH  23  24
ATOM     24  O   UNL     1      35.340 -16.908 -24.540  0.00  0.00    -0.479 OA
ATOM     25  H   UNL     1      35.825 -16.143 -24.300  0.00  0.00    +0.295 HD
ENDBRANCH  23  24
ENDBRANCH  17  23
ENDBRANCH   9  18
ENDBRANCH   1  10
BRANCH   1  27
ATOM     26  O   UNL     1      30.243  -8.297 -23.953  0.00  0.00    -0.249 OA
ATOM     27  C   UNL     1      31.303  -8.646 -23.450  0.00  0.00    +0.334 C 
BRANCH  27  28
ATOM     28  O   UNL     1      32.420  -7.835 -23.244  0.00  0.00    -0.424 OA
BRANCH  28  35
ATOM     29  C   UNL     1      32.474  -2.565 -26.022  0.00  0.00    +0.009 C 
ATOM     30  C   UNL     1      32.526  -4.035 -26.464  0.00  0.00    +0.026 C 
ATOM     31  C   UNL     1      31.544  -2.503 -24.801  0.00  0.00    +0.026 C 
ATOM     32  C   UNL     1      32.296  -4.737 -25.163  0.00  0.00    -0.023 C 
ATOM     33  C   UNL     1      31.739  -3.866 -24.219  0.00  0.00    -0.026 C 
ATOM     34  C   UNL     1      32.526  -6.069 -24.859  0.00  0.00    +0.033 C 
ATOM     35  C   UNL     1      32.200  -6.521 -23.579  0.00  0.00    +0.148 C 
ATOM     36  C   UNL     1      31.401  -4.310 -22.952  0.00  0.00    -0.001 C 
ATOM     37  C   UNL     1      31.640  -5.648 -22.632  0.00  0.00    +0.037 C 
ENDBRANCH  28  35
ENDBRANCH  27  28
ENDBRANCH   1  27
TORSDOF 8
ENDMDL
MODEL 7
REMARK VINA RESULT:      -9.8      8.892     13.219
REMARK  Name = 93184
REMARK  8 active torsions:
REMARK  status: ('A' for Active; 'I' for Inactive)
REMARK    1  A    between atoms: C_1  and  C_2
REMARK    2  A    between atoms: C_1  and  C_10
REMARK    3  A    between atoms: C_1  and  C_27
REMARK    4  A    between atoms: N_9  and  CA_18
REMARK    5  A    between atoms: CA_17  and  C_23
REMARK    6  A    between atoms: C_23  and  O_24
REMARK    7  A    between atoms: C_27  and  O_28
REMARK    8  A    between atoms: O_28  and  C_35
REMARK                            x       y       z     vdW  Elec       q    Type
REMARK                         _______ _______ _______ _____ _____    ______ ____
ROOT
ATOM      1  C   UNL     1      34.226 -14.081 -24.245  0.00  0.00    +0.198 C 
ENDROOT
BRANCH   1   2
ATOM      2  C   UNL     1      33.865 -14.477 -22.824  0.00  0.00    -0.003 C 
ATOM      3  C   UNL     1      34.825 -14.373 -21.835  0.00  0.00    -0.003 C 
ATOM      4  C   UNL     1      32.587 -14.930 -22.558  0.00  0.00    -0.003 C 
ATOM      5  C   UNL     1      34.493 -14.737 -20.530  0.00  0.00    -0.000 C 
ATOM      6  C   UNL     1      32.256 -15.295 -21.254  0.00  0.00    -0.000 C 
ATOM      7  C   UNL     1      33.209 -15.198 -20.239  0.00  0.00    -0.000 C 
ENDBRANCH   1   2
BRANCH   1  10
ATOM      8  O   UNL     1      33.531 -12.293 -25.728  0.00  0.00    -0.274 OA
ATOM      9  N   UNL     1      33.000 -12.106 -23.478  0.00  0.00    -0.296 N 
ATOM     10  C   UNL     1      33.566 -12.743 -24.584  0.00  0.00    +0.237 C 
ATOM     11  H   UNL     1      33.075 -12.538 -22.597  0.00  0.00    +0.150 HD
BRANCH   9  18
ATOM     12  S   UNL     1      31.470 -11.455 -20.897  0.00  0.00    -0.118 S 
ATOM     13  O   UNL     1      34.226  -9.150 -23.450  0.00  0.00    -0.273 OA
ATOM     14  N   UNL     1      32.275  -9.320 -22.132  0.00  0.00    -0.260 N 
ATOM     15  C   UNL     1      31.365 -10.435 -22.413  0.00  0.00    +0.151 C 
ATOM     16  C   UNL     1      31.775  -9.942 -19.854  0.00  0.00    +0.068 C 
ATOM     17  CA  UNL     1      32.646  -9.044 -20.759  0.00  0.00    +0.184 C 
ATOM     18  CA  UNL     1      32.297 -10.819 -23.570  0.00  0.00    +0.178 C 
ATOM     19  C   UNL     1      33.149  -9.607 -23.140  0.00  0.00    +0.247 C 
ATOM     20  C   UNL     1      30.411  -9.341 -19.484  0.00  0.00    +0.013 C 
ATOM     21  C   UNL     1      32.527 -10.354 -18.588  0.00  0.00    +0.013 C 
BRANCH  17  23
ATOM     22  OXT UNL     1      31.811  -6.832 -21.246  0.00  0.00    -0.248 OA
ATOM     23  C   UNL     1      32.484  -7.572 -20.545  0.00  0.00    +0.333 C 
BRANCH  23  24
ATOM     24  O   UNL     1      33.192  -7.165 -19.464  0.00  0.00    -0.479 OA
ATOM     25  H   UNL     1      34.099  -6.945 -19.553  0.00  0.00    +0.295 HD
ENDBRANCH  23  24
ENDBRANCH  17  23
ENDBRANCH   9  18
ENDBRANCH   1  10
BRANCH   1  27
ATOM     26  O   UNL     1      32.866 -15.275 -25.880  0.00  0.00    -0.249 OA
ATOM     27  C   UNL     1      33.912 -15.181 -25.250  0.00  0.00    +0.334 C 
BRANCH  27  28
ATOM     28  O   UNL     1      35.018 -16.023 -25.365  0.00  0.00    -0.424 OA
BRANCH  28  35
ATOM     29  C   UNL     1      35.893 -19.767 -20.814  0.00  0.00    +0.009 C 
ATOM     30  C   UNL     1      35.866 -18.241 -20.985  0.00  0.00    +0.026 C 
ATOM     31  C   UNL     1      34.828 -20.338 -21.763  0.00  0.00    +0.026 C 
ATOM     32  C   UNL     1      35.414 -18.116 -22.407  0.00  0.00    -0.023 C 
ATOM     33  C   UNL     1      34.825 -19.308 -22.848  0.00  0.00    -0.026 C 
ATOM     34  C   UNL     1      35.484 -17.006 -23.230  0.00  0.00    +0.033 C 
ATOM     35  C   UNL     1      34.961 -17.106 -24.521  0.00  0.00    +0.148 C 
ATOM     36  C   UNL     1      34.294 -19.411 -24.122  0.00  0.00    -0.001 C 
ATOM     37  C   UNL     1      34.370 -18.300 -24.964  0.00  0.00    +0.037 C 
ENDBRANCH  28  35
ENDBRANCH  27  28
ENDBRANCH   1  27
TORSDOF 8
ENDMDL
MODEL 8
REMARK VINA RESULT:      -9.7      9.957     14.427
REMARK  Name = 93184
REMARK  8 active torsions:
REMARK  status: ('A' for Active; 'I' for Inactive)
REMARK    1  A    between atoms: C_1  and  C_2
REMARK    2  A    between atoms: C_1  and  C_10
REMARK    3  A    between atoms: C_1  and  C_27
REMARK    4  A    between atoms: N_9  and  CA_18
REMARK    5  A    between atoms: CA_17  and  C_23
REMARK    6  A    between atoms: C_23  and  O_24
REMARK    7  A    between atoms: C_27  and  O_28
REMARK    8  A    between atoms: O_28  and  C_35
REMARK                            x       y       z     vdW  Elec       q    Type
REMARK                         _______ _______ _______ _____ _____    ______ ____
ROOT
ATOM      1  C   UNL     1      33.065 -10.400 -22.735  0.00  0.00    +0.198 C 
ENDROOT
BRANCH   1   2
ATOM      2  C   UNL     1      33.779 -10.640 -24.054  0.00  0.00    -0.003 C 
ATOM      3  C   UNL     1      34.913  -9.906 -24.344  0.00  0.00    -0.003 C 
ATOM      4  C   UNL     1      33.275 -11.584 -24.927  0.00  0.00    -0.003 C 
ATOM      5  C   UNL     1      35.569 -10.126 -25.556  0.00  0.00    -0.000 C 
ATOM      6  C   UNL     1      33.930 -11.803 -26.139  0.00  0.00    -0.000 C 
ATOM      7  C   UNL     1      35.077 -11.074 -26.453  0.00  0.00    -0.000 C 
ENDBRANCH   1   2
BRANCH   1  10
ATOM      8  O   UNL     1      31.230 -11.858 -22.114  0.00  0.00    -0.274 OA
ATOM      9  N   UNL     1      33.383 -12.710 -21.991  0.00  0.00    -0.296 N 
ATOM     10  C   UNL     1      32.443 -11.710 -22.247  0.00  0.00    +0.237 C 
ATOM     11  H   UNL     1      34.336 -12.505 -22.124  0.00  0.00    +0.150 HD
BRANCH   9  18
ATOM     12  S   UNL     1      33.422 -14.750 -24.285  0.00  0.00    -0.118 S 
ATOM     13  O   UNL     1      35.080 -14.750 -20.202  0.00  0.00    -0.273 OA
ATOM     14  N   UNL     1      33.989 -15.830 -21.996  0.00  0.00    -0.260 N 
ATOM     15  C   UNL     1      32.839 -15.147 -22.596  0.00  0.00    +0.151 C 
ATOM     16  C   UNL     1      34.495 -16.272 -24.314  0.00  0.00    +0.068 C 
ATOM     17  CA  UNL     1      35.010 -16.383 -22.862  0.00  0.00    +0.184 C 
ATOM     18  CA  UNL     1      33.013 -14.055 -21.531  0.00  0.00    +0.178 C 
ATOM     19  C   UNL     1      34.204 -14.895 -21.025  0.00  0.00    +0.247 C 
ATOM     20  C   UNL     1      33.628 -17.452 -24.775  0.00  0.00    +0.013 C 
ATOM     21  C   UNL     1      35.645 -16.050 -25.298  0.00  0.00    +0.013 C 
BRANCH  17  23
ATOM     22  OXT UNL     1      34.529 -18.445 -21.702  0.00  0.00    -0.248 OA
ATOM     23  C   UNL     1      35.286 -17.774 -22.387  0.00  0.00    +0.333 C 
BRANCH  23  24
ATOM     24  O   UNL     1      36.501 -18.194 -22.818  0.00  0.00    -0.479 OA
ATOM     25  H   UNL     1      36.946 -18.883 -22.365  0.00  0.00    +0.295 HD
ENDBRANCH  23  24
ENDBRANCH  17  23
ENDBRANCH   9  18
ENDBRANCH   1  10
BRANCH   1  27
ATOM     26  O   UNL     1      30.930  -9.345 -23.262  0.00  0.00    -0.249 OA
ATOM     27  C   UNL     1      32.067  -9.253 -22.817  0.00  0.00    +0.334 C 
BRANCH  27  28
ATOM     28  O   UNL     1      32.642  -8.108 -22.264  0.00  0.00    -0.424 OA
BRANCH  28  35
ATOM     29  C   UNL     1      32.607  -3.603 -26.162  0.00  0.00    +0.009 C 
ATOM     30  C   UNL     1      32.988  -5.090 -26.213  0.00  0.00    +0.026 C 
ATOM     31  C   UNL     1      31.401  -3.486 -25.217  0.00  0.00    +0.026 C 
ATOM     32  C   UNL     1      32.545  -5.549 -24.859  0.00  0.00    -0.023 C 
ATOM     33  C   UNL     1      31.644  -4.638 -24.294  0.00  0.00    -0.026 C 
ATOM     34  C   UNL     1      32.887  -6.717 -24.199  0.00  0.00    +0.033 C 
ATOM     35  C   UNL     1      32.320  -6.960 -22.946  0.00  0.00    +0.148 C 
ATOM     36  C   UNL     1      31.067  -4.877 -23.059  0.00  0.00    -0.001 C 
ATOM     37  C   UNL     1      31.416  -6.047 -22.380  0.00  0.00    +0.037 C 
ENDBRANCH  28  35
ENDBRANCH  27  28
ENDBRANCH   1  27
TORSDOF 8
ENDMDL
MODEL 9
REMARK VINA RESULT:      -9.5      1.575      2.610
REMARK  Name = 93184
REMARK  8 active torsions:
REMARK  status: ('A' for Active; 'I' for Inactive)
REMARK    1  A    between atoms: C_1  and  C_2
REMARK    2  A    between atoms: C_1  and  C_10
REMARK    3  A    between atoms: C_1  and  C_27
REMARK    4  A    between atoms: N_9  and  CA_18
REMARK    5  A    between atoms: CA_17  and  C_23
REMARK    6  A    between atoms: C_23  and  O_24
REMARK    7  A    between atoms: C_27  and  O_28
REMARK    8  A    between atoms: O_28  and  C_35
REMARK                            x       y       z     vdW  Elec       q    Type
REMARK                         _______ _______ _______ _____ _____    ______ ____
ROOT
ATOM      1  C   UNL     1      34.400 -22.357 -18.611  0.00  0.00    +0.198 C 
ENDROOT
BRANCH   1   2
ATOM      2  C   UNL     1      33.207 -22.702 -17.737  0.00  0.00    -0.003 C 
ATOM      3  C   UNL     1      31.993 -22.092 -17.991  0.00  0.00    -0.003 C 
ATOM      4  C   UNL     1      33.367 -23.615 -16.713  0.00  0.00    -0.003 C 
ATOM      5  C   UNL     1      30.897 -22.408 -17.188  0.00  0.00    -0.000 C 
ATOM      6  C   UNL     1      32.271 -23.931 -15.911  0.00  0.00    -0.000 C 
ATOM      7  C   UNL     1      31.036 -23.328 -16.148  0.00  0.00    -0.000 C 
ENDBRANCH   1   2
BRANCH   1  10
ATOM      8  O   UNL     1      36.448 -21.175 -18.075  0.00  0.00    -0.274 OA
ATOM      9  N   UNL     1      35.585 -22.628 -16.487  0.00  0.00    -0.296 N 
ATOM     10  C   UNL     1      35.589 -21.982 -17.724  0.00  0.00    +0.237 C 
ATOM     11  H   UNL     1      34.857 -23.260 -16.288  0.00  0.00    +0.150 HD
BRANCH   9  18
ATOM     12  S   UNL     1      35.647 -24.894 -14.416  0.00  0.00    -0.118 S 
ATOM     13  O   UNL     1      38.763 -22.860 -16.776  0.00  0.00    -0.273 OA
ATOM     14  N   UNL     1      37.979 -23.811 -14.764  0.00  0.00    -0.260 N 
ATOM     15  C   UNL     1      36.664 -23.378 -14.280  0.00  0.00    +0.151 C 
ATOM     16  C   UNL     1      37.133 -25.968 -14.084  0.00  0.00    +0.068 C 
ATOM     17  CA  UNL     1      38.285 -25.227 -14.798  0.00  0.00    +0.184 C 
ATOM     18  CA  UNL     1      36.619 -22.407 -15.466  0.00  0.00    +0.178 C 
ATOM     19  C   UNL     1      38.002 -22.975 -15.842  0.00  0.00    +0.247 C 
ATOM     20  C   UNL     1      37.299 -26.087 -12.563  0.00  0.00    +0.013 C 
ATOM     21  C   UNL     1      36.895 -27.349 -14.696  0.00  0.00    +0.013 C 
BRANCH  17  23
ATOM     22  OXT UNL     1      40.175 -24.600 -13.433  0.00  0.00    -0.248 OA
ATOM     23  C   UNL     1      39.636 -25.402 -14.181  0.00  0.00    +0.333 C 
BRANCH  23  24
ATOM     24  O   UNL     1      40.191 -26.576 -14.569  0.00  0.00    -0.479 OA
ATOM     25  H   UNL     1      39.954 -26.957 -15.392  0.00  0.00    +0.295 HD
ENDBRANCH  23  24
ENDBRANCH  17  23
ENDBRANCH   9  18
ENDBRANCH   1  10
BRANCH   1  27
ATOM     26  O   UNL     1      33.003 -20.697 -19.725  0.00  0.00    -0.249 OA
ATOM     27  C   UNL     1      34.067 -21.298 -19.654  0.00  0.00    +0.334 C 
BRANCH  27  28
ATOM     28  O   UNL     1      35.180 -21.096 -20.471  0.00  0.00    -0.424 OA
BRANCH  28  35
ATOM     29  C   UNL     1      34.836 -17.176 -24.942  0.00  0.00    +0.009 C 
ATOM     30  C   UNL     1      34.301 -18.593 -24.687  0.00  0.00    +0.026 C 
ATOM     31  C   UNL     1      34.795 -16.437 -23.596  0.00  0.00    +0.026 C 
ATOM     32  C   UNL     1      34.693 -18.797 -23.257  0.00  0.00    -0.023 C 
ATOM     33  C   UNL     1      34.974 -17.572 -22.638  0.00  0.00    -0.026 C 
ATOM     34  C   UNL     1      34.751 -19.985 -22.549  0.00  0.00    +0.033 C 
ATOM     35  C   UNL     1      35.109 -19.935 -21.200  0.00  0.00    +0.148 C 
ATOM     36  C   UNL     1      35.317 -17.513 -21.298  0.00  0.00    -0.001 C 
ATOM     37  C   UNL     1      35.390 -18.707 -20.579  0.00  0.00    +0.037 C 
ENDBRANCH  28  35
ENDBRANCH  27  28
ENDBRANCH   1  27
TORSDOF 8
ENDMDL
