MODEL 1
REMARK VINA RESULT:      -7.6      0.000      0.000
REMARK  Name = 2722
REMARK  1 active torsions:
REMARK  status: ('A' for Active; 'I' for Inactive)
REMARK    1  A    between atoms: C_6  and  O_13
REMARK                            x       y       z     vdW  Elec       q    Type
REMARK                         _______ _______ _______ _____ _____    ______ ____
ROOT
ATOM      1 CL   UNL     1      34.772 -15.876 -20.613  0.00  0.00    -0.082 Cl
ATOM      2 CL   UNL     1      33.473 -12.878 -24.831  0.00  0.00    -0.079 Cl
ATOM      3  N   UNL     1      34.332 -17.871 -25.368  0.00  0.00    -0.241 NA
ATOM      4  C   UNL     1      34.535 -16.935 -23.157  0.00  0.00    +0.031 C 
ATOM      5  C   UNL     1      34.274 -16.813 -24.538  0.00  0.00    +0.116 C 
ATOM      6  C   UNL     1      33.948 -15.552 -25.033  0.00  0.00    +0.162 C 
ATOM      7  C   UNL     1      34.466 -15.809 -22.319  0.00  0.00    +0.060 C 
ATOM      8  C   UNL     1      34.863 -18.202 -22.658  0.00  0.00    +0.004 C 
ATOM      9  C   UNL     1      33.879 -14.433 -24.200  0.00  0.00    +0.094 C 
ATOM     10  C   UNL     1      34.139 -14.561 -22.842  0.00  0.00    +0.026 C 
ATOM     11  C   UNL     1      34.924 -19.294 -23.511  0.00  0.00    +0.021 C 
ATOM     12  C   UNL     1      34.652 -19.076 -24.846  0.00  0.00    +0.099 C 
ENDROOT
BRANCH   6  13
ATOM     13  O   UNL     1      33.690 -15.417 -26.372  0.00  0.00    -0.503 OA
ATOM     14  H   UNL     1      32.805 -15.382 -26.677  0.00  0.00    +0.292 HD
ENDBRANCH   6  13
TORSDOF 1
ENDMDL
MODEL 2
REMARK VINA RESULT:      -7.4      1.620      1.969
REMARK  Name = 2722
REMARK  1 active torsions:
REMARK  status: ('A' for Active; 'I' for Inactive)
REMARK    1  A    between atoms: C_6  and  O_13
REMARK                            x       y       z     vdW  Elec       q    Type
REMARK                         _______ _______ _______ _____ _____    ______ ____
ROOT
ATOM      1 CL   UNL     1      32.890 -13.928 -21.021  0.00  0.00    -0.082 Cl
ATOM      2 CL   UNL     1      32.978 -14.311 -26.342  0.00  0.00    -0.079 Cl
ATOM      3  N   UNL     1      35.313 -17.799 -23.455  0.00  0.00    -0.241 NA
ATOM      4  C   UNL     1      34.183 -15.993 -22.329  0.00  0.00    +0.031 C 
ATOM      5  C   UNL     1      34.583 -16.669 -23.500  0.00  0.00    +0.116 C 
ATOM      6  C   UNL     1      34.201 -16.133 -24.728  0.00  0.00    +0.162 C 
ATOM      7  C   UNL     1      33.421 -14.816 -22.413  0.00  0.00    +0.060 C 
ATOM      8  C   UNL     1      34.567 -16.532 -21.093  0.00  0.00    +0.004 C 
ATOM      9  C   UNL     1      33.444 -14.963 -24.812  0.00  0.00    +0.094 C 
ATOM     10  C   UNL     1      33.054 -14.302 -23.654  0.00  0.00    +0.026 C 
ATOM     11  C   UNL     1      35.319 -17.696 -21.043  0.00  0.00    +0.021 C 
ATOM     12  C   UNL     1      35.663 -18.286 -22.242  0.00  0.00    +0.099 C 
ENDROOT
BRANCH   6  13
ATOM     13  O   UNL     1      34.581 -16.778 -25.875  0.00  0.00    -0.503 OA
ATOM     14  H   UNL     1      35.043 -16.312 -26.544  0.00  0.00    +0.292 HD
ENDBRANCH   6  13
TORSDOF 1
ENDMDL
MODEL 3
REMARK VINA RESULT:      -7.2      2.175      3.746
REMARK  Name = 2722
REMARK  1 active torsions:
REMARK  status: ('A' for Active; 'I' for Inactive)
REMARK    1  A    between atoms: C_6  and  O_13
REMARK                            x       y       z     vdW  Elec       q    Type
REMARK                         _______ _______ _______ _____ _____    ______ ____
ROOT
ATOM      1 CL   UNL     1      33.094 -14.119 -20.674  0.00  0.00    -0.082 Cl
ATOM      2 CL   UNL     1      36.067 -18.537 -21.010  0.00  0.00    -0.079 Cl
ATOM      3  N   UNL     1      34.285 -16.288 -25.220  0.00  0.00    -0.241 NA
ATOM      4  C   UNL     1      33.734 -15.284 -23.100  0.00  0.00    +0.031 C 
ATOM      5  C   UNL     1      34.362 -16.280 -23.876  0.00  0.00    +0.116 C 
ATOM      6  C   UNL     1      35.077 -17.274 -23.212  0.00  0.00    +0.162 C 
ATOM      7  C   UNL     1      33.835 -15.307 -21.698  0.00  0.00    +0.060 C 
ATOM      8  C   UNL     1      33.015 -14.283 -23.767  0.00  0.00    +0.004 C 
ATOM      9  C   UNL     1      35.177 -17.297 -21.819  0.00  0.00    +0.094 C 
ATOM     10  C   UNL     1      34.555 -16.313 -21.061  0.00  0.00    +0.026 C 
ATOM     11  C   UNL     1      32.934 -14.288 -25.152  0.00  0.00    +0.021 C 
ATOM     12  C   UNL     1      33.581 -15.304 -25.825  0.00  0.00    +0.099 C 
ENDROOT
BRANCH   6  13
ATOM     13  O   UNL     1      35.693 -18.249 -23.951  0.00  0.00    -0.503 OA
ATOM     14  H   UNL     1      35.228 -18.678 -24.641  0.00  0.00    +0.292 HD
ENDBRANCH   6  13
TORSDOF 1
ENDMDL
MODEL 4
REMARK VINA RESULT:      -7.1      2.930      4.947
REMARK  Name = 2722
REMARK  1 active torsions:
REMARK  status: ('A' for Active; 'I' for Inactive)
REMARK    1  A    between atoms: C_6  and  O_13
REMARK                            x       y       z     vdW  Elec       q    Type
REMARK                         _______ _______ _______ _____ _____    ______ ____
ROOT
ATOM      1 CL   UNL     1      33.441 -15.186 -25.893  0.00  0.00    -0.082 Cl
ATOM      2 CL   UNL     1      36.274 -18.292 -22.607  0.00  0.00    -0.079 Cl
ATOM      3  N   UNL     1      33.429 -14.488 -20.765  0.00  0.00    -0.241 NA
ATOM      4  C   UNL     1      33.440 -14.819 -23.152  0.00  0.00    +0.031 C 
ATOM      5  C   UNL     1      33.855 -15.164 -21.848  0.00  0.00    +0.116 C 
ATOM      6  C   UNL     1      34.729 -16.239 -21.703  0.00  0.00    +0.162 C 
ATOM      7  C   UNL     1      33.904 -15.547 -24.261  0.00  0.00    +0.060 C 
ATOM      8  C   UNL     1      32.561 -13.738 -23.299  0.00  0.00    +0.004 C 
ATOM      9  C   UNL     1      35.190 -16.962 -22.805  0.00  0.00    +0.094 C 
ATOM     10  C   UNL     1      34.778 -16.616 -24.085  0.00  0.00    +0.026 C 
ATOM     11  C   UNL     1      32.121 -13.039 -22.185  0.00  0.00    +0.021 C 
ATOM     12  C   UNL     1      32.581 -13.451 -20.951  0.00  0.00    +0.099 C 
ENDROOT
BRANCH   6  13
ATOM     13  O   UNL     1      35.140 -16.588 -20.444  0.00  0.00    -0.503 OA
ATOM     14  H   UNL     1      36.021 -16.417 -20.174  0.00  0.00    +0.292 HD
ENDBRANCH   6  13
TORSDOF 1
ENDMDL
MODEL 5
REMARK VINA RESULT:      -7.1      2.873      4.528
REMARK  Name = 2722
REMARK  1 active torsions:
REMARK  status: ('A' for Active; 'I' for Inactive)
REMARK    1  A    between atoms: C_6  and  O_13
REMARK                            x       y       z     vdW  Elec       q    Type
REMARK                         _______ _______ _______ _____ _____    ______ ____
ROOT
ATOM      1 CL   UNL     1      33.621 -15.085 -25.816  0.00  0.00    -0.082 Cl
ATOM      2 CL   UNL     1      34.954 -20.184 -24.987  0.00  0.00    -0.079 Cl
ATOM      3  N   UNL     1      34.869 -16.869 -21.120  0.00  0.00    -0.241 NA
ATOM      4  C   UNL     1      34.290 -16.046 -23.310  0.00  0.00    +0.031 C 
ATOM      5  C   UNL     1      34.685 -17.081 -22.437  0.00  0.00    +0.116 C 
ATOM      6  C   UNL     1      34.885 -18.350 -22.975  0.00  0.00    +0.162 C 
ATOM      7  C   UNL     1      34.107 -16.303 -24.679  0.00  0.00    +0.060 C 
ATOM      8  C   UNL     1      34.089 -14.768 -22.769  0.00  0.00    +0.004 C 
ATOM      9  C   UNL     1      34.703 -18.605 -24.336  0.00  0.00    +0.094 C 
ATOM     10  C   UNL     1      34.314 -17.581 -25.189  0.00  0.00    +0.026 C 
ATOM     11  C   UNL     1      34.277 -14.547 -21.413  0.00  0.00    +0.021 C 
ATOM     12  C   UNL     1      34.665 -15.622 -20.639  0.00  0.00    +0.099 C 
ENDROOT
BRANCH   6  13
ATOM     13  O   UNL     1      35.268 -19.367 -22.141  0.00  0.00    -0.503 OA
ATOM     14  H   UNL     1      35.045 -19.336 -21.232  0.00  0.00    +0.292 HD
ENDBRANCH   6  13
TORSDOF 1
ENDMDL
MODEL 6
REMARK VINA RESULT:      -7.0      2.405      2.939
REMARK  Name = 2722
REMARK  1 active torsions:
REMARK  status: ('A' for Active; 'I' for Inactive)
REMARK    1  A    between atoms: C_6  and  O_13
REMARK                            x       y       z     vdW  Elec       q    Type
REMARK                         _______ _______ _______ _____ _____    ______ ____
ROOT
ATOM      1 CL   UNL     1      35.341 -17.402 -20.906  0.00  0.00    -0.082 Cl
ATOM      2 CL   UNL     1      32.252 -13.121 -20.135  0.00  0.00    -0.079 Cl
ATOM      3  N   UNL     1      33.155 -14.849 -24.841  0.00  0.00    -0.241 NA
ATOM      4  C   UNL     1      34.170 -16.032 -23.004  0.00  0.00    +0.031 C 
ATOM      5  C   UNL     1      33.366 -14.994 -23.520  0.00  0.00    +0.116 C 
ATOM      6  C   UNL     1      32.784 -14.107 -22.618  0.00  0.00    +0.162 C 
ATOM      7  C   UNL     1      34.368 -16.155 -21.618  0.00  0.00    +0.060 C 
ATOM      8  C   UNL     1      34.756 -16.925 -23.911  0.00  0.00    +0.004 C 
ATOM      9  C   UNL     1      32.981 -14.229 -21.240  0.00  0.00    +0.094 C 
ATOM     10  C   UNL     1      33.775 -15.253 -20.740  0.00  0.00    +0.026 C 
ATOM     11  C   UNL     1      34.541 -16.778 -25.273  0.00  0.00    +0.021 C 
ATOM     12  C   UNL     1      33.740 -15.732 -25.683  0.00  0.00    +0.099 C 
ENDROOT
BRANCH   6  13
ATOM     13  O   UNL     1      31.999 -13.094 -23.102  0.00  0.00    -0.503 OA
ATOM     14  H   UNL     1      31.075 -13.103 -22.949  0.00  0.00    +0.292 HD
ENDBRANCH   6  13
TORSDOF 1
ENDMDL
MODEL 7
REMARK VINA RESULT:      -7.0      2.556      3.319
REMARK  Name = 2722
REMARK  1 active torsions:
REMARK  status: ('A' for Active; 'I' for Inactive)
REMARK    1  A    between atoms: C_6  and  O_13
REMARK                            x       y       z     vdW  Elec       q    Type
REMARK                         _______ _______ _______ _____ _____    ______ ____
ROOT
ATOM      1 CL   UNL     1      34.570 -18.434 -25.041  0.00  0.00    -0.082 Cl
ATOM      2 CL   UNL     1      32.926 -13.674 -26.802  0.00  0.00    -0.079 Cl
ATOM      3  N   UNL     1      34.079 -14.359 -21.887  0.00  0.00    -0.241 NA
ATOM      4  C   UNL     1      34.305 -16.252 -23.362  0.00  0.00    +0.031 C 
ATOM      5  C   UNL     1      33.985 -14.900 -23.116  0.00  0.00    +0.116 C 
ATOM      6  C   UNL     1      33.562 -14.123 -24.192  0.00  0.00    +0.162 C 
ATOM      7  C   UNL     1      34.195 -16.784 -24.658  0.00  0.00    +0.060 C 
ATOM      8  C   UNL     1      34.731 -17.036 -22.281  0.00  0.00    +0.004 C 
ATOM      9  C   UNL     1      33.453 -14.651 -25.480  0.00  0.00    +0.094 C 
ATOM     10  C   UNL     1      33.769 -15.984 -25.713  0.00  0.00    +0.026 C 
ATOM     11  C   UNL     1      34.829 -16.481 -21.013  0.00  0.00    +0.021 C 
ATOM     12  C   UNL     1      34.494 -15.150 -20.871  0.00  0.00    +0.099 C 
ENDROOT
BRANCH   6  13
ATOM     13  O   UNL     1      33.248 -12.807 -23.971  0.00  0.00    -0.503 OA
ATOM     14  H   UNL     1      32.440 -12.582 -23.555  0.00  0.00    +0.292 HD
ENDBRANCH   6  13
TORSDOF 1
ENDMDL
MODEL 8
REMARK VINA RESULT:      -6.9     11.191     12.530
REMARK  Name = 2722
REMARK  1 active torsions:
REMARK  status: ('A' for Active; 'I' for Inactive)
REMARK    1  A    between atoms: C_6  and  O_13
REMARK                            x       y       z     vdW  Elec       q    Type
REMARK                         _______ _______ _______ _____ _____    ______ ____
ROOT
ATOM      1 CL   UNL     1      32.977 -22.674 -17.846  0.00  0.00    -0.082 Cl
ATOM      2 CL   UNL     1      28.866 -24.613 -15.053  0.00  0.00    -0.079 Cl
ATOM      3  N   UNL     1      33.516 -24.371 -12.987  0.00  0.00    -0.241 NA
ATOM      4  C   UNL     1      33.257 -23.583 -15.249  0.00  0.00    +0.031 C 
ATOM      5  C   UNL     1      32.739 -24.139 -14.061  0.00  0.00    +0.116 C 
ATOM      6  C   UNL     1      31.381 -24.450 -14.022  0.00  0.00    +0.162 C 
ATOM      7  C   UNL     1      32.417 -23.355 -16.352  0.00  0.00    +0.060 C 
ATOM      8  C   UNL     1      34.623 -23.271 -15.290  0.00  0.00    +0.004 C 
ATOM      9  C   UNL     1      30.546 -24.223 -15.118  0.00  0.00    +0.094 C 
ATOM     10  C   UNL     1      31.064 -23.676 -16.285  0.00  0.00    +0.026 C 
ATOM     11  C   UNL     1      35.426 -23.508 -14.185  0.00  0.00    +0.021 C 
ATOM     12  C   UNL     1      34.828 -24.055 -13.067  0.00  0.00    +0.099 C 
ENDROOT
BRANCH   6  13
ATOM     13  O   UNL     1      30.862 -24.990 -12.875  0.00  0.00    -0.503 OA
ATOM     14  H   UNL     1      31.276 -25.729 -12.476  0.00  0.00    +0.292 HD
ENDBRANCH   6  13
TORSDOF 1
ENDMDL
MODEL 9
REMARK VINA RESULT:      -6.9     11.081     12.516
REMARK  Name = 2722
REMARK  1 active torsions:
REMARK  status: ('A' for Active; 'I' for Inactive)
REMARK    1  A    between atoms: C_6  and  O_13
REMARK                            x       y       z     vdW  Elec       q    Type
REMARK                         _______ _______ _______ _____ _____    ______ ____
ROOT
ATOM      1 CL   UNL     1      33.581 -22.752 -17.911  0.00  0.00    -0.082 Cl
ATOM      2 CL   UNL     1      36.838 -24.528 -14.077  0.00  0.00    -0.079 Cl
ATOM      3  N   UNL     1      31.840 -24.047 -13.213  0.00  0.00    -0.241 NA
ATOM      4  C   UNL     1      32.658 -23.446 -15.398  0.00  0.00    +0.031 C 
ATOM      5  C   UNL     1      32.859 -23.914 -14.083  0.00  0.00    +0.116 C 
ATOM      6  C   UNL     1      34.156 -24.242 -13.696  0.00  0.00    +0.162 C 
ATOM      7  C   UNL     1      33.745 -23.319 -16.280  0.00  0.00    +0.060 C 
ATOM      8  C   UNL     1      31.354 -23.115 -15.789  0.00  0.00    +0.004 C 
ATOM      9  C   UNL     1      35.236 -24.117 -14.572  0.00  0.00    +0.094 C 
ATOM     10  C   UNL     1      35.031 -23.653 -15.866  0.00  0.00    +0.026 C 
ATOM     11  C   UNL     1      30.302 -23.251 -14.895  0.00  0.00    +0.021 C 
ATOM     12  C   UNL     1      30.596 -23.718 -13.630  0.00  0.00    +0.099 C 
ENDROOT
BRANCH   6  13
ATOM     13  O   UNL     1      34.367 -24.700 -12.422  0.00  0.00    -0.503 OA
ATOM     14  H   UNL     1      33.857 -25.411 -12.089  0.00  0.00    +0.292 HD
ENDBRANCH   6  13
TORSDOF 1
ENDMDL
