MODEL 1
REMARK VINA RESULT:     -12.7      0.000      0.000
REMARK  Name = 49831257
REMARK  4 active torsions:
REMARK  status: ('A' for Active; 'I' for Inactive)
REMARK    1  A    between atoms: C_1  and  C_23
REMARK    2  A    between atoms: C_4  and  C_14
REMARK    3  A    between atoms: C_12  and  C_20
REMARK    4  A    between atoms: C_23  and  N_27
REMARK                            x       y       z     vdW  Elec       q    Type
REMARK                         _______ _______ _______ _____ _____    ______ ____
ROOT
ATOM      1  C   UNL     1      35.909 -18.771 -21.497  0.00  0.00    -0.043 C 
ATOM      2  C   UNL     1      35.402 -17.585 -20.966  0.00  0.00    -0.006 C 
ATOM      3  C   UNL     1      35.802 -19.025 -22.864  0.00  0.00    -0.006 C 
ATOM      4  C   UNL     1      34.679 -16.908 -23.169  0.00  0.00    +0.016 C 
ATOM      5  C   UNL     1      34.786 -16.654 -21.802  0.00  0.00    +0.001 C 
ATOM      6  C   UNL     1      35.187 -18.094 -23.701  0.00  0.00    +0.001 C 
ENDROOT
BRANCH   4  14
ATOM      7  O   UNL     1      30.764 -10.817 -22.272  0.00  0.00    -0.274 OA
ATOM      8  N   UNL     1      31.957 -12.599 -21.290  0.00  0.00    -0.217 N 
ATOM      9  N   UNL     1      33.320 -14.819 -23.539  0.00  0.00    -0.152 N 
ATOM     10  N   UNL     1      33.130 -14.450 -22.244  0.00  0.00    -0.092 NA
ATOM     11  N   UNL     1      32.104 -12.955 -23.632  0.00  0.00    -0.319 NA
ATOM     12  C   UNL     1      31.191 -11.419 -21.296  0.00  0.00    +0.234 C 
ATOM     13  C   UNL     1      32.400 -13.342 -22.364  0.00  0.00    +0.167 C 
ATOM     14  C   UNL     1      34.027 -15.926 -24.053  0.00  0.00    +0.077 C 
ATOM     15  C   UNL     1      32.683 -13.880 -24.363  0.00  0.00    +0.219 C 
ATOM     16  C   UNL     1      34.089 -16.082 -25.393  0.00  0.00    +0.017 C 
ATOM     17  C   UNL     1      32.763 -14.066 -25.770  0.00  0.00    +0.051 C 
ATOM     18  C   UNL     1      33.437 -15.119 -26.264  0.00  0.00    +0.005 C 
ATOM     19  H   UNL     1      32.211 -12.939 -20.401  0.00  0.00    +0.167 HD
BRANCH  12  20
ATOM     20  C   UNL     1      30.886 -10.874 -19.936  0.00  0.00    +0.077 C 
ATOM     21  C   UNL     1      31.519  -9.582 -19.510  0.00  0.00    +0.010 C 
ATOM     22  C   UNL     1      31.962 -10.875 -18.890  0.00  0.00    +0.010 C 
ENDBRANCH  12  20
ENDBRANCH   4  14
BRANCH   1  23
ATOM     23  C   UNL     1      36.575 -19.775 -20.594  0.00  0.00    -0.050 C 
BRANCH  23  27
ATOM     24  S   UNL     1      33.788 -22.695 -18.571  0.00  0.00    -0.014 S 
ATOM     25  O   UNL     1      32.881 -22.853 -17.452  0.00  0.00    -0.173 OA
ATOM     26  O   UNL     1      34.016 -23.779 -19.508  0.00  0.00    -0.173 OA
ATOM     27  N   UNL     1      35.618 -20.407 -19.682  0.00  0.00    +0.392 N 
ATOM     28  C   UNL     1      36.238 -21.577 -19.036  0.00  0.00    -0.051 C 
ATOM     29  C   UNL     1      34.394 -20.772 -20.417  0.00  0.00    -0.051 C 
ATOM     30  C   UNL     1      33.288 -21.258 -19.488  0.00  0.00    +0.128 C 
ATOM     31  C   UNL     1      35.360 -22.162 -17.937  0.00  0.00    +0.128 C 
ATOM     32  H   UNL     1      35.355 -19.751 -18.948  0.00  0.00    -0.079 HD
ENDBRANCH  23  27
ENDBRANCH   1  23
TORSDOF 4
ENDMDL
MODEL 2
REMARK VINA RESULT:     -12.3      1.506      2.098
REMARK  Name = 49831257
REMARK  4 active torsions:
REMARK  status: ('A' for Active; 'I' for Inactive)
REMARK    1  A    between atoms: C_1  and  C_23
REMARK    2  A    between atoms: C_4  and  C_14
REMARK    3  A    between atoms: C_12  and  C_20
REMARK    4  A    between atoms: C_23  and  N_27
REMARK                            x       y       z     vdW  Elec       q    Type
REMARK                         _______ _______ _______ _____ _____    ______ ____
ROOT
ATOM      1  C   UNL     1      36.197 -20.312 -20.254  0.00  0.00    -0.043 C 
ATOM      2  C   UNL     1      34.847 -20.317 -20.603  0.00  0.00    -0.006 C 
ATOM      3  C   UNL     1      37.068 -19.398 -20.848  0.00  0.00    -0.006 C 
ATOM      4  C   UNL     1      35.238 -18.496 -22.142  0.00  0.00    +0.016 C 
ATOM      5  C   UNL     1      34.368 -19.410 -21.548  0.00  0.00    +0.001 C 
ATOM      6  C   UNL     1      36.589 -18.490 -21.792  0.00  0.00    +0.001 C 
ENDROOT
BRANCH   4  14
ATOM      7  O   UNL     1      31.785 -12.071 -21.984  0.00  0.00    -0.274 OA
ATOM      8  N   UNL     1      32.756 -13.857 -20.789  0.00  0.00    -0.217 N 
ATOM      9  N   UNL     1      34.085 -16.344 -22.763  0.00  0.00    -0.152 N 
ATOM     10  N   UNL     1      33.836 -15.861 -21.515  0.00  0.00    -0.092 NA
ATOM     11  N   UNL     1      33.035 -14.405 -23.081  0.00  0.00    -0.319 NA
ATOM     12  C   UNL     1      32.092 -12.627 -20.938  0.00  0.00    +0.234 C 
ATOM     13  C   UNL     1      33.211 -14.714 -21.770  0.00  0.00    +0.167 C 
ATOM     14  C   UNL     1      34.733 -17.538 -23.140  0.00  0.00    +0.077 C 
ATOM     15  C   UNL     1      33.586 -15.427 -23.698  0.00  0.00    +0.219 C 
ATOM     16  C   UNL     1      34.874 -17.803 -24.457  0.00  0.00    +0.017 C 
ATOM     17  C   UNL     1      33.747 -15.727 -25.078  0.00  0.00    +0.051 C 
ATOM     18  C   UNL     1      34.365 -16.864 -25.442  0.00  0.00    +0.005 C 
ATOM     19  H   UNL     1      32.919 -14.146 -19.861  0.00  0.00    +0.167 HD
BRANCH  12  20
ATOM     20  C   UNL     1      31.739 -11.955 -19.648  0.00  0.00    +0.077 C 
ATOM     21  C   UNL     1      30.745 -10.831 -19.659  0.00  0.00    +0.010 C 
ATOM     22  C   UNL     1      32.197 -10.546 -19.408  0.00  0.00    +0.010 C 
ENDBRANCH  12  20
ENDBRANCH   4  14
BRANCH   1  23
ATOM     23  C   UNL     1      36.715 -21.290 -19.233  0.00  0.00    -0.050 C 
BRANCH  23  27
ATOM     24  S   UNL     1      34.118 -23.367 -16.178  0.00  0.00    -0.014 S 
ATOM     25  O   UNL     1      33.036 -23.158 -15.237  0.00  0.00    -0.173 OA
ATOM     26  O   UNL     1      34.727 -24.673 -16.341  0.00  0.00    -0.173 OA
ATOM     27  N   UNL     1      35.711 -21.589 -18.207  0.00  0.00    +0.392 N 
ATOM     28  C   UNL     1      36.375 -22.048 -16.975  0.00  0.00    -0.051 C 
ATOM     29  C   UNL     1      34.756 -22.587 -18.719  0.00  0.00    -0.051 C 
ATOM     30  C   UNL     1      33.580 -22.797 -17.772  0.00  0.00    +0.128 C 
ATOM     31  C   UNL     1      35.399 -22.192 -15.813  0.00  0.00    +0.128 C 
ATOM     32  H   UNL     1      35.186 -20.745 -17.980  0.00  0.00    -0.079 HD
ENDBRANCH  23  27
ENDBRANCH   1  23
TORSDOF 4
ENDMDL
MODEL 3
REMARK VINA RESULT:     -12.0      4.242     11.208
REMARK  Name = 49831257
REMARK  4 active torsions:
REMARK  status: ('A' for Active; 'I' for Inactive)
REMARK    1  A    between atoms: C_1  and  C_23
REMARK    2  A    between atoms: C_4  and  C_14
REMARK    3  A    between atoms: C_12  and  C_20
REMARK    4  A    between atoms: C_23  and  N_27
REMARK                            x       y       z     vdW  Elec       q    Type
REMARK                         _______ _______ _______ _____ _____    ______ ____
ROOT
ATOM      1  C   UNL     1      35.093 -20.310 -20.790  0.00  0.00    -0.043 C 
ATOM      2  C   UNL     1      33.725 -20.432 -20.552  0.00  0.00    -0.006 C 
ATOM      3  C   UNL     1      36.007 -20.945 -19.949  0.00  0.00    -0.006 C 
ATOM      4  C   UNL     1      34.184 -21.822 -18.629  0.00  0.00    +0.016 C 
ATOM      5  C   UNL     1      33.270 -21.187 -19.471  0.00  0.00    +0.001 C 
ATOM      6  C   UNL     1      35.553 -21.701 -18.868  0.00  0.00    +0.001 C 
ENDROOT
BRANCH   4  14
ATOM      7  O   UNL     1      37.254 -25.585 -13.185  0.00  0.00    -0.274 OA
ATOM      8  N   UNL     1      37.533 -24.231 -15.096  0.00  0.00    -0.217 N 
ATOM      9  N   UNL     1      34.594 -23.240 -16.588  0.00  0.00    -0.152 N 
ATOM     10  N   UNL     1      35.955 -23.217 -16.575  0.00  0.00    -0.092 NA
ATOM     11  N   UNL     1      35.187 -24.471 -14.828  0.00  0.00    -0.319 NA
ATOM     12  C   UNL     1      37.957 -24.998 -13.995  0.00  0.00    +0.234 C 
ATOM     13  C   UNL     1      36.246 -23.965 -15.513  0.00  0.00    +0.167 C 
ATOM     14  C   UNL     1      33.703 -22.619 -17.487  0.00  0.00    +0.077 C 
ATOM     15  C   UNL     1      34.157 -24.013 -15.503  0.00  0.00    +0.219 C 
ATOM     16  C   UNL     1      32.377 -22.778 -17.289  0.00  0.00    +0.017 C 
ATOM     17  C   UNL     1      32.756 -24.165 -15.315  0.00  0.00    +0.051 C 
ATOM     18  C   UNL     1      31.903 -23.573 -16.170  0.00  0.00    +0.005 C 
ATOM     19  H   UNL     1      38.250 -23.831 -15.640  0.00  0.00    +0.167 HD
BRANCH  12  20
ATOM     20  C   UNL     1      39.443 -25.078 -13.835  0.00  0.00    +0.077 C 
ATOM     21  C   UNL     1      40.312 -25.016 -15.057  0.00  0.00    +0.010 C 
ATOM     22  C   UNL     1      40.164 -26.308 -14.307  0.00  0.00    +0.010 C 
ENDBRANCH  12  20
ENDBRANCH   4  14
BRANCH   1  23
ATOM     23  C   UNL     1      35.585 -19.496 -21.958  0.00  0.00    -0.050 C 
BRANCH  23  27
ATOM     24  S   UNL     1      33.905 -15.395 -22.819  0.00  0.00    -0.014 S 
ATOM     25  O   UNL     1      32.680 -14.676 -23.102  0.00  0.00    -0.173 OA
ATOM     26  O   UNL     1      35.178 -14.703 -22.742  0.00  0.00    -0.173 OA
ATOM     27  N   UNL     1      34.689 -18.375 -22.256  0.00  0.00    +0.392 N 
ATOM     28  C   UNL     1      35.065 -17.762 -23.542  0.00  0.00    -0.051 C 
ATOM     29  C   UNL     1      34.725 -17.401 -21.152  0.00  0.00    -0.051 C 
ATOM     30  C   UNL     1      33.673 -16.309 -21.313  0.00  0.00    +0.128 C 
ATOM     31  C   UNL     1      34.055 -16.716 -23.998  0.00  0.00    +0.128 C 
ATOM     32  H   UNL     1      33.730 -18.712 -22.341  0.00  0.00    -0.079 HD
ENDBRANCH  23  27
ENDBRANCH   1  23
TORSDOF 4
ENDMDL
MODEL 4
REMARK VINA RESULT:     -12.0      3.975     10.154
REMARK  Name = 49831257
REMARK  4 active torsions:
REMARK  status: ('A' for Active; 'I' for Inactive)
REMARK    1  A    between atoms: C_1  and  C_23
REMARK    2  A    between atoms: C_4  and  C_14
REMARK    3  A    between atoms: C_12  and  C_20
REMARK    4  A    between atoms: C_23  and  N_27
REMARK                            x       y       z     vdW  Elec       q    Type
REMARK                         _______ _______ _______ _____ _____    ______ ____
ROOT
ATOM      1  C   UNL     1      35.010 -20.028 -21.383  0.00  0.00    -0.043 C 
ATOM      2  C   UNL     1      36.293 -20.121 -20.844  0.00  0.00    -0.006 C 
ATOM      3  C   UNL     1      33.932 -20.618 -20.722  0.00  0.00    -0.006 C 
ATOM      4  C   UNL     1      35.421 -21.394 -18.985  0.00  0.00    +0.016 C 
ATOM      5  C   UNL     1      36.499 -20.804 -19.646  0.00  0.00    +0.001 C 
ATOM      6  C   UNL     1      34.137 -21.301 -19.524  0.00  0.00    +0.001 C 
ENDROOT
BRANCH   4  14
ATOM      7  O   UNL     1      31.246 -25.000 -14.210  0.00  0.00    -0.274 OA
ATOM      8  N   UNL     1      31.398 -23.784 -16.225  0.00  0.00    -0.217 N 
ATOM      9  N   UNL     1      34.575 -22.722 -17.019  0.00  0.00    -0.152 N 
ATOM     10  N   UNL     1      33.255 -22.780 -17.346  0.00  0.00    -0.092 NA
ATOM     11  N   UNL     1      33.611 -23.871 -15.371  0.00  0.00    -0.319 NA
ATOM     12  C   UNL     1      30.744 -24.505 -15.210  0.00  0.00    +0.234 C 
ATOM     13  C   UNL     1      32.737 -23.470 -16.331  0.00  0.00    +0.167 C 
ATOM     14  C   UNL     1      35.638 -22.116 -17.720  0.00  0.00    +0.077 C 
ATOM     15  C   UNL     1      34.759 -23.403 -15.807  0.00  0.00    +0.219 C 
ATOM     16  C   UNL     1      36.880 -22.199 -17.198  0.00  0.00    +0.017 C 
ATOM     17  C   UNL     1      36.076 -23.477 -15.279  0.00  0.00    +0.051 C 
ATOM     18  C   UNL     1      37.093 -22.902 -15.944  0.00  0.00    +0.005 C 
ATOM     19  H   UNL     1      30.825 -23.461 -16.958  0.00  0.00    +0.167 HD
BRANCH  12  20
ATOM     20  C   UNL     1      29.270 -24.661 -15.415  0.00  0.00    +0.077 C 
ATOM     21  C   UNL     1      28.655 -24.163 -16.691  0.00  0.00    +0.010 C 
ATOM     22  C   UNL     1      28.397 -23.440 -15.401  0.00  0.00    +0.010 C 
ENDBRANCH  12  20
ENDBRANCH   4  14
BRANCH   1  23
ATOM     23  C   UNL     1      34.788 -19.289 -22.676  0.00  0.00    -0.050 C 
BRANCH  23  27
ATOM     24  S   UNL     1      33.944 -14.865 -22.355  0.00  0.00    -0.014 S 
ATOM     25  O   UNL     1      34.565 -13.577 -22.119  0.00  0.00    -0.173 OA
ATOM     26  O   UNL     1      32.520 -14.975 -22.602  0.00  0.00    -0.173 OA
ATOM     27  N   UNL     1      34.918 -17.839 -22.503  0.00  0.00    +0.392 N 
ATOM     28  C   UNL     1      34.119 -17.399 -21.346  0.00  0.00    -0.051 C 
ATOM     29  C   UNL     1      34.514 -17.151 -23.741  0.00  0.00    -0.051 C 
ATOM     30  C   UNL     1      34.807 -15.656 -23.691  0.00  0.00    +0.128 C 
ATOM     31  C   UNL     1      34.364 -15.935 -21.000  0.00  0.00    +0.128 C 
ATOM     32  H   UNL     1      35.891 -17.599 -22.317  0.00  0.00    -0.079 HD
ENDBRANCH  23  27
ENDBRANCH   1  23
TORSDOF 4
ENDMDL
MODEL 5
REMARK VINA RESULT:     -11.8      4.063      9.852
REMARK  Name = 49831257
REMARK  4 active torsions:
REMARK  status: ('A' for Active; 'I' for Inactive)
REMARK    1  A    between atoms: C_1  and  C_23
REMARK    2  A    between atoms: C_4  and  C_14
REMARK    3  A    between atoms: C_12  and  C_20
REMARK    4  A    between atoms: C_23  and  N_27
REMARK                            x       y       z     vdW  Elec       q    Type
REMARK                         _______ _______ _______ _____ _____    ______ ____
ROOT
ATOM      1  C   UNL     1      35.379 -20.093 -21.062  0.00  0.00    -0.043 C 
ATOM      2  C   UNL     1      34.112 -20.515 -20.662  0.00  0.00    -0.006 C 
ATOM      3  C   UNL     1      36.498 -20.428 -20.299  0.00  0.00    -0.006 C 
ATOM      4  C   UNL     1      35.082 -21.606 -18.737  0.00  0.00    +0.016 C 
ATOM      5  C   UNL     1      33.963 -21.271 -19.499  0.00  0.00    +0.001 C 
ATOM      6  C   UNL     1      36.351 -21.184 -19.137  0.00  0.00    +0.001 C 
ENDROOT
BRANCH   4  14
ATOM      7  O   UNL     1      29.494 -24.288 -14.888  0.00  0.00    -0.274 OA
ATOM      8  N   UNL     1      30.236 -23.073 -16.769  0.00  0.00    -0.217 N 
ATOM      9  N   UNL     1      33.656 -22.764 -17.014  0.00  0.00    -0.152 N 
ATOM     10  N   UNL     1      32.426 -22.498 -17.532  0.00  0.00    -0.092 NA
ATOM     11  N   UNL     1      32.207 -23.710 -15.610  0.00  0.00    -0.319 NA
ATOM     12  C   UNL     1      29.283 -23.654 -15.913  0.00  0.00    +0.234 C 
ATOM     13  C   UNL     1      31.611 -23.080 -16.656  0.00  0.00    +0.167 C 
ATOM     14  C   UNL     1      34.926 -22.403 -17.508  0.00  0.00    +0.077 C 
ATOM     15  C   UNL     1      33.486 -23.511 -15.839  0.00  0.00    +0.219 C 
ATOM     16  C   UNL     1      36.018 -22.795 -16.817  0.00  0.00    +0.017 C 
ATOM     17  C   UNL     1      34.651 -23.913 -15.131  0.00  0.00    +0.051 C 
ATOM     18  C   UNL     1      35.864 -23.571 -15.599  0.00  0.00    +0.005 C 
ATOM     19  H   UNL     1      29.875 -22.598 -17.553  0.00  0.00    +0.167 HD
BRANCH  12  20
ATOM     20  C   UNL     1      27.864 -23.450 -16.342  0.00  0.00    +0.077 C 
ATOM     21  C   UNL     1      27.530 -22.287 -17.230  0.00  0.00    +0.010 C 
ATOM     22  C   UNL     1      27.095 -22.283 -15.793  0.00  0.00    +0.010 C 
ENDBRANCH  12  20
ENDBRANCH   4  14
BRANCH   1  23
ATOM     23  C   UNL     1      35.540 -19.279 -22.318  0.00  0.00    -0.050 C 
BRANCH  23  27
ATOM     24  S   UNL     1      33.746 -15.135 -22.305  0.00  0.00    -0.014 S 
ATOM     25  O   UNL     1      32.494 -14.410 -22.389  0.00  0.00    -0.173 OA
ATOM     26  O   UNL     1      35.007 -14.436 -22.158  0.00  0.00    -0.173 OA
ATOM     27  N   UNL     1      34.610 -18.146 -22.355  0.00  0.00    +0.392 N 
ATOM     28  C   UNL     1      34.908 -17.291 -23.517  0.00  0.00    -0.051 C 
ATOM     29  C   UNL     1      34.684 -17.397 -21.090  0.00  0.00    -0.051 C 
ATOM     30  C   UNL     1      33.606 -16.323 -20.992  0.00  0.00    +0.128 C 
ATOM     31  C   UNL     1      33.858 -16.205 -23.719  0.00  0.00    +0.128 C 
ATOM     32  H   UNL     1      33.654 -18.487 -22.459  0.00  0.00    -0.079 HD
ENDBRANCH  23  27
ENDBRANCH   1  23
TORSDOF 4
ENDMDL
MODEL 6
REMARK VINA RESULT:     -11.8      2.296      3.389
REMARK  Name = 49831257
REMARK  4 active torsions:
REMARK  status: ('A' for Active; 'I' for Inactive)
REMARK    1  A    between atoms: C_1  and  C_23
REMARK    2  A    between atoms: C_4  and  C_14
REMARK    3  A    between atoms: C_12  and  C_20
REMARK    4  A    between atoms: C_23  and  N_27
REMARK                            x       y       z     vdW  Elec       q    Type
REMARK                         _______ _______ _______ _____ _____    ______ ____
ROOT
ATOM      1  C   UNL     1      33.955 -21.421 -19.487  0.00  0.00    -0.043 C 
ATOM      2  C   UNL     1      32.840 -20.774 -20.018  0.00  0.00    -0.006 C 
ATOM      3  C   UNL     1      35.234 -21.079 -19.925  0.00  0.00    -0.006 C 
ATOM      4  C   UNL     1      34.284 -19.444 -21.426  0.00  0.00    +0.016 C 
ATOM      5  C   UNL     1      33.004 -19.786 -20.988  0.00  0.00    +0.001 C 
ATOM      6  C   UNL     1      35.399 -20.091 -20.894  0.00  0.00    +0.001 C 
ENDROOT
BRANCH   4  14
ATOM      7  O   UNL     1      32.595 -12.375 -22.072  0.00  0.00    -0.274 OA
ATOM      8  N   UNL     1      32.569 -14.333 -20.757  0.00  0.00    -0.217 N 
ATOM      9  N   UNL     1      33.996 -17.082 -22.256  0.00  0.00    -0.152 N 
ATOM     10  N   UNL     1      33.374 -16.544 -21.173  0.00  0.00    -0.092 NA
ATOM     11  N   UNL     1      33.629 -14.950 -22.788  0.00  0.00    -0.319 NA
ATOM     12  C   UNL     1      32.316 -12.979 -21.046  0.00  0.00    +0.234 C 
ATOM     13  C   UNL     1      33.180 -15.281 -21.549  0.00  0.00    +0.167 C 
ATOM     14  C   UNL     1      34.457 -18.400 -22.452  0.00  0.00    +0.077 C 
ATOM     15  C   UNL     1      34.141 -16.079 -23.225  0.00  0.00    +0.219 C 
ATOM     16  C   UNL     1      35.061 -18.702 -23.622  0.00  0.00    +0.017 C 
ATOM     17  C   UNL     1      34.780 -16.421 -24.448  0.00  0.00    +0.051 C 
ATOM     18  C   UNL     1      35.222 -17.677 -24.638  0.00  0.00    +0.005 C 
ATOM     19  H   UNL     1      32.270 -14.644 -19.871  0.00  0.00    +0.167 HD
BRANCH  12  20
ATOM     20  C   UNL     1      31.627 -12.232 -19.947  0.00  0.00    +0.077 C 
ATOM     21  C   UNL     1      30.796 -11.031 -20.292  0.00  0.00    +0.010 C 
ATOM     22  C   UNL     1      32.109 -10.858 -19.584  0.00  0.00    +0.010 C 
ENDBRANCH  12  20
ENDBRANCH   4  14
BRANCH   1  23
ATOM     23  C   UNL     1      33.778 -22.487 -18.438  0.00  0.00    -0.050 C 
BRANCH  23  27
ATOM     24  S   UNL     1      36.873 -23.098 -15.207  0.00  0.00    -0.014 S 
ATOM     25  O   UNL     1      37.556 -22.439 -14.112  0.00  0.00    -0.173 OA
ATOM     26  O   UNL     1      37.157 -24.479 -15.545  0.00  0.00    -0.173 OA
ATOM     27  N   UNL     1      34.691 -22.295 -17.307  0.00  0.00    +0.392 N 
ATOM     28  C   UNL     1      36.083 -22.481 -17.750  0.00  0.00    -0.051 C 
ATOM     29  C   UNL     1      34.334 -23.218 -16.216  0.00  0.00    -0.051 C 
ATOM     30  C   UNL     1      35.123 -22.935 -14.942  0.00  0.00    +0.128 C 
ATOM     31  C   UNL     1      37.088 -22.107 -16.666  0.00  0.00    +0.128 C 
ATOM     32  H   UNL     1      34.603 -21.344 -16.950  0.00  0.00    -0.079 HD
ENDBRANCH  23  27
ENDBRANCH   1  23
TORSDOF 4
ENDMDL
MODEL 7
REMARK VINA RESULT:     -10.7      4.373     10.385
REMARK  Name = 49831257
REMARK  4 active torsions:
REMARK  status: ('A' for Active; 'I' for Inactive)
REMARK    1  A    between atoms: C_1  and  C_23
REMARK    2  A    between atoms: C_4  and  C_14
REMARK    3  A    between atoms: C_12  and  C_20
REMARK    4  A    between atoms: C_23  and  N_27
REMARK                            x       y       z     vdW  Elec       q    Type
REMARK                         _______ _______ _______ _____ _____    ______ ____
ROOT
ATOM      1  C   UNL     1      32.302 -10.520 -21.932  0.00  0.00    -0.043 C 
ATOM      2  C   UNL     1      33.165 -10.356 -23.015  0.00  0.00    -0.006 C 
ATOM      3  C   UNL     1      31.709 -11.760 -21.694  0.00  0.00    -0.006 C 
ATOM      4  C   UNL     1      32.842 -12.672 -23.623  0.00  0.00    +0.016 C 
ATOM      5  C   UNL     1      33.435 -11.432 -23.861  0.00  0.00    +0.001 C 
ATOM      6  C   UNL     1      31.979 -12.837 -22.539  0.00  0.00    +0.001 C 
ENDROOT
BRANCH   4  14
ATOM      7  O   UNL     1      35.186 -19.535 -22.819  0.00  0.00    -0.274 OA
ATOM      8  N   UNL     1      34.592 -17.486 -21.813  0.00  0.00    -0.217 N 
ATOM      9  N   UNL     1      33.586 -15.046 -24.022  0.00  0.00    -0.152 N 
ATOM     10  N   UNL     1      33.820 -15.421 -22.735  0.00  0.00    -0.092 NA
ATOM     11  N   UNL     1      34.281 -17.159 -24.142  0.00  0.00    -0.319 NA
ATOM     12  C   UNL     1      35.033 -18.821 -21.837  0.00  0.00    +0.234 C 
ATOM     13  C   UNL     1      34.232 -16.680 -22.872  0.00  0.00    +0.167 C 
ATOM     14  C   UNL     1      33.126 -13.808 -24.517  0.00  0.00    +0.077 C 
ATOM     15  C   UNL     1      33.874 -16.134 -24.858  0.00  0.00    +0.219 C 
ATOM     16  C   UNL     1      32.958 -13.673 -25.850  0.00  0.00    +0.017 C 
ATOM     17  C   UNL     1      33.688 -15.967 -26.257  0.00  0.00    +0.051 C 
ATOM     18  C   UNL     1      33.248 -14.789 -26.732  0.00  0.00    +0.005 C 
ATOM     19  H   UNL     1      34.531 -17.072 -20.921  0.00  0.00    +0.167 HD
BRANCH  12  20
ATOM     20  C   UNL     1      35.341 -19.394 -20.489  0.00  0.00    +0.077 C 
ATOM     21  C   UNL     1      36.129 -20.668 -20.401  0.00  0.00    +0.010 C 
ATOM     22  C   UNL     1      34.666 -20.665 -20.063  0.00  0.00    +0.010 C 
ENDBRANCH  12  20
ENDBRANCH   4  14
BRANCH   1  23
ATOM     23  C   UNL     1      32.011  -9.359 -21.018  0.00  0.00    -0.050 C 
BRANCH  23  27
ATOM     24  S   UNL     1      31.107  -5.265 -22.693  0.00  0.00    -0.014 S 
ATOM     25  O   UNL     1      31.645  -4.200 -23.516  0.00  0.00    -0.173 OA
ATOM     26  O   UNL     1      29.792  -5.155 -22.092  0.00  0.00    -0.173 OA
ATOM     27  N   UNL     1      32.091  -8.077 -21.724  0.00  0.00    +0.392 N 
ATOM     28  C   UNL     1      32.015  -6.968 -20.757  0.00  0.00    -0.051 C 
ATOM     29  C   UNL     1      31.024  -7.997 -22.736  0.00  0.00    -0.051 C 
ATOM     30  C   UNL     1      31.170  -6.772 -23.632  0.00  0.00    +0.128 C 
ATOM     31  C   UNL     1      32.283  -5.616 -21.409  0.00  0.00    +0.128 C 
ATOM     32  H   UNL     1      32.985  -8.004 -22.209  0.00  0.00    -0.079 HD
ENDBRANCH  23  27
ENDBRANCH   1  23
TORSDOF 4
ENDMDL
MODEL 8
REMARK VINA RESULT:     -10.7      2.360      3.684
REMARK  Name = 49831257
REMARK  4 active torsions:
REMARK  status: ('A' for Active; 'I' for Inactive)
REMARK    1  A    between atoms: C_1  and  C_23
REMARK    2  A    between atoms: C_4  and  C_14
REMARK    3  A    between atoms: C_12  and  C_20
REMARK    4  A    between atoms: C_23  and  N_27
REMARK                            x       y       z     vdW  Elec       q    Type
REMARK                         _______ _______ _______ _____ _____    ______ ____
ROOT
ATOM      1  C   UNL     1      34.666 -21.706 -18.983  0.00  0.00    -0.043 C 
ATOM      2  C   UNL     1      33.455 -21.260 -19.512  0.00  0.00    -0.006 C 
ATOM      3  C   UNL     1      35.871 -21.255 -19.523  0.00  0.00    -0.006 C 
ATOM      4  C   UNL     1      34.653 -19.914 -21.121  0.00  0.00    +0.016 C 
ATOM      5  C   UNL     1      33.449 -20.365 -20.581  0.00  0.00    +0.001 C 
ATOM      6  C   UNL     1      35.865 -20.359 -20.592  0.00  0.00    +0.001 C 
ENDROOT
BRANCH   4  14
ATOM      7  O   UNL     1      32.617 -12.987 -22.168  0.00  0.00    -0.274 OA
ATOM      8  N   UNL     1      32.844 -14.810 -20.690  0.00  0.00    -0.217 N 
ATOM      9  N   UNL     1      34.165 -17.651 -22.115  0.00  0.00    -0.152 N 
ATOM     10  N   UNL     1      33.673 -17.028 -21.009  0.00  0.00    -0.092 NA
ATOM     11  N   UNL     1      33.646 -15.590 -22.783  0.00  0.00    -0.319 NA
ATOM     12  C   UNL     1      32.502 -13.498 -21.063  0.00  0.00    +0.234 C 
ATOM     13  C   UNL     1      33.381 -15.813 -21.469  0.00  0.00    +0.167 C 
ATOM     14  C   UNL     1      34.647 -18.969 -22.251  0.00  0.00    +0.077 C 
ATOM     15  C   UNL     1      34.138 -16.742 -23.181  0.00  0.00    +0.219 C 
ATOM     16  C   UNL     1      35.100 -19.365 -23.460  0.00  0.00    +0.017 C 
ATOM     17  C   UNL     1      34.621 -17.181 -24.444  0.00  0.00    +0.051 C 
ATOM     18  C   UNL     1      35.083 -18.437 -24.578  0.00  0.00    +0.005 C 
ATOM     19  H   UNL     1      32.679 -15.044 -19.747  0.00  0.00    +0.167 HD
BRANCH  12  20
ATOM     20  C   UNL     1      31.938 -12.668 -19.953  0.00  0.00    +0.077 C 
ATOM     21  C   UNL     1      30.945 -11.591 -20.280  0.00  0.00    +0.010 C 
ATOM     22  C   UNL     1      32.334 -11.224 -19.845  0.00  0.00    +0.010 C 
ENDBRANCH  12  20
ENDBRANCH   4  14
BRANCH   1  23
ATOM     23  C   UNL     1      34.674 -22.671 -17.827  0.00  0.00    -0.050 C 
BRANCH  23  27
ATOM     24  S   UNL     1      31.075 -23.396 -15.199  0.00  0.00    -0.014 S 
ATOM     25  O   UNL     1      30.042 -22.730 -14.431  0.00  0.00    -0.173 OA
ATOM     26  O   UNL     1      31.140 -24.843 -15.268  0.00  0.00    -0.173 OA
ATOM     27  N   UNL     1      33.502 -22.497 -16.965  0.00  0.00    +0.392 N 
ATOM     28  C   UNL     1      33.756 -23.104 -15.646  0.00  0.00    -0.051 C 
ATOM     29  C   UNL     1      32.313 -23.075 -17.615  0.00  0.00    -0.051 C 
ATOM     30  C   UNL     1      31.030 -22.757 -16.856  0.00  0.00    +0.128 C 
ATOM     31  C   UNL     1      32.651 -22.790 -14.645  0.00  0.00    +0.128 C 
ATOM     32  H   UNL     1      33.324 -21.503 -16.819  0.00  0.00    -0.079 HD
ENDBRANCH  23  27
ENDBRANCH   1  23
TORSDOF 4
ENDMDL
MODEL 9
REMARK VINA RESULT:     -10.7      5.140      7.762
REMARK  Name = 49831257
REMARK  4 active torsions:
REMARK  status: ('A' for Active; 'I' for Inactive)
REMARK    1  A    between atoms: C_1  and  C_23
REMARK    2  A    between atoms: C_4  and  C_14
REMARK    3  A    between atoms: C_12  and  C_20
REMARK    4  A    between atoms: C_23  and  N_27
REMARK                            x       y       z     vdW  Elec       q    Type
REMARK                         _______ _______ _______ _____ _____    ______ ____
ROOT
ATOM      1  C   UNL     1      33.070 -12.802 -23.589  0.00  0.00    -0.043 C 
ATOM      2  C   UNL     1      33.826 -11.701 -23.990  0.00  0.00    -0.006 C 
ATOM      3  C   UNL     1      32.089 -12.655 -22.608  0.00  0.00    -0.006 C 
ATOM      4  C   UNL     1      32.621 -10.305 -22.429  0.00  0.00    +0.016 C 
ATOM      5  C   UNL     1      33.603 -10.453 -23.409  0.00  0.00    +0.001 C 
ATOM      6  C   UNL     1      31.864 -11.407 -22.028  0.00  0.00    +0.001 C 
ENDROOT
BRANCH   4  14
ATOM      7  O   UNL     1      32.030  -3.431 -24.802  0.00  0.00    -0.274 OA
ATOM      8  N   UNL     1      32.354  -5.711 -25.315  0.00  0.00    -0.217 N 
ATOM      9  N   UNL     1      32.328  -7.808 -22.586  0.00  0.00    -0.152 N 
ATOM     10  N   UNL     1      32.444  -7.658 -23.933  0.00  0.00    -0.092 NA
ATOM     11  N   UNL     1      32.106  -5.622 -22.956  0.00  0.00    -0.319 NA
ATOM     12  C   UNL     1      32.219  -4.340 -25.599  0.00  0.00    +0.234 C 
ATOM     13  C   UNL     1      32.307  -6.343 -24.090  0.00  0.00    +0.167 C 
ATOM     14  C   UNL     1      32.386  -8.987 -21.815  0.00  0.00    +0.077 C 
ATOM     15  C   UNL     1      32.118  -6.543 -22.018  0.00  0.00    +0.219 C 
ATOM     16  C   UNL     1      32.231  -8.887 -20.477  0.00  0.00    +0.017 C 
ATOM     17  C   UNL     1      31.957  -6.464 -20.608  0.00  0.00    +0.051 C 
ATOM     18  C   UNL     1      32.010  -7.586 -19.870  0.00  0.00    +0.005 C 
ATOM     19  H   UNL     1      32.503  -6.297 -26.093  0.00  0.00    +0.167 HD
BRANCH  12  20
ATOM     20  C   UNL     1      32.325  -3.998 -27.053  0.00  0.00    +0.077 C 
ATOM     21  C   UNL     1      33.284  -4.766 -27.914  0.00  0.00    +0.010 C 
ATOM     22  C   UNL     1      33.574  -3.337 -27.559  0.00  0.00    +0.010 C 
ENDBRANCH  12  20
ENDBRANCH   4  14
BRANCH   1  23
ATOM     23  C   UNL     1      33.310 -14.150 -24.217  0.00  0.00    -0.050 C 
BRANCH  23  27
ATOM     24  S   UNL     1      34.764 -17.433 -21.478  0.00  0.00    -0.014 S 
ATOM     25  O   UNL     1      35.928 -17.927 -20.771  0.00  0.00    -0.173 OA
ATOM     26  O   UNL     1      33.490 -18.121 -21.396  0.00  0.00    -0.173 OA
ATOM     27  N   UNL     1      34.135 -15.009 -23.362  0.00  0.00    +0.392 N 
ATOM     28  C   UNL     1      34.200 -16.366 -23.931  0.00  0.00    -0.051 C 
ATOM     29  C   UNL     1      33.595 -15.015 -21.991  0.00  0.00    -0.051 C 
ATOM     30  C   UNL     1      34.515 -15.736 -21.013  0.00  0.00    +0.128 C 
ATOM     31  C   UNL     1      35.195 -17.254 -23.193  0.00  0.00    +0.128 C 
ATOM     32  H   UNL     1      35.086 -14.645 -23.319  0.00  0.00    -0.079 HD
ENDBRANCH  23  27
ENDBRANCH   1  23
TORSDOF 4
ENDMDL
