MODEL 1
REMARK VINA RESULT:     -11.0      0.000      0.000
REMARK  Name = 4472713
REMARK  6 active torsions:
REMARK  status: ('A' for Active; 'I' for Inactive)
REMARK    1  A    between atoms: N_6  and  C_12
REMARK    2  A    between atoms: C_7  and  C_17
REMARK    3  A    between atoms: C_17  and  N_18
REMARK    4  A    between atoms: N_18  and  C_20
REMARK    5  A    between atoms: C_23  and  C_27
REMARK    6  A    between atoms: C_27  and  O_28
REMARK                            x       y       z     vdW  Elec       q    Type
REMARK                         _______ _______ _______ _____ _____    ______ ____
ROOT
ATOM      1  O   UNL     1      37.429 -26.343 -11.736  0.00  0.00    -0.267 OA
ATOM      2  N   UNL     1      38.540 -24.890 -15.418  0.00  0.00    -0.290 N 
ATOM      3  N   UNL     1      35.608 -24.913 -13.166  0.00  0.00    -0.399 NA
ATOM      4  N   UNL     1      39.050 -26.113 -13.405  0.00  0.00    -0.272 N 
ATOM      5  N   UNL     1      36.384 -23.929 -15.680  0.00  0.00    -0.247 NA
ATOM      6  C   UNL     1      34.772 -24.196 -13.941  0.00  0.00    +0.131 C 
ATOM      7  C   UNL     1      36.839 -25.126 -13.675  0.00  0.00    +0.215 C 
ATOM      8  C   UNL     1      37.231 -24.646 -14.913  0.00  0.00    +0.161 C 
ATOM      9  C   UNL     1      35.152 -23.715 -15.174  0.00  0.00    +0.183 C 
ATOM     10  C   UNL     1      37.754 -25.908 -12.831  0.00  0.00    +0.280 C 
ATOM     11  C   UNL     1      39.439 -25.626 -14.654  0.00  0.00    +0.208 C 
ATOM     12  H   UNL     1      38.804 -24.542 -16.300  0.00  0.00    +0.151 HD
ATOM     13  H   UNL     1      39.708 -26.630 -12.886  0.00  0.00    +0.153 HD
ENDROOT
BRANCH  11  14
ATOM     14  N   UNL     1      40.718 -25.874 -15.129  0.00  0.00    -0.290 NA
ATOM     15  H   UNL     1      41.101 -26.779 -15.062  0.00  0.00    +0.122 HD
ATOM     16  H   UNL     1      41.243 -25.146 -15.533  0.00  0.00    +0.122 HD
ENDBRANCH  11  14
BRANCH   6  17
ATOM     17  C   UNL     1      33.402 -23.936 -13.418  0.00  0.00    +0.145 C 
BRANCH  17  18
ATOM     18  N   UNL     1      32.414 -24.809 -14.003  0.00  0.00    -0.327 N 
ATOM     19  H   UNL     1      32.512 -25.779 -13.865  0.00  0.00    +0.147 HD
BRANCH  18  20
ATOM     20  C   UNL     1      31.333 -24.361 -14.747  0.00  0.00    +0.045 C 
ATOM     21  C   UNL     1      31.488 -23.335 -15.697  0.00  0.00    +0.015 C 
ATOM     22  C   UNL     1      30.054 -24.920 -14.570  0.00  0.00    +0.015 C 
ATOM     23  C   UNL     1      29.140 -23.451 -16.256  0.00  0.00    +0.076 C 
ATOM     24  C   UNL     1      30.401 -22.884 -16.446  0.00  0.00    +0.008 C 
ATOM     25  C   UNL     1      28.967 -24.468 -15.318  0.00  0.00    +0.008 C 
BRANCH  23  27
ATOM     26  O   UNL     1      27.391 -23.643 -17.877  0.00  0.00    -0.245 OA
ATOM     27  C   UNL     1      28.008 -22.980 -17.037  0.00  0.00    +0.338 C 
BRANCH  27  28
ATOM     28  O   UNL     1      27.674 -21.692 -16.746  0.00  0.00    -0.477 OA
ATOM     29  H   UNL     1      27.796 -21.362 -15.877  0.00  0.00    +0.295 HD
ENDBRANCH  27  28
ENDBRANCH  23  27
ENDBRANCH  18  20
ENDBRANCH  17  18
ENDBRANCH   6  17
TORSDOF 6
ENDMDL
MODEL 2
REMARK VINA RESULT:     -10.5      9.946     12.302
REMARK  Name = 4472713
REMARK  6 active torsions:
REMARK  status: ('A' for Active; 'I' for Inactive)
REMARK    1  A    between atoms: N_6  and  C_12
REMARK    2  A    between atoms: C_7  and  C_17
REMARK    3  A    between atoms: C_17  and  N_18
REMARK    4  A    between atoms: N_18  and  C_20
REMARK    5  A    between atoms: C_23  and  C_27
REMARK    6  A    between atoms: C_27  and  O_28
REMARK                            x       y       z     vdW  Elec       q    Type
REMARK                         _______ _______ _______ _____ _____    ______ ____
ROOT
ATOM      1  O   UNL     1      33.269 -15.538 -26.610  0.00  0.00    -0.267 OA
ATOM      2  N   UNL     1      34.162 -13.152 -23.382  0.00  0.00    -0.290 N 
ATOM      3  N   UNL     1      34.208 -16.721 -24.345  0.00  0.00    -0.399 NA
ATOM      4  N   UNL     1      33.381 -13.410 -25.648  0.00  0.00    -0.272 N 
ATOM      5  N   UNL     1      34.811 -15.076 -22.151  0.00  0.00    -0.247 NA
ATOM      6  C   UNL     1      34.677 -17.221 -23.186  0.00  0.00    +0.131 C 
ATOM      7  C   UNL     1      34.048 -15.382 -24.383  0.00  0.00    +0.215 C 
ATOM      8  C   UNL     1      34.342 -14.563 -23.307  0.00  0.00    +0.161 C 
ATOM      9  C   UNL     1      34.971 -16.415 -22.110  0.00  0.00    +0.183 C 
ATOM     10  C   UNL     1      33.537 -14.834 -25.647  0.00  0.00    +0.280 C 
ATOM     11  C   UNL     1      33.679 -12.589 -24.559  0.00  0.00    +0.208 C 
ATOM     12  H   UNL     1      34.375 -12.582 -22.609  0.00  0.00    +0.151 HD
ATOM     13  H   UNL     1      33.042 -12.983 -26.468  0.00  0.00    +0.153 HD
ENDROOT
BRANCH  11  14
ATOM     14  N   UNL     1      33.497 -11.217 -24.652  0.00  0.00    -0.290 NA
ATOM     15  H   UNL     1      34.193 -10.656 -25.065  0.00  0.00    +0.122 HD
ATOM     16  H   UNL     1      32.674 -10.805 -24.305  0.00  0.00    +0.122 HD
ENDBRANCH  11  14
BRANCH   6  17
ATOM     17  C   UNL     1      34.869 -18.695 -23.101  0.00  0.00    +0.145 C 
BRANCH  17  18
ATOM     18  N   UNL     1      35.575 -19.091 -21.907  0.00  0.00    -0.327 N 
ATOM     19  H   UNL     1      36.465 -18.702 -21.744  0.00  0.00    +0.147 HD
BRANCH  18  20
ATOM     20  C   UNL     1      35.073 -19.986 -20.975  0.00  0.00    +0.045 C 
ATOM     21  C   UNL     1      33.690 -20.075 -20.732  0.00  0.00    +0.015 C 
ATOM     22  C   UNL     1      35.933 -20.829 -20.247  0.00  0.00    +0.015 C 
ATOM     23  C   UNL     1      34.053 -21.803 -19.084  0.00  0.00    +0.076 C 
ATOM     24  C   UNL     1      33.184 -20.975 -19.795  0.00  0.00    +0.008 C 
ATOM     25  C   UNL     1      35.428 -21.729 -19.310  0.00  0.00    +0.008 C 
BRANCH  23  27
ATOM     26  O   UNL     1      34.193 -23.560 -17.466  0.00  0.00    -0.245 OA
ATOM     27  C   UNL     1      33.526 -22.741 -18.107  0.00  0.00    +0.338 C 
BRANCH  27  28
ATOM     28  O   UNL     1      32.176 -22.632 -17.956  0.00  0.00    -0.477 OA
ATOM     29  H   UNL     1      31.825 -22.118 -17.255  0.00  0.00    +0.295 HD
ENDBRANCH  27  28
ENDBRANCH  23  27
ENDBRANCH  18  20
ENDBRANCH  17  18
ENDBRANCH   6  17
TORSDOF 6
ENDMDL
MODEL 3
REMARK VINA RESULT:     -10.4      1.336      2.023
REMARK  Name = 4472713
REMARK  6 active torsions:
REMARK  status: ('A' for Active; 'I' for Inactive)
REMARK    1  A    between atoms: N_6  and  C_12
REMARK    2  A    between atoms: C_7  and  C_17
REMARK    3  A    between atoms: C_17  and  N_18
REMARK    4  A    between atoms: N_18  and  C_20
REMARK    5  A    between atoms: C_23  and  C_27
REMARK    6  A    between atoms: C_27  and  O_28
REMARK                            x       y       z     vdW  Elec       q    Type
REMARK                         _______ _______ _______ _____ _____    ______ ____
ROOT
ATOM      1  O   UNL     1      36.493 -26.937 -15.798  0.00  0.00    -0.267 OA
ATOM      2  N   UNL     1      39.129 -25.025 -13.288  0.00  0.00    -0.290 N 
ATOM      3  N   UNL     1      35.508 -25.119 -14.028  0.00  0.00    -0.399 NA
ATOM      4  N   UNL     1      38.685 -26.604 -15.053  0.00  0.00    -0.272 N 
ATOM      5  N   UNL     1      37.323 -23.822 -12.323  0.00  0.00    -0.247 NA
ATOM      6  C   UNL     1      35.109 -24.206 -13.123  0.00  0.00    +0.131 C 
ATOM      7  C   UNL     1      36.833 -25.369 -14.061  0.00  0.00    +0.215 C 
ATOM      8  C   UNL     1      37.736 -24.735 -13.225  0.00  0.00    +0.161 C 
ATOM      9  C   UNL     1      35.998 -23.569 -12.288  0.00  0.00    +0.183 C 
ATOM     10  C   UNL     1      37.271 -26.366 -15.048  0.00  0.00    +0.280 C 
ATOM     11  C   UNL     1      39.589 -25.962 -14.207  0.00  0.00    +0.208 C 
ATOM     12  H   UNL     1      39.759 -24.566 -12.686  0.00  0.00    +0.151 HD
ATOM     13  H   UNL     1      39.039 -27.263 -15.693  0.00  0.00    +0.153 HD
ENDROOT
BRANCH  11  14
ATOM     14  N   UNL     1      40.942 -26.258 -14.282  0.00  0.00    -0.290 NA
ATOM     15  H   UNL     1      41.471 -25.946 -15.052  0.00  0.00    +0.122 HD
ATOM     16  H   UNL     1      41.373 -26.779 -13.567  0.00  0.00    +0.122 HD
ENDBRANCH  11  14
BRANCH   6  17
ATOM     17  C   UNL     1      33.653 -23.899 -13.052  0.00  0.00    +0.145 C 
BRANCH  17  18
ATOM     18  N   UNL     1      32.864 -24.771 -13.887  0.00  0.00    -0.327 N 
ATOM     19  H   UNL     1      33.121 -25.720 -13.940  0.00  0.00    +0.147 HD
BRANCH  18  20
ATOM     20  C   UNL     1      31.765 -24.349 -14.619  0.00  0.00    +0.045 C 
ATOM     21  C   UNL     1      30.500 -24.932 -14.420  0.00  0.00    +0.015 C 
ATOM     22  C   UNL     1      31.885 -23.329 -15.580  0.00  0.00    +0.015 C 
ATOM     23  C   UNL     1      29.533 -23.495 -16.104  0.00  0.00    +0.076 C 
ATOM     24  C   UNL     1      29.393 -24.508 -15.156  0.00  0.00    +0.008 C 
ATOM     25  C   UNL     1      30.779 -22.906 -16.317  0.00  0.00    +0.008 C 
BRANCH  23  27
ATOM     26  O   UNL     1      27.983 -21.887 -16.964  0.00  0.00    -0.245 OA
ATOM     27  C   UNL     1      28.380 -23.054 -16.871  0.00  0.00    +0.338 C 
BRANCH  27  28
ATOM     28  O   UNL     1      27.751 -24.083 -17.504  0.00  0.00    -0.477 OA
ATOM     29  H   UNL     1      27.030 -24.516 -17.091  0.00  0.00    +0.295 HD
ENDBRANCH  27  28
ENDBRANCH  23  27
ENDBRANCH  18  20
ENDBRANCH  17  18
ENDBRANCH   6  17
TORSDOF 6
ENDMDL
MODEL 4
REMARK VINA RESULT:     -10.4     10.175     12.482
REMARK  Name = 4472713
REMARK  6 active torsions:
REMARK  status: ('A' for Active; 'I' for Inactive)
REMARK    1  A    between atoms: N_6  and  C_12
REMARK    2  A    between atoms: C_7  and  C_17
REMARK    3  A    between atoms: C_17  and  N_18
REMARK    4  A    between atoms: N_18  and  C_20
REMARK    5  A    between atoms: C_23  and  C_27
REMARK    6  A    between atoms: C_27  and  O_28
REMARK                            x       y       z     vdW  Elec       q    Type
REMARK                         _______ _______ _______ _____ _____    ______ ____
ROOT
ATOM      1  O   UNL     1      33.671 -12.884 -23.116  0.00  0.00    -0.267 OA
ATOM      2  N   UNL     1      33.348 -15.156 -26.527  0.00  0.00    -0.290 N 
ATOM      3  N   UNL     1      34.433 -15.495 -23.010  0.00  0.00    -0.399 NA
ATOM      4  N   UNL     1      33.084 -13.058 -25.372  0.00  0.00    -0.272 N 
ATOM      5  N   UNL     1      34.207 -17.031 -25.350  0.00  0.00    -0.247 NA
ATOM      6  C   UNL     1      34.787 -16.793 -23.047  0.00  0.00    +0.131 C 
ATOM      7  C   UNL     1      33.964 -14.982 -24.165  0.00  0.00    +0.215 C 
ATOM      8  C   UNL     1      33.849 -15.731 -25.324  0.00  0.00    +0.161 C 
ATOM      9  C   UNL     1      34.678 -17.546 -24.195  0.00  0.00    +0.183 C 
ATOM     10  C   UNL     1      33.576 -13.565 -24.126  0.00  0.00    +0.280 C 
ATOM     11  C   UNL     1      32.970 -13.818 -26.537  0.00  0.00    +0.208 C 
ATOM     12  H   UNL     1      33.272 -15.701 -27.344  0.00  0.00    +0.151 HD
ATOM     13  H   UNL     1      32.808 -12.113 -25.409  0.00  0.00    +0.153 HD
ENDROOT
BRANCH  11  14
ATOM     14  N   UNL     1      32.480 -13.241 -27.699  0.00  0.00    -0.290 NA
ATOM     15  H   UNL     1      32.568 -13.714 -28.558  0.00  0.00    +0.122 HD
ATOM     16  H   UNL     1      32.045 -12.359 -27.665  0.00  0.00    +0.122 HD
ENDBRANCH  11  14
BRANCH   6  17
ATOM     17  C   UNL     1      35.311 -17.401 -21.792  0.00  0.00    +0.145 C 
BRANCH  17  18
ATOM     18  N   UNL     1      35.541 -18.819 -21.921  0.00  0.00    -0.327 N 
ATOM     19  H   UNL     1      36.088 -19.134 -22.676  0.00  0.00    +0.147 HD
BRANCH  18  20
ATOM     20  C   UNL     1      35.036 -19.765 -21.041  0.00  0.00    +0.045 C 
ATOM     21  C   UNL     1      35.898 -20.587 -20.294  0.00  0.00    +0.015 C 
ATOM     22  C   UNL     1      33.648 -19.926 -20.874  0.00  0.00    +0.015 C 
ATOM     23  C   UNL     1      34.012 -21.683 -19.257  0.00  0.00    +0.076 C 
ATOM     24  C   UNL     1      35.391 -21.538 -19.409  0.00  0.00    +0.008 C 
ATOM     25  C   UNL     1      33.141 -20.877 -19.989  0.00  0.00    +0.008 C 
BRANCH  23  27
ATOM     26  O   UNL     1      34.123 -23.612 -17.845  0.00  0.00    -0.245 OA
ATOM     27  C   UNL     1      33.484 -22.675 -18.334  0.00  0.00    +0.338 C 
BRANCH  27  28
ATOM     28  O   UNL     1      32.169 -22.469 -18.044  0.00  0.00    -0.477 OA
ATOM     29  H   UNL     1      31.871 -22.526 -17.158  0.00  0.00    +0.295 HD
ENDBRANCH  27  28
ENDBRANCH  23  27
ENDBRANCH  18  20
ENDBRANCH  17  18
ENDBRANCH   6  17
TORSDOF 6
ENDMDL
MODEL 5
REMARK VINA RESULT:     -10.3      4.423      5.182
REMARK  Name = 4472713
REMARK  6 active torsions:
REMARK  status: ('A' for Active; 'I' for Inactive)
REMARK    1  A    between atoms: N_6  and  C_12
REMARK    2  A    between atoms: C_7  and  C_17
REMARK    3  A    between atoms: C_17  and  N_18
REMARK    4  A    between atoms: N_18  and  C_20
REMARK    5  A    between atoms: C_23  and  C_27
REMARK    6  A    between atoms: C_27  and  O_28
REMARK                            x       y       z     vdW  Elec       q    Type
REMARK                         _______ _______ _______ _____ _____    ______ ____
ROOT
ATOM      1  O   UNL     1      36.194 -27.375 -15.195  0.00  0.00    -0.267 OA
ATOM      2  N   UNL     1      39.053 -24.498 -14.519  0.00  0.00    -0.290 N 
ATOM      3  N   UNL     1      35.558 -24.775 -15.693  0.00  0.00    -0.399 NA
ATOM      4  N   UNL     1      38.356 -26.805 -14.510  0.00  0.00    -0.272 N 
ATOM      5  N   UNL     1      37.523 -22.825 -15.227  0.00  0.00    -0.247 NA
ATOM      6  C   UNL     1      35.330 -23.467 -15.912  0.00  0.00    +0.131 C 
ATOM      7  C   UNL     1      36.788 -25.087 -15.236  0.00  0.00    +0.215 C 
ATOM      8  C   UNL     1      37.764 -24.133 -15.003  0.00  0.00    +0.161 C 
ATOM      9  C   UNL     1      36.294 -22.510 -15.685  0.00  0.00    +0.183 C 
ATOM     10  C   UNL     1      37.039 -26.515 -14.995  0.00  0.00    +0.280 C 
ATOM     11  C   UNL     1      39.335 -25.838 -14.277  0.00  0.00    +0.208 C 
ATOM     12  H   UNL     1      39.736 -23.808 -14.358  0.00  0.00    +0.151 HD
ATOM     13  H   UNL     1      38.584 -27.746 -14.330  0.00  0.00    +0.153 HD
ENDROOT
BRANCH  11  14
ATOM     14  N   UNL     1      40.584 -26.213 -13.805  0.00  0.00    -0.290 NA
ATOM     15  H   UNL     1      41.356 -25.615 -13.929  0.00  0.00    +0.122 HD
ATOM     16  H   UNL     1      40.699 -27.077 -13.348  0.00  0.00    +0.122 HD
ENDBRANCH  11  14
BRANCH   6  17
ATOM     17  C   UNL     1      33.984 -23.078 -16.417  0.00  0.00    +0.145 C 
BRANCH  17  18
ATOM     18  N   UNL     1      33.869 -23.223 -17.848  0.00  0.00    -0.327 N 
ATOM     19  H   UNL     1      33.580 -24.094 -18.204  0.00  0.00    +0.147 HD
BRANCH  18  20
ATOM     20  C   UNL     1      34.141 -22.206 -18.750  0.00  0.00    +0.045 C 
ATOM     21  C   UNL     1      35.464 -21.910 -19.126  0.00  0.00    +0.015 C 
ATOM     22  C   UNL     1      33.101 -21.443 -19.313  0.00  0.00    +0.015 C 
ATOM     23  C   UNL     1      34.693 -20.142 -20.581  0.00  0.00    +0.076 C 
ATOM     24  C   UNL     1      35.738 -20.887 -20.034  0.00  0.00    +0.008 C 
ATOM     25  C   UNL     1      33.374 -20.420 -20.220  0.00  0.00    +0.008 C 
BRANCH  23  27
ATOM     26  O   UNL     1      34.880 -19.162 -22.756  0.00  0.00    -0.245 OA
ATOM     27  C   UNL     1      34.979 -19.076 -21.527  0.00  0.00    +0.338 C 
BRANCH  27  28
ATOM     28  O   UNL     1      35.380 -17.928 -20.913  0.00  0.00    -0.477 OA
ATOM     29  H   UNL     1      36.293 -17.768 -20.773  0.00  0.00    +0.295 HD
ENDBRANCH  27  28
ENDBRANCH  23  27
ENDBRANCH  18  20
ENDBRANCH  17  18
ENDBRANCH   6  17
TORSDOF 6
ENDMDL
MODEL 6
REMARK VINA RESULT:     -10.2      5.208      6.628
REMARK  Name = 4472713
REMARK  6 active torsions:
REMARK  status: ('A' for Active; 'I' for Inactive)
REMARK    1  A    between atoms: N_6  and  C_12
REMARK    2  A    between atoms: C_7  and  C_17
REMARK    3  A    between atoms: C_17  and  N_18
REMARK    4  A    between atoms: N_18  and  C_20
REMARK    5  A    between atoms: C_23  and  C_27
REMARK    6  A    between atoms: C_27  and  O_28
REMARK                            x       y       z     vdW  Elec       q    Type
REMARK                         _______ _______ _______ _____ _____    ______ ____
ROOT
ATOM      1  O   UNL     1      37.339 -23.887 -15.384  0.00  0.00    -0.267 OA
ATOM      2  N   UNL     1      34.041 -24.400 -12.982  0.00  0.00    -0.290 N 
ATOM      3  N   UNL     1      34.876 -23.439 -16.453  0.00  0.00    -0.399 NA
ATOM      4  N   UNL     1      36.430 -24.441 -13.302  0.00  0.00    -0.272 N 
ATOM      5  N   UNL     1      32.636 -23.793 -14.798  0.00  0.00    -0.247 NA
ATOM      6  C   UNL     1      33.622 -23.239 -16.899  0.00  0.00    +0.131 C 
ATOM      7  C   UNL     1      34.986 -23.820 -15.164  0.00  0.00    +0.215 C 
ATOM      8  C   UNL     1      33.888 -23.997 -14.340  0.00  0.00    +0.161 C 
ATOM      9  C   UNL     1      32.523 -23.411 -16.087  0.00  0.00    +0.183 C 
ATOM     10  C   UNL     1      36.355 -24.039 -14.675  0.00  0.00    +0.280 C 
ATOM     11  C   UNL     1      35.319 -24.618 -12.477  0.00  0.00    +0.208 C 
ATOM     12  H   UNL     1      33.251 -24.522 -12.408  0.00  0.00    +0.151 HD
ATOM     13  H   UNL     1      37.321 -24.604 -12.917  0.00  0.00    +0.153 HD
ENDROOT
BRANCH  11  14
ATOM     14  N   UNL     1      35.488 -25.012 -11.157  0.00  0.00    -0.290 NA
ATOM     15  H   UNL     1      34.764 -25.488 -10.690  0.00  0.00    +0.122 HD
ATOM     16  H   UNL     1      36.330 -24.814 -10.689  0.00  0.00    +0.122 HD
ENDBRANCH  11  14
BRANCH   6  17
ATOM     17  C   UNL     1      33.454 -22.819 -18.318  0.00  0.00    +0.145 C 
BRANCH  17  18
ATOM     18  N   UNL     1      34.705 -22.455 -18.936  0.00  0.00    -0.327 N 
ATOM     19  H   UNL     1      35.471 -23.064 -18.827  0.00  0.00    +0.147 HD
BRANCH  18  20
ATOM     20  C   UNL     1      34.892 -21.297 -19.676  0.00  0.00    +0.045 C 
ATOM     21  C   UNL     1      33.793 -20.586 -20.191  0.00  0.00    +0.015 C 
ATOM     22  C   UNL     1      36.185 -20.804 -19.931  0.00  0.00    +0.015 C 
ATOM     23  C   UNL     1      35.269 -18.949 -21.178  0.00  0.00    +0.076 C 
ATOM     24  C   UNL     1      33.980 -19.421 -20.935  0.00  0.00    +0.008 C 
ATOM     25  C   UNL     1      36.372 -19.640 -20.676  0.00  0.00    +0.008 C 
BRANCH  23  27
ATOM     26  O   UNL     1      35.069 -16.608 -21.634  0.00  0.00    -0.245 OA
ATOM     27  C   UNL     1      35.464 -17.734 -21.954  0.00  0.00    +0.338 C 
BRANCH  27  28
ATOM     28  O   UNL     1      36.148 -17.959 -23.110  0.00  0.00    -0.477 OA
ATOM     29  H   UNL     1      36.963 -17.523 -23.263  0.00  0.00    +0.295 HD
ENDBRANCH  27  28
ENDBRANCH  23  27
ENDBRANCH  18  20
ENDBRANCH  17  18
ENDBRANCH   6  17
TORSDOF 6
ENDMDL
MODEL 7
REMARK VINA RESULT:     -10.0      9.379     11.726
REMARK  Name = 4472713
REMARK  6 active torsions:
REMARK  status: ('A' for Active; 'I' for Inactive)
REMARK    1  A    between atoms: N_6  and  C_12
REMARK    2  A    between atoms: C_7  and  C_17
REMARK    3  A    between atoms: C_17  and  N_18
REMARK    4  A    between atoms: N_18  and  C_20
REMARK    5  A    between atoms: C_23  and  C_27
REMARK    6  A    between atoms: C_27  and  O_28
REMARK                            x       y       z     vdW  Elec       q    Type
REMARK                         _______ _______ _______ _____ _____    ______ ____
ROOT
ATOM      1  O   UNL     1      33.448 -15.206 -19.949  0.00  0.00    -0.267 OA
ATOM      2  N   UNL     1      32.679 -13.625 -23.665  0.00  0.00    -0.290 N 
ATOM      3  N   UNL     1      34.374 -16.533 -22.137  0.00  0.00    -0.399 NA
ATOM      4  N   UNL     1      32.492 -13.527 -21.264  0.00  0.00    -0.272 N 
ATOM      5  N   UNL     1      33.840 -15.438 -24.667  0.00  0.00    -0.247 NA
ATOM      6  C   UNL     1      34.794 -17.122 -23.273  0.00  0.00    +0.131 C 
ATOM      7  C   UNL     1      33.682 -15.386 -22.294  0.00  0.00    +0.215 C 
ATOM      8  C   UNL     1      33.414 -14.838 -23.537  0.00  0.00    +0.161 C 
ATOM      9  C   UNL     1      34.534 -16.585 -24.513  0.00  0.00    +0.183 C 
ATOM     10  C   UNL     1      33.222 -14.742 -21.056  0.00  0.00    +0.280 C 
ATOM     11  C   UNL     1      32.224 -12.979 -22.520  0.00  0.00    +0.208 C 
ATOM     12  H   UNL     1      32.496 -13.247 -24.555  0.00  0.00    +0.151 HD
ATOM     13  H   UNL     1      32.157 -13.048 -20.472  0.00  0.00    +0.153 HD
ENDROOT
BRANCH  11  14
ATOM     14  N   UNL     1      31.507 -11.797 -22.625  0.00  0.00    -0.290 NA
ATOM     15  H   UNL     1      30.936 -11.501 -21.879  0.00  0.00    +0.122 HD
ATOM     16  H   UNL     1      31.568 -11.255 -23.444  0.00  0.00    +0.122 HD
ENDBRANCH  11  14
BRANCH   6  17
ATOM     17  C   UNL     1      35.562 -18.392 -23.146  0.00  0.00    +0.145 C 
BRANCH  17  18
ATOM     18  N   UNL     1      35.937 -18.675 -21.782  0.00  0.00    -0.327 N 
ATOM     19  H   UNL     1      36.662 -18.144 -21.380  0.00  0.00    +0.147 HD
BRANCH  18  20
ATOM     20  C   UNL     1      35.335 -19.653 -21.004  0.00  0.00    +0.045 C 
ATOM     21  C   UNL     1      33.934 -19.746 -20.922  0.00  0.00    +0.015 C 
ATOM     22  C   UNL     1      36.110 -20.575 -20.277  0.00  0.00    +0.015 C 
ATOM     23  C   UNL     1      34.113 -21.635 -19.426  0.00  0.00    +0.076 C 
ATOM     24  C   UNL     1      33.328 -20.729 -20.139  0.00  0.00    +0.008 C 
ATOM     25  C   UNL     1      35.504 -21.558 -19.494  0.00  0.00    +0.008 C 
BRANCH  23  27
ATOM     26  O   UNL     1      33.973 -23.757 -18.329  0.00  0.00    -0.245 OA
ATOM     27  C   UNL     1      33.480 -22.659 -18.611  0.00  0.00    +0.338 C 
BRANCH  27  28
ATOM     28  O   UNL     1      32.248 -22.285 -18.167  0.00  0.00    -0.477 OA
ATOM     29  H   UNL     1      31.978 -21.390 -18.237  0.00  0.00    +0.295 HD
ENDBRANCH  27  28
ENDBRANCH  23  27
ENDBRANCH  18  20
ENDBRANCH  17  18
ENDBRANCH   6  17
TORSDOF 6
ENDMDL
MODEL 8
REMARK VINA RESULT:     -10.0      4.726      5.815
REMARK  Name = 4472713
REMARK  6 active torsions:
REMARK  status: ('A' for Active; 'I' for Inactive)
REMARK    1  A    between atoms: N_6  and  C_12
REMARK    2  A    between atoms: C_7  and  C_17
REMARK    3  A    between atoms: C_17  and  N_18
REMARK    4  A    between atoms: N_18  and  C_20
REMARK    5  A    between atoms: C_23  and  C_27
REMARK    6  A    between atoms: C_27  and  O_28
REMARK                            x       y       z     vdW  Elec       q    Type
REMARK                         _______ _______ _______ _____ _____    ______ ____
ROOT
ATOM      1  O   UNL     1      37.554 -23.194 -15.885  0.00  0.00    -0.267 OA
ATOM      2  N   UNL     1      35.428 -24.332 -12.554  0.00  0.00    -0.290 N 
ATOM      3  N   UNL     1      34.842 -23.350 -16.069  0.00  0.00    -0.399 NA
ATOM      4  N   UNL     1      37.525 -23.853 -13.641  0.00  0.00    -0.272 N 
ATOM      5  N   UNL     1      33.408 -24.127 -13.784  0.00  0.00    -0.247 NA
ATOM      6  C   UNL     1      33.500 -23.453 -16.071  0.00  0.00    +0.131 C 
ATOM      7  C   UNL     1      35.451 -23.644 -14.902  0.00  0.00    +0.215 C 
ATOM      8  C   UNL     1      34.753 -24.028 -13.770  0.00  0.00    +0.161 C 
ATOM      9  C   UNL     1      32.796 -23.833 -14.950  0.00  0.00    +0.183 C 
ATOM     10  C   UNL     1      36.916 -23.533 -14.898  0.00  0.00    +0.280 C 
ATOM     11  C   UNL     1      36.816 -24.240 -12.504  0.00  0.00    +0.208 C 
ATOM     12  H   UNL     1      34.919 -24.604 -11.757  0.00  0.00    +0.151 HD
ATOM     13  H   UNL     1      38.506 -23.797 -13.576  0.00  0.00    +0.153 HD
ENDROOT
BRANCH  11  14
ATOM     14  N   UNL     1      37.491 -24.533 -11.328  0.00  0.00    -0.290 NA
ATOM     15  H   UNL     1      37.037 -24.427 -10.461  0.00  0.00    +0.122 HD
ATOM     16  H   UNL     1      38.424 -24.845 -11.361  0.00  0.00    +0.122 HD
ENDBRANCH  11  14
BRANCH   6  17
ATOM     17  C   UNL     1      32.787 -23.137 -17.339  0.00  0.00    +0.145 C 
BRANCH  17  18
ATOM     18  N   UNL     1      33.658 -23.184 -18.488  0.00  0.00    -0.327 N 
ATOM     19  H   UNL     1      34.023 -24.058 -18.758  0.00  0.00    +0.147 HD
BRANCH  18  20
ATOM     20  C   UNL     1      34.012 -22.070 -19.233  0.00  0.00    +0.045 C 
ATOM     21  C   UNL     1      35.363 -21.778 -19.497  0.00  0.00    +0.015 C 
ATOM     22  C   UNL     1      33.029 -21.202 -19.744  0.00  0.00    +0.015 C 
ATOM     23  C   UNL     1      34.730 -19.808 -20.745  0.00  0.00    +0.076 C 
ATOM     24  C   UNL     1      35.718 -20.657 -20.247  0.00  0.00    +0.008 C 
ATOM     25  C   UNL     1      33.385 -20.080 -20.493  0.00  0.00    +0.008 C 
BRANCH  23  27
ATOM     26  O   UNL     1      35.058 -18.558 -22.759  0.00  0.00    -0.245 OA
ATOM     27  C   UNL     1      35.101 -18.640 -21.527  0.00  0.00    +0.338 C 
BRANCH  27  28
ATOM     28  O   UNL     1      35.517 -17.603 -20.748  0.00  0.00    -0.477 OA
ATOM     29  H   UNL     1      35.416 -16.722 -21.050  0.00  0.00    +0.295 HD
ENDBRANCH  27  28
ENDBRANCH  23  27
ENDBRANCH  18  20
ENDBRANCH  17  18
ENDBRANCH   6  17
TORSDOF 6
ENDMDL
MODEL 9
REMARK VINA RESULT:      -9.9      9.460     11.922
REMARK  Name = 4472713
REMARK  6 active torsions:
REMARK  status: ('A' for Active; 'I' for Inactive)
REMARK    1  A    between atoms: N_6  and  C_12
REMARK    2  A    between atoms: C_7  and  C_17
REMARK    3  A    between atoms: C_17  and  N_18
REMARK    4  A    between atoms: N_18  and  C_20
REMARK    5  A    between atoms: C_23  and  C_27
REMARK    6  A    between atoms: C_27  and  O_28
REMARK                            x       y       z     vdW  Elec       q    Type
REMARK                         _______ _______ _______ _____ _____    ______ ____
ROOT
ATOM      1  O   UNL     1      33.480 -14.484 -25.023  0.00  0.00    -0.267 OA
ATOM      2  N   UNL     1      32.502 -13.452 -21.165  0.00  0.00    -0.290 N 
ATOM      3  N   UNL     1      34.545 -15.939 -22.983  0.00  0.00    -0.399 NA
ATOM      4  N   UNL     1      32.321 -13.095 -23.541  0.00  0.00    -0.272 N 
ATOM      5  N   UNL     1      33.865 -15.220 -20.355  0.00  0.00    -0.247 NA
ATOM      6  C   UNL     1      35.024 -16.604 -21.915  0.00  0.00    +0.131 C 
ATOM      7  C   UNL     1      33.719 -14.909 -22.709  0.00  0.00    +0.215 C 
ATOM      8  C   UNL     1      33.377 -14.546 -21.418  0.00  0.00    +0.161 C 
ATOM      9  C   UNL     1      34.690 -16.252 -20.627  0.00  0.00    +0.183 C 
ATOM     10  C   UNL     1      33.194 -14.182 -23.874  0.00  0.00    +0.280 C 
ATOM     11  C   UNL     1      31.981 -12.735 -22.237  0.00  0.00    +0.208 C 
ATOM     12  H   UNL     1      32.268 -13.206 -20.241  0.00  0.00    +0.151 HD
ATOM     13  H   UNL     1      31.937 -12.569 -24.280  0.00  0.00    +0.153 HD
ENDROOT
BRANCH  11  14
ATOM     14  N   UNL     1      31.127 -11.665 -22.011  0.00  0.00    -0.290 NA
ATOM     15  H   UNL     1      30.450 -11.719 -21.298  0.00  0.00    +0.122 HD
ATOM     16  H   UNL     1      31.198 -10.853 -22.563  0.00  0.00    +0.122 HD
ENDBRANCH  11  14
BRANCH   6  17
ATOM     17  C   UNL     1      35.941 -17.749 -22.172  0.00  0.00    +0.145 C 
BRANCH  17  18
ATOM     18  N   UNL     1      35.231 -18.985 -22.393  0.00  0.00    -0.327 N 
ATOM     19  H   UNL     1      35.004 -19.231 -23.319  0.00  0.00    +0.147 HD
BRANCH  18  20
ATOM     20  C   UNL     1      34.849 -19.847 -21.376  0.00  0.00    +0.045 C 
ATOM     21  C   UNL     1      35.804 -20.614 -20.685  0.00  0.00    +0.015 C 
ATOM     22  C   UNL     1      33.496 -19.977 -21.011  0.00  0.00    +0.015 C 
ATOM     23  C   UNL     1      34.075 -21.596 -19.314  0.00  0.00    +0.076 C 
ATOM     24  C   UNL     1      35.420 -21.481 -19.662  0.00  0.00    +0.008 C 
ATOM     25  C   UNL     1      33.112 -20.845 -19.988  0.00  0.00    +0.008 C 
BRANCH  23  27
ATOM     26  O   UNL     1      34.446 -23.148 -17.530  0.00  0.00    -0.245 OA
ATOM     27  C   UNL     1      33.675 -22.500 -18.247  0.00  0.00    +0.338 C 
BRANCH  27  28
ATOM     28  O   UNL     1      32.323 -22.571 -18.104  0.00  0.00    -0.477 OA
ATOM     29  H   UNL     1      31.928 -23.354 -17.772  0.00  0.00    +0.295 HD
ENDBRANCH  27  28
ENDBRANCH  23  27
ENDBRANCH  18  20
ENDBRANCH  17  18
ENDBRANCH   6  17
TORSDOF 6
ENDMDL
