MODEL 1
REMARK VINA RESULT:      -9.0      0.000      0.000
REMARK  Name = 155815
REMARK  9 active torsions:
REMARK  status: ('A' for Active; 'I' for Inactive)
REMARK    1  A    between atoms: N_1  and  C_25
REMARK    2  A    between atoms: C_2  and  C_17
REMARK    3  A    between atoms: C_5  and  C_11
REMARK    4  A    between atoms: C_6  and  O_19
REMARK    5  A    between atoms: C_11  and  C_14
REMARK    6  A    between atoms: O_19  and  C_20
REMARK    7  A    between atoms: C_20  and  C_22
REMARK    8  A    between atoms: C_22  and  O_23
REMARK    9  A    between atoms: C_25  and  C_26
REMARK                            x       y       z     vdW  Elec       q    Type
REMARK                         _______ _______ _______ _____ _____    ______ ____
ROOT
ATOM      1  N   UNL     1      33.670  -8.696 -23.155  0.00  0.00    -0.326 N 
ATOM      2  C   UNL     1      32.693  -9.211 -22.347  0.00  0.00    +0.041 A 
ATOM      3  C   UNL     1      34.085  -9.644 -24.062  0.00  0.00    +0.063 A 
ATOM      4  C   UNL     1      33.341 -10.801 -23.816  0.00  0.00    +0.054 A 
ATOM      5  C   UNL     1      32.468 -10.513 -22.731  0.00  0.00    +0.060 A 
ATOM      6  C   UNL     1      33.573 -11.938 -24.615  0.00  0.00    +0.141 C 
ATOM      7  C   UNL     1      35.051  -9.568 -25.072  0.00  0.00    +0.017 C 
ATOM      8  C   UNL     1      34.535 -11.877 -25.629  0.00  0.00    +0.037 C 
ATOM      9  C   UNL     1      35.263 -10.709 -25.852  0.00  0.00    +0.005 C 
ENDROOT
BRANCH   5  11
ATOM     10  O   UNL     1      30.281 -11.329 -22.295  0.00  0.00    -0.282 OA
ATOM     11  C   UNL     1      31.508 -11.385 -22.113  0.00  0.00    +0.249 C 
BRANCH  11  14
ATOM     12  O   UNL     1      31.917 -12.222 -19.949  0.00  0.00    -0.267 OA
ATOM     13  N   UNL     1      32.216 -13.655 -21.763  0.00  0.00    -0.323 N 
ATOM     14  C   UNL     1      31.906 -12.472 -21.143  0.00  0.00    +0.282 C 
ATOM     15  H   UNL     1      32.490 -14.434 -21.228  0.00  0.00    +0.145 HD
ATOM     16  H   UNL     1      32.166 -13.723 -22.744  0.00  0.00    +0.145 HD
ENDBRANCH  11  14
ENDBRANCH   5  11
BRANCH   2  17
ATOM     17  C   UNL     1      32.062  -8.408 -21.275  0.00  0.00    +0.044 C 
ATOM     18  C   UNL     1      32.390  -8.932 -19.874  0.00  0.00    +0.007 C 
ENDBRANCH   2  17
BRANCH   6  19
ATOM     19  O   UNL     1      32.878 -13.104 -24.426  0.00  0.00    -0.464 OA
BRANCH  19  20
ATOM     20  C   UNL     1      32.965 -14.076 -25.461  0.00  0.00    +0.314 C 
BRANCH  20  22
ATOM     21  O   UNL     1      33.756 -15.617 -23.756  0.00  0.00    -0.246 OA
ATOM     22  C   UNL     1      33.621 -15.323 -24.934  0.00  0.00    +0.359 C 
BRANCH  22  23
ATOM     23  O   UNL     1      34.051 -16.096 -25.962  0.00  0.00    -0.478 OA
ATOM     24  H   UNL     1      33.801 -16.998 -26.007  0.00  0.00    +0.295 HD
ENDBRANCH  22  23
ENDBRANCH  20  22
ENDBRANCH  19  20
ENDBRANCH   6  19
BRANCH   1  25
ATOM     25  C   UNL     1      34.194  -7.348 -23.071  0.00  0.00    +0.132 C 
BRANCH  25  26
ATOM     26  C   UNL     1      33.627  -6.470 -24.154  0.00  0.00    +0.000 C 
ATOM     27  C   UNL     1      32.349  -5.949 -24.013  0.00  0.00    -0.002 C 
ATOM     28  C   UNL     1      34.392  -6.193 -25.279  0.00  0.00    -0.002 C 
ATOM     29  C   UNL     1      31.824  -5.136 -25.017  0.00  0.00    -0.000 C 
ATOM     30  C   UNL     1      33.867  -5.379 -26.284  0.00  0.00    -0.000 C 
ATOM     31  C   UNL     1      32.583  -4.851 -26.152  0.00  0.00    -0.000 C 
ENDBRANCH  25  26
ENDBRANCH   1  25
TORSDOF 9
ENDMDL
MODEL 2
REMARK VINA RESULT:      -8.9      3.068      6.664
REMARK  Name = 155815
REMARK  9 active torsions:
REMARK  status: ('A' for Active; 'I' for Inactive)
REMARK    1  A    between atoms: N_1  and  C_25
REMARK    2  A    between atoms: C_2  and  C_17
REMARK    3  A    between atoms: C_5  and  C_11
REMARK    4  A    between atoms: C_6  and  O_19
REMARK    5  A    between atoms: C_11  and  C_14
REMARK    6  A    between atoms: O_19  and  C_20
REMARK    7  A    between atoms: C_20  and  C_22
REMARK    8  A    between atoms: C_22  and  O_23
REMARK    9  A    between atoms: C_25  and  C_26
REMARK                            x       y       z     vdW  Elec       q    Type
REMARK                         _______ _______ _______ _____ _____    ______ ____
ROOT
ATOM      1  N   UNL     1      32.304 -11.650 -22.820  0.00  0.00    -0.326 N 
ATOM      2  C   UNL     1      31.863 -10.732 -21.906  0.00  0.00    +0.041 A 
ATOM      3  C   UNL     1      33.234 -11.078 -23.657  0.00  0.00    +0.063 A 
ATOM      4  C   UNL     1      33.385  -9.748 -23.257  0.00  0.00    +0.054 A 
ATOM      5  C   UNL     1      32.514  -9.544 -22.151  0.00  0.00    +0.060 A 
ATOM      6  C   UNL     1      34.291  -8.928 -23.959  0.00  0.00    +0.141 C 
ATOM      7  C   UNL     1      33.946 -11.630 -24.728  0.00  0.00    +0.017 C 
ATOM      8  C   UNL     1      35.010  -9.466 -25.031  0.00  0.00    +0.037 C 
ATOM      9  C   UNL     1      34.839 -10.797 -25.410  0.00  0.00    +0.005 C 
ENDROOT
BRANCH   5  11
ATOM     10  O   UNL     1      32.734  -8.150 -20.241  0.00  0.00    -0.282 OA
ATOM     11  C   UNL     1      32.313  -8.340 -21.394  0.00  0.00    +0.249 C 
BRANCH  11  14
ATOM     12  O   UNL     1      30.786  -7.334 -22.879  0.00  0.00    -0.267 OA
ATOM     13  N   UNL     1      31.793  -5.997 -21.257  0.00  0.00    -0.323 N 
ATOM     14  C   UNL     1      31.538  -7.161 -21.934  0.00  0.00    +0.282 C 
ATOM     15  H   UNL     1      31.342  -5.164 -21.524  0.00  0.00    +0.145 HD
ATOM     16  H   UNL     1      32.428  -5.995 -20.505  0.00  0.00    +0.145 HD
ENDBRANCH  11  14
ENDBRANCH   5  11
BRANCH   2  17
ATOM     17  C   UNL     1      30.855 -11.074 -20.878  0.00  0.00    +0.044 C 
ATOM     18  C   UNL     1      31.467 -11.241 -19.484  0.00  0.00    +0.007 C 
ENDBRANCH   2  17
BRANCH   6  19
ATOM     19  O   UNL     1      34.485  -7.615 -23.617  0.00  0.00    -0.464 OA
BRANCH  19  20
ATOM     20  C   UNL     1      34.921  -6.742 -24.653  0.00  0.00    +0.314 C 
BRANCH  20  22
ATOM     21  O   UNL     1      33.653  -5.552 -26.350  0.00  0.00    -0.246 OA
ATOM     22  C   UNL     1      33.743  -5.995 -25.216  0.00  0.00    +0.359 C 
BRANCH  22  23
ATOM     23  O   UNL     1      32.773  -5.874 -24.276  0.00  0.00    -0.478 OA
ATOM     24  H   UNL     1      31.904  -6.174 -24.458  0.00  0.00    +0.295 HD
ENDBRANCH  22  23
ENDBRANCH  20  22
ENDBRANCH  19  20
ENDBRANCH   6  19
BRANCH   1  25
ATOM     25  C   UNL     1      31.858 -13.027 -22.897  0.00  0.00    +0.132 C 
BRANCH  25  26
ATOM     26  C   UNL     1      32.877 -13.968 -22.313  0.00  0.00    +0.000 C 
ATOM     27  C   UNL     1      32.936 -14.144 -20.938  0.00  0.00    -0.002 C 
ATOM     28  C   UNL     1      33.744 -14.646 -23.160  0.00  0.00    -0.002 C 
ATOM     29  C   UNL     1      33.881 -15.017 -20.398  0.00  0.00    -0.000 C 
ATOM     30  C   UNL     1      34.689 -15.518 -22.619  0.00  0.00    -0.000 C 
ATOM     31  C   UNL     1      34.758 -15.703 -21.238  0.00  0.00    -0.000 C 
ENDBRANCH  25  26
ENDBRANCH   1  25
TORSDOF 9
ENDMDL
MODEL 3
REMARK VINA RESULT:      -8.8      0.782      1.302
REMARK  Name = 155815
REMARK  9 active torsions:
REMARK  status: ('A' for Active; 'I' for Inactive)
REMARK    1  A    between atoms: N_1  and  C_25
REMARK    2  A    between atoms: C_2  and  C_17
REMARK    3  A    between atoms: C_5  and  C_11
REMARK    4  A    between atoms: C_6  and  O_19
REMARK    5  A    between atoms: C_11  and  C_14
REMARK    6  A    between atoms: O_19  and  C_20
REMARK    7  A    between atoms: C_20  and  C_22
REMARK    8  A    between atoms: C_22  and  O_23
REMARK    9  A    between atoms: C_25  and  C_26
REMARK                            x       y       z     vdW  Elec       q    Type
REMARK                         _______ _______ _______ _____ _____    ______ ____
ROOT
ATOM      1  N   UNL     1      33.615  -8.508 -23.119  0.00  0.00    -0.326 N 
ATOM      2  C   UNL     1      32.624  -8.924 -22.273  0.00  0.00    +0.041 A 
ATOM      3  C   UNL     1      34.008  -9.544 -23.936  0.00  0.00    +0.063 A 
ATOM      4  C   UNL     1      33.235 -10.655 -23.591  0.00  0.00    +0.054 A 
ATOM      5  C   UNL     1      32.366 -10.249 -22.541  0.00  0.00    +0.060 A 
ATOM      6  C   UNL     1      33.439 -11.864 -24.285  0.00  0.00    +0.141 C 
ATOM      7  C   UNL     1      34.978  -9.581 -24.945  0.00  0.00    +0.017 C 
ATOM      8  C   UNL     1      34.406 -11.918 -25.296  0.00  0.00    +0.037 C 
ATOM      9  C   UNL     1      35.163 -10.792 -25.619  0.00  0.00    +0.005 C 
ENDROOT
BRANCH   5  11
ATOM     10  O   UNL     1      30.187 -11.118 -22.174  0.00  0.00    -0.282 OA
ATOM     11  C   UNL     1      31.383 -11.038 -21.851  0.00  0.00    +0.249 C 
BRANCH  11  14
ATOM     12  O   UNL     1      31.484 -11.389 -19.523  0.00  0.00    -0.267 OA
ATOM     13  N   UNL     1      32.254 -13.080 -20.930  0.00  0.00    -0.323 N 
ATOM     14  C   UNL     1      31.714 -11.858 -20.626  0.00  0.00    +0.282 C 
ATOM     15  H   UNL     1      32.509 -13.699 -20.208  0.00  0.00    +0.145 HD
ATOM     16  H   UNL     1      32.388 -13.339 -21.871  0.00  0.00    +0.145 HD
ENDBRANCH  11  14
ENDBRANCH   5  11
BRANCH   2  17
ATOM     17  C   UNL     1      32.011  -8.014 -21.280  0.00  0.00    +0.044 C 
ATOM     18  C   UNL     1      32.670  -8.114 -19.901  0.00  0.00    +0.007 C 
ENDBRANCH   2  17
BRANCH   6  19
ATOM     19  O   UNL     1      32.715 -12.991 -23.995  0.00  0.00    -0.464 OA
BRANCH  19  20
ATOM     20  C   UNL     1      33.192 -14.216 -24.541  0.00  0.00    +0.314 C 
BRANCH  20  22
ATOM     21  O   UNL     1      35.063 -15.355 -23.489  0.00  0.00    -0.246 OA
ATOM     22  C   UNL     1      33.892 -15.009 -23.472  0.00  0.00    +0.359 C 
BRANCH  22  23
ATOM     23  O   UNL     1      33.031 -15.297 -22.464  0.00  0.00    -0.478 OA
ATOM     24  H   UNL     1      32.583 -16.120 -22.451  0.00  0.00    +0.295 HD
ENDBRANCH  22  23
ENDBRANCH  20  22
ENDBRANCH  19  20
ENDBRANCH   6  19
BRANCH   1  25
ATOM     25  C   UNL     1      34.173  -7.171 -23.153  0.00  0.00    +0.132 C 
BRANCH  25  26
ATOM     26  C   UNL     1      33.564  -6.350 -24.258  0.00  0.00    +0.000 C 
ATOM     27  C   UNL     1      34.297  -6.105 -25.411  0.00  0.00    -0.002 C 
ATOM     28  C   UNL     1      32.278  -5.849 -24.107  0.00  0.00    -0.002 C 
ATOM     29  C   UNL     1      33.732  -5.344 -26.434  0.00  0.00    -0.000 C 
ATOM     30  C   UNL     1      31.713  -5.088 -25.131  0.00  0.00    -0.000 C 
ATOM     31  C   UNL     1      32.440  -4.835 -26.294  0.00  0.00    -0.000 C 
ENDBRANCH  25  26
ENDBRANCH   1  25
TORSDOF 9
ENDMDL
MODEL 4
REMARK VINA RESULT:      -8.6      3.409      6.384
REMARK  Name = 155815
REMARK  9 active torsions:
REMARK  status: ('A' for Active; 'I' for Inactive)
REMARK    1  A    between atoms: N_1  and  C_25
REMARK    2  A    between atoms: C_2  and  C_17
REMARK    3  A    between atoms: C_5  and  C_11
REMARK    4  A    between atoms: C_6  and  O_19
REMARK    5  A    between atoms: C_11  and  C_14
REMARK    6  A    between atoms: O_19  and  C_20
REMARK    7  A    between atoms: C_20  and  C_22
REMARK    8  A    between atoms: C_22  and  O_23
REMARK    9  A    between atoms: C_25  and  C_26
REMARK                            x       y       z     vdW  Elec       q    Type
REMARK                         _______ _______ _______ _____ _____    ______ ____
ROOT
ATOM      1  N   UNL     1      32.886 -14.024 -23.719  0.00  0.00    -0.326 N 
ATOM      2  C   UNL     1      33.182 -14.798 -24.808  0.00  0.00    +0.041 A 
ATOM      3  C   UNL     1      33.473 -14.548 -22.590  0.00  0.00    +0.063 A 
ATOM      4  C   UNL     1      34.166 -15.696 -22.982  0.00  0.00    +0.054 A 
ATOM      5  C   UNL     1      33.973 -15.841 -24.384  0.00  0.00    +0.060 A 
ATOM      6  C   UNL     1      34.865 -16.432 -22.005  0.00  0.00    +0.141 C 
ATOM      7  C   UNL     1      33.445 -14.098 -21.265  0.00  0.00    +0.017 C 
ATOM      8  C   UNL     1      34.847 -15.995 -20.676  0.00  0.00    +0.037 C 
ATOM      9  C   UNL     1      34.146 -14.845 -20.313  0.00  0.00    +0.005 C 
ENDROOT
BRANCH   5  11
ATOM     10  O   UNL     1      35.390 -16.705 -26.082  0.00  0.00    -0.282 OA
ATOM     11  C   UNL     1      34.488 -16.869 -25.246  0.00  0.00    +0.249 C 
BRANCH  11  14
ATOM     12  O   UNL     1      32.918 -18.530 -25.817  0.00  0.00    -0.267 OA
ATOM     13  N   UNL     1      34.753 -19.145 -24.519  0.00  0.00    -0.323 N 
ATOM     14  C   UNL     1      33.957 -18.283 -25.228  0.00  0.00    +0.282 C 
ATOM     15  H   UNL     1      34.504 -20.094 -24.441  0.00  0.00    +0.145 HD
ATOM     16  H   UNL     1      35.574 -18.814 -24.088  0.00  0.00    +0.145 HD
ENDBRANCH  11  14
ENDBRANCH   5  11
BRANCH   2  17
ATOM     17  C   UNL     1      32.679 -14.469 -26.160  0.00  0.00    +0.044 C 
ATOM     18  C   UNL     1      33.713 -13.724 -27.010  0.00  0.00    +0.007 C 
ENDBRANCH   2  17
BRANCH   6  19
ATOM     19  O   UNL     1      35.564 -17.567 -22.323  0.00  0.00    -0.464 OA
BRANCH  19  20
ATOM     20  C   UNL     1      36.021 -18.363 -21.236  0.00  0.00    +0.314 C 
BRANCH  20  22
ATOM     21  O   UNL     1      34.065 -19.741 -21.661  0.00  0.00    -0.246 OA
ATOM     22  C   UNL     1      35.077 -19.513 -21.017  0.00  0.00    +0.359 C 
BRANCH  22  23
ATOM     23  O   UNL     1      35.509 -20.282 -19.986  0.00  0.00    -0.478 OA
ATOM     24  H   UNL     1      34.943 -20.449 -19.257  0.00  0.00    +0.295 HD
ENDBRANCH  22  23
ENDBRANCH  20  22
ENDBRANCH  19  20
ENDBRANCH   6  19
BRANCH   1  25
ATOM     25  C   UNL     1      32.071 -12.826 -23.747  0.00  0.00    +0.132 C 
BRANCH  25  26
ATOM     26  C   UNL     1      32.921 -11.586 -23.819  0.00  0.00    +0.000 C 
ATOM     27  C   UNL     1      34.050 -11.578 -24.626  0.00  0.00    -0.002 C 
ATOM     28  C   UNL     1      32.563 -10.468 -23.078  0.00  0.00    -0.002 C 
ATOM     29  C   UNL     1      34.838 -10.428 -24.693  0.00  0.00    -0.000 C 
ATOM     30  C   UNL     1      33.351  -9.318 -23.145  0.00  0.00    -0.000 C 
ATOM     31  C   UNL     1      34.488  -9.299 -23.953  0.00  0.00    -0.000 C 
ENDBRANCH  25  26
ENDBRANCH   1  25
TORSDOF 9
ENDMDL
MODEL 5
REMARK VINA RESULT:      -8.5      3.052      6.556
REMARK  Name = 155815
REMARK  9 active torsions:
REMARK  status: ('A' for Active; 'I' for Inactive)
REMARK    1  A    between atoms: N_1  and  C_25
REMARK    2  A    between atoms: C_2  and  C_17
REMARK    3  A    between atoms: C_5  and  C_11
REMARK    4  A    between atoms: C_6  and  O_19
REMARK    5  A    between atoms: C_11  and  C_14
REMARK    6  A    between atoms: O_19  and  C_20
REMARK    7  A    between atoms: C_20  and  C_22
REMARK    8  A    between atoms: C_22  and  O_23
REMARK    9  A    between atoms: C_25  and  C_26
REMARK                            x       y       z     vdW  Elec       q    Type
REMARK                         _______ _______ _______ _____ _____    ______ ____
ROOT
ATOM      1  N   UNL     1      32.438 -11.751 -23.107  0.00  0.00    -0.326 N 
ATOM      2  C   UNL     1      31.814 -10.904 -22.232  0.00  0.00    +0.041 A 
ATOM      3  C   UNL     1      33.386 -11.068 -23.835  0.00  0.00    +0.063 A 
ATOM      4  C   UNL     1      33.358  -9.740 -23.402  0.00  0.00    +0.054 A 
ATOM      5  C   UNL     1      32.362  -9.652 -22.390  0.00  0.00    +0.060 A 
ATOM      6  C   UNL     1      34.243  -8.817 -23.994  0.00  0.00    +0.141 C 
ATOM      7  C   UNL     1      34.257 -11.520 -24.833  0.00  0.00    +0.017 C 
ATOM      8  C   UNL     1      35.119  -9.253 -24.993  0.00  0.00    +0.037 C 
ATOM      9  C   UNL     1      35.125 -10.585 -25.406  0.00  0.00    +0.005 C 
ENDROOT
BRANCH   5  11
ATOM     10  O   UNL     1      31.024  -7.740 -21.950  0.00  0.00    -0.282 OA
ATOM     11  C   UNL     1      31.963  -8.492 -21.642  0.00  0.00    +0.249 C 
BRANCH  11  14
ATOM     12  O   UNL     1      32.316  -8.520 -19.313  0.00  0.00    -0.267 OA
ATOM     13  N   UNL     1      33.674  -7.149 -20.620  0.00  0.00    -0.323 N 
ATOM     14  C   UNL     1      32.673  -8.055 -20.382  0.00  0.00    +0.282 C 
ATOM     15  H   UNL     1      34.205  -6.794 -19.870  0.00  0.00    +0.145 HD
ATOM     16  H   UNL     1      33.861  -6.853 -21.540  0.00  0.00    +0.145 HD
ENDBRANCH  11  14
ENDBRANCH   5  11
BRANCH   2  17
ATOM     17  C   UNL     1      30.746 -11.370 -21.320  0.00  0.00    +0.044 C 
ATOM     18  C   UNL     1      31.229 -11.521 -19.873  0.00  0.00    +0.007 C 
ENDBRANCH   2  17
BRANCH   6  19
ATOM     19  O   UNL     1      34.266  -7.500 -23.615  0.00  0.00    -0.464 OA
BRANCH  19  20
ATOM     20  C   UNL     1      33.750  -6.557 -24.547  0.00  0.00    +0.314 C 
BRANCH  20  22
ATOM     21  O   UNL     1      32.371  -5.185 -23.090  0.00  0.00    -0.246 OA
ATOM     22  C   UNL     1      32.469  -5.971 -24.020  0.00  0.00    +0.359 C 
BRANCH  22  23
ATOM     23  O   UNL     1      31.413  -6.440 -24.730  0.00  0.00    -0.478 OA
ATOM     24  H   UNL     1      31.540  -7.115 -25.368  0.00  0.00    +0.295 HD
ENDBRANCH  22  23
ENDBRANCH  20  22
ENDBRANCH  19  20
ENDBRANCH   6  19
BRANCH   1  25
ATOM     25  C   UNL     1      32.145 -13.163 -23.250  0.00  0.00    +0.132 C 
BRANCH  25  26
ATOM     26  C   UNL     1      32.914 -13.987 -22.252  0.00  0.00    +0.000 C 
ATOM     27  C   UNL     1      32.246 -14.556 -21.177  0.00  0.00    -0.002 C 
ATOM     28  C   UNL     1      34.280 -14.166 -22.422  0.00  0.00    -0.002 C 
ATOM     29  C   UNL     1      32.960 -15.320 -20.252  0.00  0.00    -0.000 C 
ATOM     30  C   UNL     1      34.993 -14.929 -21.497  0.00  0.00    -0.000 C 
ATOM     31  C   UNL     1      34.333 -15.506 -20.412  0.00  0.00    -0.000 C 
ENDBRANCH  25  26
ENDBRANCH   1  25
TORSDOF 9
ENDMDL
MODEL 6
REMARK VINA RESULT:      -8.2      3.179      7.584
REMARK  Name = 155815
REMARK  9 active torsions:
REMARK  status: ('A' for Active; 'I' for Inactive)
REMARK    1  A    between atoms: N_1  and  C_25
REMARK    2  A    between atoms: C_2  and  C_17
REMARK    3  A    between atoms: C_5  and  C_11
REMARK    4  A    between atoms: C_6  and  O_19
REMARK    5  A    between atoms: C_11  and  C_14
REMARK    6  A    between atoms: O_19  and  C_20
REMARK    7  A    between atoms: C_20  and  C_22
REMARK    8  A    between atoms: C_22  and  O_23
REMARK    9  A    between atoms: C_25  and  C_26
REMARK                            x       y       z     vdW  Elec       q    Type
REMARK                         _______ _______ _______ _____ _____    ______ ____
ROOT
ATOM      1  N   UNL     1      32.279 -11.449 -22.777  0.00  0.00    -0.326 N 
ATOM      2  C   UNL     1      32.971 -10.590 -23.587  0.00  0.00    +0.041 A 
ATOM      3  C   UNL     1      31.956 -10.827 -21.593  0.00  0.00    +0.063 A 
ATOM      4  C   UNL     1      32.464  -9.527 -21.659  0.00  0.00    +0.054 A 
ATOM      5  C   UNL     1      33.102  -9.392 -22.923  0.00  0.00    +0.060 A 
ATOM      6  C   UNL     1      32.269  -8.667 -20.560  0.00  0.00    +0.141 C 
ATOM      7  C   UNL     1      31.259 -11.310 -20.479  0.00  0.00    +0.017 C 
ATOM      8  C   UNL     1      31.575  -9.136 -19.439  0.00  0.00    +0.037 C 
ATOM      9  C   UNL     1      31.079 -10.439 -19.401  0.00  0.00    +0.005 C 
ENDROOT
BRANCH   5  11
ATOM     10  O   UNL     1      34.986  -8.005 -23.326  0.00  0.00    -0.282 OA
ATOM     11  C   UNL     1      33.774  -8.240 -23.456  0.00  0.00    +0.249 C 
BRANCH  11  14
ATOM     12  O   UNL     1      33.698  -6.258 -24.728  0.00  0.00    -0.267 OA
ATOM     13  N   UNL     1      31.694  -7.362 -24.282  0.00  0.00    -0.323 N 
ATOM     14  C   UNL     1      33.050  -7.165 -24.233  0.00  0.00    +0.282 C 
ATOM     15  H   UNL     1      31.121  -6.722 -24.763  0.00  0.00    +0.145 HD
ATOM     16  H   UNL     1      31.294  -8.143 -23.836  0.00  0.00    +0.145 HD
ENDBRANCH  11  14
ENDBRANCH   5  11
BRANCH   2  17
ATOM     17  C   UNL     1      33.447 -10.995 -24.929  0.00  0.00    +0.044 C 
ATOM     18  C   UNL     1      34.956 -10.797 -25.105  0.00  0.00    +0.007 C 
ENDBRANCH   2  17
BRANCH   6  19
ATOM     19  O   UNL     1      32.742  -7.381 -20.560  0.00  0.00    -0.464 OA
BRANCH  19  20
ATOM     20  C   UNL     1      31.807  -6.355 -20.248  0.00  0.00    +0.314 C 
BRANCH  20  22
ATOM     21  O   UNL     1      30.185  -5.868 -21.991  0.00  0.00    -0.246 OA
ATOM     22  C   UNL     1      31.301  -5.725 -21.517  0.00  0.00    +0.359 C 
BRANCH  22  23
ATOM     23  O   UNL     1      32.271  -4.960 -22.078  0.00  0.00    -0.478 OA
ATOM     24  H   UNL     1      32.379  -4.069 -21.808  0.00  0.00    +0.295 HD
ENDBRANCH  22  23
ENDBRANCH  20  22
ENDBRANCH  19  20
ENDBRANCH   6  19
BRANCH   1  25
ATOM     25  C   UNL     1      31.935 -12.815 -23.114  0.00  0.00    +0.132 C 
BRANCH  25  26
ATOM     26  C   UNL     1      32.841 -13.797 -22.421  0.00  0.00    +0.000 C 
ATOM     27  C   UNL     1      34.009 -14.209 -23.047  0.00  0.00    -0.002 C 
ATOM     28  C   UNL     1      32.496 -14.275 -21.164  0.00  0.00    -0.002 C 
ATOM     29  C   UNL     1      34.848 -15.119 -22.404  0.00  0.00    -0.000 C 
ATOM     30  C   UNL     1      33.336 -15.185 -20.520  0.00  0.00    -0.000 C 
ATOM     31  C   UNL     1      34.512 -15.607 -21.141  0.00  0.00    -0.000 C 
ENDBRANCH  25  26
ENDBRANCH   1  25
TORSDOF 9
ENDMDL
MODEL 7
REMARK VINA RESULT:      -8.2      1.058      1.655
REMARK  Name = 155815
REMARK  9 active torsions:
REMARK  status: ('A' for Active; 'I' for Inactive)
REMARK    1  A    between atoms: N_1  and  C_25
REMARK    2  A    between atoms: C_2  and  C_17
REMARK    3  A    between atoms: C_5  and  C_11
REMARK    4  A    between atoms: C_6  and  O_19
REMARK    5  A    between atoms: C_11  and  C_14
REMARK    6  A    between atoms: O_19  and  C_20
REMARK    7  A    between atoms: C_20  and  C_22
REMARK    8  A    between atoms: C_22  and  O_23
REMARK    9  A    between atoms: C_25  and  C_26
REMARK                            x       y       z     vdW  Elec       q    Type
REMARK                         _______ _______ _______ _____ _____    ______ ____
ROOT
ATOM      1  N   UNL     1      33.429  -8.772 -22.727  0.00  0.00    -0.326 N 
ATOM      2  C   UNL     1      32.524  -9.556 -22.063  0.00  0.00    +0.041 A 
ATOM      3  C   UNL     1      34.009  -9.482 -23.754  0.00  0.00    +0.063 A 
ATOM      4  C   UNL     1      33.449 -10.762 -23.736  0.00  0.00    +0.054 A 
ATOM      5  C   UNL     1      32.514 -10.794 -22.664  0.00  0.00    +0.060 A 
ATOM      6  C   UNL     1      33.875 -11.701 -24.696  0.00  0.00    +0.141 C 
ATOM      7  C   UNL     1      34.976  -9.093 -24.687  0.00  0.00    +0.017 C 
ATOM      8  C   UNL     1      34.842 -11.327 -25.636  0.00  0.00    +0.037 C 
ATOM      9  C   UNL     1      35.384 -10.042 -25.630  0.00  0.00    +0.005 C 
ENDROOT
BRANCH   5  11
ATOM     10  O   UNL     1      30.461 -11.962 -22.426  0.00  0.00    -0.282 OA
ATOM     11  C   UNL     1      31.687 -11.891 -22.244  0.00  0.00    +0.249 C 
BRANCH  11  14
ATOM     12  O   UNL     1      32.392 -13.020 -20.300  0.00  0.00    -0.267 OA
ATOM     13  N   UNL     1      32.510 -14.148 -22.337  0.00  0.00    -0.323 N 
ATOM     14  C   UNL     1      32.240 -13.089 -21.509  0.00  0.00    +0.282 C 
ATOM     15  H   UNL     1      32.874 -14.983 -21.965  0.00  0.00    +0.145 HD
ATOM     16  H   UNL     1      32.339 -14.071 -23.304  0.00  0.00    +0.145 HD
ENDBRANCH  11  14
ENDBRANCH   5  11
BRANCH   2  17
ATOM     17  C   UNL     1      31.749  -9.048 -20.910  0.00  0.00    +0.044 C 
ATOM     18  C   UNL     1      32.279  -9.565 -19.568  0.00  0.00    +0.007 C 
ENDBRANCH   2  17
BRANCH   6  19
ATOM     19  O   UNL     1      33.367 -12.973 -24.733  0.00  0.00    -0.464 OA
BRANCH  19  20
ATOM     20  C   UNL     1      32.583 -13.316 -25.869  0.00  0.00    +0.314 C 
BRANCH  20  22
ATOM     21  O   UNL     1      33.887 -13.712 -27.881  0.00  0.00    -0.246 OA
ATOM     22  C   UNL     1      33.410 -14.121 -26.834  0.00  0.00    +0.359 C 
BRANCH  22  23
ATOM     23  O   UNL     1      33.561 -15.389 -26.376  0.00  0.00    -0.478 OA
ATOM     24  H   UNL     1      32.807 -15.898 -26.151  0.00  0.00    +0.295 HD
ENDBRANCH  22  23
ENDBRANCH  20  22
ENDBRANCH  19  20
ENDBRANCH   6  19
BRANCH   1  25
ATOM     25  C   UNL     1      33.734  -7.394 -22.399  0.00  0.00    +0.132 C 
BRANCH  25  26
ATOM     26  C   UNL     1      32.811  -6.443 -23.113  0.00  0.00    +0.000 C 
ATOM     27  C   UNL     1      32.950  -6.254 -24.481  0.00  0.00    -0.002 C 
ATOM     28  C   UNL     1      31.834  -5.769 -22.393  0.00  0.00    -0.002 C 
ATOM     29  C   UNL     1      32.094  -5.372 -25.142  0.00  0.00    -0.000 C 
ATOM     30  C   UNL     1      30.979  -4.887 -23.054  0.00  0.00    -0.000 C 
ATOM     31  C   UNL     1      31.109  -4.689 -24.429  0.00  0.00    -0.000 C 
ENDBRANCH  25  26
ENDBRANCH   1  25
TORSDOF 9
ENDMDL
MODEL 8
REMARK VINA RESULT:      -8.1      4.159      8.394
REMARK  Name = 155815
REMARK  9 active torsions:
REMARK  status: ('A' for Active; 'I' for Inactive)
REMARK    1  A    between atoms: N_1  and  C_25
REMARK    2  A    between atoms: C_2  and  C_17
REMARK    3  A    between atoms: C_5  and  C_11
REMARK    4  A    between atoms: C_6  and  O_19
REMARK    5  A    between atoms: C_11  and  C_14
REMARK    6  A    between atoms: O_19  and  C_20
REMARK    7  A    between atoms: C_20  and  C_22
REMARK    8  A    between atoms: C_22  and  O_23
REMARK    9  A    between atoms: C_25  and  C_26
REMARK                            x       y       z     vdW  Elec       q    Type
REMARK                         _______ _______ _______ _____ _____    ______ ____
ROOT
ATOM      1  N   UNL     1      34.765 -16.509 -22.129  0.00  0.00    -0.326 N 
ATOM      2  C   UNL     1      34.137 -15.386 -21.663  0.00  0.00    +0.041 A 
ATOM      3  C   UNL     1      34.530 -16.659 -23.477  0.00  0.00    +0.063 A 
ATOM      4  C   UNL     1      33.723 -15.591 -23.875  0.00  0.00    +0.054 A 
ATOM      5  C   UNL     1      33.484 -14.795 -22.720  0.00  0.00    +0.060 A 
ATOM      6  C   UNL     1      33.330 -15.505 -25.226  0.00  0.00    +0.141 C 
ATOM      7  C   UNL     1      34.965 -17.649 -24.365  0.00  0.00    +0.017 C 
ATOM      8  C   UNL     1      33.758 -16.487 -26.126  0.00  0.00    +0.037 C 
ATOM      9  C   UNL     1      34.562 -17.543 -25.700  0.00  0.00    +0.005 C 
ENDROOT
BRANCH   5  11
ATOM     10  O   UNL     1      31.586 -13.511 -22.099  0.00  0.00    -0.282 OA
ATOM     11  C   UNL     1      32.709 -13.589 -22.622  0.00  0.00    +0.249 C 
BRANCH  11  14
ATOM     12  O   UNL     1      32.541 -11.261 -22.943  0.00  0.00    -0.267 OA
ATOM     13  N   UNL     1      34.354 -12.379 -23.890  0.00  0.00    -0.323 N 
ATOM     14  C   UNL     1      33.192 -12.267 -23.172  0.00  0.00    +0.282 C 
ATOM     15  H   UNL     1      34.761 -11.579 -24.295  0.00  0.00    +0.145 HD
ATOM     16  H   UNL     1      34.782 -13.259 -23.999  0.00  0.00    +0.145 HD
ENDBRANCH  11  14
ENDBRANCH   5  11
BRANCH   2  17
ATOM     17  C   UNL     1      34.220 -14.977 -20.243  0.00  0.00    +0.044 C 
ATOM     18  C   UNL     1      32.871 -15.070 -19.523  0.00  0.00    +0.007 C 
ENDBRANCH   2  17
BRANCH   6  19
ATOM     19  O   UNL     1      32.540 -14.482 -25.681  0.00  0.00    -0.464 OA
BRANCH  19  20
ATOM     20  C   UNL     1      32.663 -14.142 -27.057  0.00  0.00    +0.314 C 
BRANCH  20  22
ATOM     21  O   UNL     1      33.646 -11.967 -26.599  0.00  0.00    -0.246 OA
ATOM     22  C   UNL     1      33.653 -13.021 -27.217  0.00  0.00    +0.359 C 
BRANCH  22  23
ATOM     23  O   UNL     1      34.576 -13.343 -28.158  0.00  0.00    -0.478 OA
ATOM     24  H   UNL     1      34.807 -12.721 -28.820  0.00  0.00    +0.295 HD
ENDBRANCH  22  23
ENDBRANCH  20  22
ENDBRANCH  19  20
ENDBRANCH   6  19
BRANCH   1  25
ATOM     25  C   UNL     1      35.562 -17.411 -21.323  0.00  0.00    +0.132 C 
BRANCH  25  26
ATOM     26  C   UNL     1      34.778 -18.636 -20.932  0.00  0.00    +0.000 C 
ATOM     27  C   UNL     1      33.392 -18.604 -20.982  0.00  0.00    -0.002 C 
ATOM     28  C   UNL     1      35.454 -19.779 -20.528  0.00  0.00    -0.002 C 
ATOM     29  C   UNL     1      32.666 -19.738 -20.619  0.00  0.00    -0.000 C 
ATOM     30  C   UNL     1      34.727 -20.914 -20.166  0.00  0.00    -0.000 C 
ATOM     31  C   UNL     1      33.333 -20.893 -20.211  0.00  0.00    -0.000 C 
ENDBRANCH  25  26
ENDBRANCH   1  25
TORSDOF 9
ENDMDL
MODEL 9
REMARK VINA RESULT:      -8.1     12.058     15.556
REMARK  Name = 155815
REMARK  9 active torsions:
REMARK  status: ('A' for Active; 'I' for Inactive)
REMARK    1  A    between atoms: N_1  and  C_25
REMARK    2  A    between atoms: C_2  and  C_17
REMARK    3  A    between atoms: C_5  and  C_11
REMARK    4  A    between atoms: C_6  and  O_19
REMARK    5  A    between atoms: C_11  and  C_14
REMARK    6  A    between atoms: O_19  and  C_20
REMARK    7  A    between atoms: C_20  and  C_22
REMARK    8  A    between atoms: C_22  and  O_23
REMARK    9  A    between atoms: C_25  and  C_26
REMARK                            x       y       z     vdW  Elec       q    Type
REMARK                         _______ _______ _______ _____ _____    ______ ____
ROOT
ATOM      1  N   UNL     1      33.865 -23.285 -17.411  0.00  0.00    -0.326 N 
ATOM      2  C   UNL     1      32.775 -23.400 -16.593  0.00  0.00    +0.041 A 
ATOM      3  C   UNL     1      35.006 -23.115 -16.661  0.00  0.00    +0.063 A 
ATOM      4  C   UNL     1      34.620 -23.121 -15.318  0.00  0.00    +0.054 A 
ATOM      5  C   UNL     1      33.209 -23.302 -15.291  0.00  0.00    +0.060 A 
ATOM      6  C   UNL     1      35.609 -22.962 -14.328  0.00  0.00    +0.141 C 
ATOM      7  C   UNL     1      36.337 -22.957 -17.063  0.00  0.00    +0.017 C 
ATOM      8  C   UNL     1      36.944 -22.803 -14.715  0.00  0.00    +0.037 C 
ATOM      9  C   UNL     1      37.301 -22.800 -16.063  0.00  0.00    +0.005 C 
ENDROOT
BRANCH   5  11
ATOM     10  O   UNL     1      31.928 -22.393 -13.510  0.00  0.00    -0.282 OA
ATOM     11  C   UNL     1      32.349 -23.375 -14.143  0.00  0.00    +0.249 C 
BRANCH  11  14
ATOM     12  O   UNL     1      32.662 -25.383 -12.951  0.00  0.00    -0.267 OA
ATOM     13  N   UNL     1      30.549 -24.937 -13.827  0.00  0.00    -0.323 N 
ATOM     14  C   UNL     1      31.872 -24.688 -13.568  0.00  0.00    +0.282 C 
ATOM     15  H   UNL     1      30.131 -25.765 -13.499  0.00  0.00    +0.145 HD
ATOM     16  H   UNL     1      30.018 -24.286 -14.341  0.00  0.00    +0.145 HD
ENDBRANCH  11  14
ENDBRANCH   5  11
BRANCH   2  17
ATOM     17  C   UNL     1      31.410 -23.592 -17.132  0.00  0.00    +0.044 C 
ATOM     18  C   UNL     1      30.427 -22.521 -16.650  0.00  0.00    +0.007 C 
ENDBRANCH   2  17
BRANCH   6  19
ATOM     19  O   UNL     1      35.297 -22.959 -12.993  0.00  0.00    -0.464 OA
BRANCH  19  20
ATOM     20  C   UNL     1      36.350 -23.272 -12.089  0.00  0.00    +0.314 C 
BRANCH  20  22
ATOM     21  O   UNL     1      36.160 -24.156  -9.833  0.00  0.00    -0.246 OA
ATOM     22  C   UNL     1      35.838 -24.188 -11.011  0.00  0.00    +0.359 C 
BRANCH  22  23
ATOM     23  O   UNL     1      34.952 -25.073 -11.531  0.00  0.00    -0.478 OA
ATOM     24  H   UNL     1      34.279 -24.776 -12.113  0.00  0.00    +0.295 HD
ENDBRANCH  22  23
ENDBRANCH  20  22
ENDBRANCH  19  20
ENDBRANCH   6  19
BRANCH   1  25
ATOM     25  C   UNL     1      33.828 -23.336 -18.859  0.00  0.00    +0.132 C 
BRANCH  25  26
ATOM     26  C   UNL     1      33.954 -21.961 -19.460  0.00  0.00    +0.000 C 
ATOM     27  C   UNL     1      35.208 -21.480 -19.808  0.00  0.00    -0.002 C 
ATOM     28  C   UNL     1      32.813 -21.195 -19.657  0.00  0.00    -0.002 C 
ATOM     29  C   UNL     1      35.324 -20.206 -20.365  0.00  0.00    -0.000 C 
ATOM     30  C   UNL     1      32.929 -19.921 -20.214  0.00  0.00    -0.000 C 
ATOM     31  C   UNL     1      34.185 -19.427 -20.567  0.00  0.00    -0.000 C 
ENDBRANCH  25  26
ENDBRANCH   1  25
TORSDOF 9
ENDMDL
