MODEL 1
REMARK VINA RESULT:      -5.2      0.000      0.000
REMARK  Name = 10404
REMARK  7 active torsions:
REMARK  status: ('A' for Active; 'I' for Inactive)
REMARK    1  A    between atoms: S_1  and  C_3
REMARK    2  A    between atoms: S_1  and  S_7
REMARK    3  A    between atoms: C_3  and  O_4
REMARK    4  A    between atoms: O_4  and  C_5
REMARK    5  A    between atoms: S_7  and  C_9
REMARK    6  A    between atoms: C_9  and  O_10
REMARK    7  A    between atoms: O_10  and  C_11
REMARK                            x       y       z     vdW  Elec       q    Type
REMARK                         _______ _______ _______ _____ _____    ______ ____
ROOT
ATOM      1  S   UNL     1      34.892 -16.996 -21.727  0.00  0.00    -0.003 S 
ENDROOT
BRANCH   1   3
ATOM      2  S   UNL     1      34.655 -16.838 -24.729  0.00  0.00    -0.003 S 
ATOM      3  C   UNL     1      34.772 -16.092 -23.231  0.00  0.00    +0.212 C 
BRANCH   3   4
ATOM      4  O   UNL     1      34.811 -14.729 -23.287  0.00  0.00    -0.464 OA
BRANCH   4   5
ATOM      5  C   UNL     1      33.729 -13.979 -23.861  0.00  0.00    +0.207 C 
ATOM      6  C   UNL     1      32.663 -13.768 -22.806  0.00  0.00    +0.051 C 
ENDBRANCH   4   5
ENDBRANCH   3   4
ENDBRANCH   1   3
BRANCH   1   7
ATOM      7  S   UNL     1      34.721 -18.937 -22.394  0.00  0.00    -0.003 S 
BRANCH   7   9
ATOM      8  S   UNL     1      33.212 -20.478 -20.285  0.00  0.00    -0.003 S 
ATOM      9  C   UNL     1      34.638 -19.827 -20.879  0.00  0.00    +0.212 C 
BRANCH   9  10
ATOM     10  O   UNL     1      35.717 -20.011 -20.065  0.00  0.00    -0.464 OA
BRANCH  10  11
ATOM     11  C   UNL     1      36.319 -21.307 -19.909  0.00  0.00    +0.207 C 
ATOM     12  C   UNL     1      36.510 -21.589 -18.434  0.00  0.00    +0.051 C 
ENDBRANCH  10  11
ENDBRANCH   9  10
ENDBRANCH   7   9
ENDBRANCH   1   7
TORSDOF 7
ENDMDL
MODEL 2
REMARK VINA RESULT:      -5.1      2.862      3.247
REMARK  Name = 10404
REMARK  7 active torsions:
REMARK  status: ('A' for Active; 'I' for Inactive)
REMARK    1  A    between atoms: S_1  and  C_3
REMARK    2  A    between atoms: S_1  and  S_7
REMARK    3  A    between atoms: C_3  and  O_4
REMARK    4  A    between atoms: O_4  and  C_5
REMARK    5  A    between atoms: S_7  and  C_9
REMARK    6  A    between atoms: C_9  and  O_10
REMARK    7  A    between atoms: O_10  and  C_11
REMARK                            x       y       z     vdW  Elec       q    Type
REMARK                         _______ _______ _______ _____ _____    ______ ____
ROOT
ATOM      1  S   UNL     1      35.103 -19.589 -21.304  0.00  0.00    -0.003 S 
ENDROOT
BRANCH   1   3
ATOM      2  S   UNL     1      34.752 -18.591 -24.127  0.00  0.00    -0.003 S 
ATOM      3  C   UNL     1      34.688 -18.340 -22.471  0.00  0.00    +0.212 C 
BRANCH   3   4
ATOM      4  O   UNL     1      34.332 -17.073 -22.110  0.00  0.00    -0.464 OA
BRANCH   4   5
ATOM      5  C   UNL     1      34.865 -16.462 -20.924  0.00  0.00    +0.207 C 
ATOM      6  C   UNL     1      34.097 -15.188 -20.640  0.00  0.00    +0.051 C 
ENDBRANCH   4   5
ENDBRANCH   3   4
ENDBRANCH   1   3
BRANCH   1   7
ATOM      7  S   UNL     1      33.242 -20.155 -20.623  0.00  0.00    -0.003 S 
BRANCH   7   9
ATOM      8  S   UNL     1      35.233 -21.908 -19.187  0.00  0.00    -0.003 S 
ATOM      9  C   UNL     1      33.654 -21.430 -19.483  0.00  0.00    +0.212 C 
BRANCH   9  10
ATOM     10  O   UNL     1      32.716 -22.144 -18.797  0.00  0.00    -0.464 OA
BRANCH  10  11
ATOM     11  C   UNL     1      33.092 -23.037 -17.735  0.00  0.00    +0.207 C 
ATOM     12  C   UNL     1      31.989 -23.064 -16.698  0.00  0.00    +0.051 C 
ENDBRANCH  10  11
ENDBRANCH   9  10
ENDBRANCH   7   9
ENDBRANCH   1   7
TORSDOF 7
ENDMDL
MODEL 3
REMARK VINA RESULT:      -5.1      0.401      6.721
REMARK  Name = 10404
REMARK  7 active torsions:
REMARK  status: ('A' for Active; 'I' for Inactive)
REMARK    1  A    between atoms: S_1  and  C_3
REMARK    2  A    between atoms: S_1  and  S_7
REMARK    3  A    between atoms: C_3  and  O_4
REMARK    4  A    between atoms: O_4  and  C_5
REMARK    5  A    between atoms: S_7  and  C_9
REMARK    6  A    between atoms: C_9  and  O_10
REMARK    7  A    between atoms: O_10  and  C_11
REMARK                            x       y       z     vdW  Elec       q    Type
REMARK                         _______ _______ _______ _____ _____    ______ ____
ROOT
ATOM      1  S   UNL     1      35.136 -18.838 -22.209  0.00  0.00    -0.003 S 
ENDROOT
BRANCH   1   3
ATOM      2  S   UNL     1      33.229 -20.335 -20.416  0.00  0.00    -0.003 S 
ATOM      3  C   UNL     1      34.783 -19.847 -20.812  0.00  0.00    +0.212 C 
BRANCH   3   4
ATOM      4  O   UNL     1      35.741 -20.263 -19.933  0.00  0.00    -0.464 OA
BRANCH   4   5
ATOM      5  C   UNL     1      35.725 -21.594 -19.393  0.00  0.00    +0.207 C 
ATOM      6  C   UNL     1      36.597 -21.634 -18.156  0.00  0.00    +0.051 C 
ENDBRANCH   4   5
ENDBRANCH   3   4
ENDBRANCH   1   3
BRANCH   1   7
ATOM      7  S   UNL     1      34.737 -16.956 -21.472  0.00  0.00    -0.003 S 
BRANCH   7   9
ATOM      8  S   UNL     1      34.667 -16.674 -24.474  0.00  0.00    -0.003 S 
ATOM      9  C   UNL     1      34.730 -15.993 -22.944  0.00  0.00    +0.212 C 
BRANCH   9  10
ATOM     10  O   UNL     1      34.820 -14.632 -22.941  0.00  0.00    -0.464 OA
BRANCH  10  11
ATOM     11  C   UNL     1      33.741 -13.814 -23.423  0.00  0.00    +0.207 C 
ATOM     12  C   UNL     1      32.597 -13.872 -22.432  0.00  0.00    +0.051 C 
ENDBRANCH  10  11
ENDBRANCH   9  10
ENDBRANCH   7   9
ENDBRANCH   1   7
TORSDOF 7
ENDMDL
MODEL 4
REMARK VINA RESULT:      -5.1      2.185      3.139
REMARK  Name = 10404
REMARK  7 active torsions:
REMARK  status: ('A' for Active; 'I' for Inactive)
REMARK    1  A    between atoms: S_1  and  C_3
REMARK    2  A    between atoms: S_1  and  S_7
REMARK    3  A    between atoms: C_3  and  O_4
REMARK    4  A    between atoms: O_4  and  C_5
REMARK    5  A    between atoms: S_7  and  C_9
REMARK    6  A    between atoms: C_9  and  O_10
REMARK    7  A    between atoms: O_10  and  C_11
REMARK                            x       y       z     vdW  Elec       q    Type
REMARK                         _______ _______ _______ _____ _____    ______ ____
ROOT
ATOM      1  S   UNL     1      34.425 -15.878 -23.905  0.00  0.00    -0.003 S 
ENDROOT
BRANCH   1   3
ATOM      2  S   UNL     1      32.771 -13.736 -22.576  0.00  0.00    -0.003 S 
ATOM      3  C   UNL     1      33.261 -14.560 -23.951  0.00  0.00    +0.212 C 
BRANCH   3   4
ATOM      4  O   UNL     1      32.647 -14.150 -25.098  0.00  0.00    -0.464 OA
BRANCH   4   5
ATOM      5  C   UNL     1      33.142 -14.545 -26.388  0.00  0.00    +0.207 C 
ATOM      6  C   UNL     1      33.353 -13.308 -27.235  0.00  0.00    +0.051 C 
ENDBRANCH   4   5
ENDBRANCH   3   4
ENDBRANCH   1   3
BRANCH   1   7
ATOM      7  S   UNL     1      34.514 -16.283 -21.887  0.00  0.00    -0.003 S 
BRANCH   7   9
ATOM      8  S   UNL     1      34.989 -18.908 -23.293  0.00  0.00    -0.003 S 
ATOM      9  C   UNL     1      34.821 -18.014 -21.884  0.00  0.00    +0.212 C 
BRANCH   9  10
ATOM     10  O   UNL     1      34.900 -18.754 -20.741  0.00  0.00    -0.464 OA
BRANCH  10  11
ATOM     11  C   UNL     1      34.430 -20.112 -20.700  0.00  0.00    +0.207 C 
ATOM     12  C   UNL     1      32.946 -20.112 -20.399  0.00  0.00    +0.051 C 
ENDBRANCH  10  11
ENDBRANCH   9  10
ENDBRANCH   7   9
ENDBRANCH   1   7
TORSDOF 7
ENDMDL
MODEL 5
REMARK VINA RESULT:      -5.1      2.091      6.696
REMARK  Name = 10404
REMARK  7 active torsions:
REMARK  status: ('A' for Active; 'I' for Inactive)
REMARK    1  A    between atoms: S_1  and  C_3
REMARK    2  A    between atoms: S_1  and  S_7
REMARK    3  A    between atoms: C_3  and  O_4
REMARK    4  A    between atoms: O_4  and  C_5
REMARK    5  A    between atoms: S_7  and  C_9
REMARK    6  A    between atoms: C_9  and  O_10
REMARK    7  A    between atoms: O_10  and  C_11
REMARK                            x       y       z     vdW  Elec       q    Type
REMARK                         _______ _______ _______ _____ _____    ______ ____
ROOT
ATOM      1  S   UNL     1      34.355 -16.408 -21.547  0.00  0.00    -0.003 S 
ENDROOT
BRANCH   1   3
ATOM      2  S   UNL     1      35.006 -18.832 -23.219  0.00  0.00    -0.003 S 
ATOM      3  C   UNL     1      34.816 -18.096 -21.724  0.00  0.00    +0.212 C 
BRANCH   3   4
ATOM      4  O   UNL     1      35.006 -18.932 -20.661  0.00  0.00    -0.464 OA
BRANCH   4   5
ATOM      5  C   UNL     1      34.431 -20.248 -20.642  0.00  0.00    +0.207 C 
ATOM      6  C   UNL     1      32.943 -20.132 -20.388  0.00  0.00    +0.051 C 
ENDBRANCH   4   5
ENDBRANCH   3   4
ENDBRANCH   1   3
BRANCH   1   7
ATOM      7  S   UNL     1      34.588 -15.710 -23.472  0.00  0.00    -0.003 S 
BRANCH   7   9
ATOM      8  S   UNL     1      32.547 -13.862 -22.240  0.00  0.00    -0.003 S 
ATOM      9  C   UNL     1      33.278 -14.542 -23.587  0.00  0.00    +0.212 C 
BRANCH   9  10
ATOM     10  O   UNL     1      32.740 -14.144 -24.775  0.00  0.00    -0.464 OA
BRANCH  10  11
ATOM     11  C   UNL     1      33.253 -14.634 -26.025  0.00  0.00    +0.207 C 
ATOM     12  C   UNL     1      33.235 -13.512 -27.041  0.00  0.00    +0.051 C 
ENDBRANCH  10  11
ENDBRANCH   9  10
ENDBRANCH   7   9
ENDBRANCH   1   7
TORSDOF 7
ENDMDL
MODEL 6
REMARK VINA RESULT:      -5.0      1.924      2.583
REMARK  Name = 10404
REMARK  7 active torsions:
REMARK  status: ('A' for Active; 'I' for Inactive)
REMARK    1  A    between atoms: S_1  and  C_3
REMARK    2  A    between atoms: S_1  and  S_7
REMARK    3  A    between atoms: C_3  and  O_4
REMARK    4  A    between atoms: O_4  and  C_5
REMARK    5  A    between atoms: S_7  and  C_9
REMARK    6  A    between atoms: C_9  and  O_10
REMARK    7  A    between atoms: O_10  and  C_11
REMARK                            x       y       z     vdW  Elec       q    Type
REMARK                         _______ _______ _______ _____ _____    ______ ____
ROOT
ATOM      1  S   UNL     1      34.850 -15.915 -23.581  0.00  0.00    -0.003 S 
ENDROOT
BRANCH   1   3
ATOM      2  S   UNL     1      33.048 -14.219 -25.305  0.00  0.00    -0.003 S 
ATOM      3  C   UNL     1      33.454 -14.871 -23.815  0.00  0.00    +0.212 C 
BRANCH   3   4
ATOM      4  O   UNL     1      32.634 -14.485 -22.794  0.00  0.00    -0.464 OA
BRANCH   4   5
ATOM      5  C   UNL     1      32.340 -13.098 -22.563  0.00  0.00    +0.207 C 
ATOM      6  C   UNL     1      32.096 -12.886 -21.084  0.00  0.00    +0.051 C 
ENDBRANCH   4   5
ENDBRANCH   3   4
ENDBRANCH   1   3
BRANCH   1   7
ATOM      7  S   UNL     1      34.623 -16.478 -21.612  0.00  0.00    -0.003 S 
BRANCH   7   9
ATOM      8  S   UNL     1      34.936 -19.046 -23.163  0.00  0.00    -0.003 S 
ATOM      9  C   UNL     1      34.879 -18.215 -21.708  0.00  0.00    +0.212 C 
BRANCH   9  10
ATOM     10  O   UNL     1      35.004 -19.010 -20.606  0.00  0.00    -0.464 OA
BRANCH  10  11
ATOM     11  C   UNL     1      34.407 -20.317 -20.560  0.00  0.00    +0.207 C 
ATOM     12  C   UNL     1      32.920 -20.172 -20.313  0.00  0.00    +0.051 C 
ENDBRANCH  10  11
ENDBRANCH   9  10
ENDBRANCH   7   9
ENDBRANCH   1   7
TORSDOF 7
ENDMDL
MODEL 7
REMARK VINA RESULT:      -4.9      2.243      6.751
REMARK  Name = 10404
REMARK  7 active torsions:
REMARK  status: ('A' for Active; 'I' for Inactive)
REMARK    1  A    between atoms: S_1  and  C_3
REMARK    2  A    between atoms: S_1  and  S_7
REMARK    3  A    between atoms: C_3  and  O_4
REMARK    4  A    between atoms: O_4  and  C_5
REMARK    5  A    between atoms: S_7  and  C_9
REMARK    6  A    between atoms: C_9  and  O_10
REMARK    7  A    between atoms: O_10  and  C_11
REMARK                            x       y       z     vdW  Elec       q    Type
REMARK                         _______ _______ _______ _____ _____    ______ ____
ROOT
ATOM      1  S   UNL     1      34.483 -15.910 -21.477  0.00  0.00    -0.003 S 
ENDROOT
BRANCH   1   3
ATOM      2  S   UNL     1      35.283 -18.192 -23.278  0.00  0.00    -0.003 S 
ATOM      3  C   UNL     1      34.986 -17.573 -21.749  0.00  0.00    +0.212 C 
BRANCH   3   4
ATOM      4  O   UNL     1      35.124 -18.483 -20.741  0.00  0.00    -0.464 OA
BRANCH   4   5
ATOM      5  C   UNL     1      34.802 -19.869 -20.943  0.00  0.00    +0.207 C 
ATOM      6  C   UNL     1      33.366 -20.106 -20.526  0.00  0.00    +0.051 C 
ENDBRANCH   4   5
ENDBRANCH   3   4
ENDBRANCH   1   3
BRANCH   1   7
ATOM      7  S   UNL     1      34.259 -15.224 -23.407  0.00  0.00    -0.003 S 
BRANCH   7   9
ATOM      8  S   UNL     1      33.685 -12.359 -24.156  0.00  0.00    -0.003 S 
ATOM      9  C   UNL     1      33.463 -13.678 -23.144  0.00  0.00    +0.212 C 
BRANCH   9  10
ATOM     10  O   UNL     1      32.648 -13.433 -22.078  0.00  0.00    -0.464 OA
BRANCH  10  11
ATOM     11  C   UNL     1      31.892 -12.214 -21.985  0.00  0.00    +0.207 C 
ATOM     12  C   UNL     1      31.622 -11.910 -20.527  0.00  0.00    +0.051 C 
ENDBRANCH  10  11
ENDBRANCH   9  10
ENDBRANCH   7   9
ENDBRANCH   1   7
TORSDOF 7
ENDMDL
MODEL 8
REMARK VINA RESULT:      -4.9      2.767      3.684
REMARK  Name = 10404
REMARK  7 active torsions:
REMARK  status: ('A' for Active; 'I' for Inactive)
REMARK    1  A    between atoms: S_1  and  C_3
REMARK    2  A    between atoms: S_1  and  S_7
REMARK    3  A    between atoms: C_3  and  O_4
REMARK    4  A    between atoms: O_4  and  C_5
REMARK    5  A    between atoms: S_7  and  C_9
REMARK    6  A    between atoms: C_9  and  O_10
REMARK    7  A    between atoms: O_10  and  C_11
REMARK                            x       y       z     vdW  Elec       q    Type
REMARK                         _______ _______ _______ _____ _____    ______ ____
ROOT
ATOM      1  S   UNL     1      32.512 -15.140 -21.164  0.00  0.00    -0.003 S 
ENDROOT
BRANCH   1   3
ATOM      2  S   UNL     1      33.277 -13.370 -23.483  0.00  0.00    -0.003 S 
ATOM      3  C   UNL     1      32.446 -13.620 -22.048  0.00  0.00    +0.212 C 
BRANCH   3   4
ATOM      4  O   UNL     1      31.753 -12.531 -21.606  0.00  0.00    -0.464 OA
BRANCH   4   5
ATOM      5  C   UNL     1      31.802 -12.131 -20.227  0.00  0.00    +0.207 C 
ATOM      6  C   UNL     1      31.017 -10.847 -20.058  0.00  0.00    +0.051 C 
ENDBRANCH   4   5
ENDBRANCH   3   4
ENDBRANCH   1   3
BRANCH   1   7
ATOM      7  S   UNL     1      34.508 -15.243 -20.664  0.00  0.00    -0.003 S 
BRANCH   7   9
ATOM      8  S   UNL     1      35.045 -16.992 -23.062  0.00  0.00    -0.003 S 
ATOM      9  C   UNL     1      34.980 -16.768 -21.402  0.00  0.00    +0.212 C 
BRANCH   9  10
ATOM     10  O   UNL     1      35.283 -17.882 -20.675  0.00  0.00    -0.464 OA
BRANCH  10  11
ATOM     11  C   UNL     1      36.234 -18.847 -21.156  0.00  0.00    +0.207 C 
ATOM     12  C   UNL     1      35.954 -20.184 -20.504  0.00  0.00    +0.051 C 
ENDBRANCH  10  11
ENDBRANCH   9  10
ENDBRANCH   7   9
ENDBRANCH   1   7
TORSDOF 7
ENDMDL
MODEL 9
REMARK VINA RESULT:      -4.8      3.430      6.563
REMARK  Name = 10404
REMARK  7 active torsions:
REMARK  status: ('A' for Active; 'I' for Inactive)
REMARK    1  A    between atoms: S_1  and  C_3
REMARK    2  A    between atoms: S_1  and  S_7
REMARK    3  A    between atoms: C_3  and  O_4
REMARK    4  A    between atoms: O_4  and  C_5
REMARK    5  A    between atoms: S_7  and  C_9
REMARK    6  A    between atoms: C_9  and  O_10
REMARK    7  A    between atoms: O_10  and  C_11
REMARK                            x       y       z     vdW  Elec       q    Type
REMARK                         _______ _______ _______ _____ _____    ______ ____
ROOT
ATOM      1  S   UNL     1      34.524 -15.391 -20.604  0.00  0.00    -0.003 S 
ENDROOT
BRANCH   1   3
ATOM      2  S   UNL     1      35.270 -18.162 -21.533  0.00  0.00    -0.003 S 
ATOM      3  C   UNL     1      35.065 -16.526 -21.836  0.00  0.00    +0.212 C 
BRANCH   3   4
ATOM      4  O   UNL     1      35.396 -16.146 -23.104  0.00  0.00    -0.464 OA
BRANCH   4   5
ATOM      5  C   UNL     1      34.402 -16.070 -24.139  0.00  0.00    +0.207 C 
ATOM      6  C   UNL     1      34.703 -17.121 -25.187  0.00  0.00    +0.051 C 
ENDBRANCH   4   5
ENDBRANCH   3   4
ENDBRANCH   1   3
BRANCH   1   7
ATOM      7  S   UNL     1      32.513 -15.246 -21.029  0.00  0.00    -0.003 S 
BRANCH   7   9
ATOM      8  S   UNL     1      32.497 -12.793 -22.784  0.00  0.00    -0.003 S 
ATOM      9  C   UNL     1      32.327 -13.515 -21.280  0.00  0.00    +0.212 C 
BRANCH   9  10
ATOM     10  O   UNL     1      32.077 -12.639 -20.265  0.00  0.00    -0.464 OA
BRANCH  10  11
ATOM     11  C   UNL     1      31.312 -11.443 -20.487  0.00  0.00    +0.207 C 
ATOM     12  C   UNL     1      31.331 -10.603 -19.227  0.00  0.00    +0.051 C 
ENDBRANCH  10  11
ENDBRANCH   9  10
ENDBRANCH   7   9
ENDBRANCH   1   7
TORSDOF 7
ENDMDL
