MODEL 1
REMARK VINA RESULT:     -10.7      0.000      0.000
REMARK  Name = 448943
REMARK  5 active torsions:
REMARK  status: ('A' for Active; 'I' for Inactive)
REMARK    1  A    between atoms: N_1  and  C_28
REMARK    2  A    between atoms: C_4  and  C_13
REMARK    3  A    between atoms: C_14  and  C_19
REMARK    4  A    between atoms: C_28  and  C_29
REMARK    5  A    between atoms: C_29  and  C_31
REMARK                            x       y       z     vdW  Elec       q    Type
REMARK                         _______ _______ _______ _____ _____    ______ ____
ROOT
ATOM      1  N   UNL     1      33.100 -13.525 -24.840  0.00  0.00    -0.286 N 
ATOM      2  C   UNL     1      33.784 -12.350 -25.007  0.00  0.00    +0.052 C 
ATOM      3  C   UNL     1      32.468 -13.555 -23.634  0.00  0.00    +0.066 C 
ATOM      4  C   UNL     1      32.745 -12.369 -22.993  0.00  0.00    +0.021 C 
ATOM      5  C   UNL     1      33.576 -11.597 -23.850  0.00  0.00    +0.015 C 
ATOM      6  C   UNL     1      34.563 -11.893 -26.076  0.00  0.00    +0.015 C 
ATOM      7  C   UNL     1      34.174 -10.324 -23.753  0.00  0.00    +0.001 C 
ATOM      8  C   UNL     1      35.147 -10.628 -25.958  0.00  0.00    +0.001 C 
ATOM      9  C   UNL     1      34.956  -9.854 -24.814  0.00  0.00    +0.000 C 
ENDROOT
BRANCH   4  13
ATOM     10  O   UNL     1      32.737 -14.102 -20.575  0.00  0.00    -0.270 OA
ATOM     11  O   UNL     1      30.825 -10.205 -19.124  0.00  0.00    -0.270 OA
ATOM     12  N   UNL     1      31.740 -12.307 -19.489  0.00  0.00    -0.248 N 
ATOM     13  C   UNL     1      32.257 -12.023 -21.693  0.00  0.00    +0.059 C 
ATOM     14  C   UNL     1      31.683 -10.882 -21.269  0.00  0.00    +0.059 C 
ATOM     15  C   UNL     1      32.297 -12.965 -20.545  0.00  0.00    +0.252 C 
ATOM     16  C   UNL     1      31.344 -11.050 -19.834  0.00  0.00    +0.252 C 
ATOM     17  H   UNL     1      31.636 -12.694 -18.589  0.00  0.00    +0.158 HD
BRANCH  14  19
ATOM     18  N   UNL     1      30.713  -8.289 -23.574  0.00  0.00    -0.312 N 
ATOM     19  C   UNL     1      31.428  -9.671 -21.986  0.00  0.00    +0.020 C 
ATOM     20  C   UNL     1      31.783  -8.341 -21.617  0.00  0.00    +0.015 C 
ATOM     21  C   UNL     1      30.770  -9.604 -23.195  0.00  0.00    +0.062 C 
ATOM     22  C   UNL     1      31.323  -7.496 -22.630  0.00  0.00    +0.048 C 
ATOM     23  C   UNL     1      32.453  -7.777 -20.514  0.00  0.00    +0.001 C 
ATOM     24  C   UNL     1      31.501  -6.109 -22.593  0.00  0.00    +0.015 C 
ATOM     25  C   UNL     1      32.639  -6.389 -20.465  0.00  0.00    +0.000 C 
ATOM     26  C   UNL     1      32.169  -5.570 -21.490  0.00  0.00    +0.001 C 
ATOM     27  H   UNL     1      30.295  -7.960 -24.403  0.00  0.00    +0.152 HD
ENDBRANCH  14  19
ENDBRANCH   4  13
BRANCH   1  28
ATOM     28  C   UNL     1      33.044 -14.609 -25.815  0.00  0.00    +0.093 C 
BRANCH  28  29
ATOM     29  C   UNL     1      34.272 -15.512 -25.736  0.00  0.00    +0.001 C 
BRANCH  29  31
ATOM     30  N   UNL     1      35.137 -16.694 -23.707  0.00  0.00    +0.387 N 
ATOM     31  C   UNL     1      34.072 -16.627 -24.718  0.00  0.00    -0.057 C 
ATOM     32  C   UNL     1      34.141 -18.009 -25.369  0.00  0.00    -0.023 C 
ATOM     33  C   UNL     1      34.753 -18.922 -24.312  0.00  0.00    -0.025 C 
ATOM     34  C   UNL     1      35.011 -18.026 -23.112  0.00  0.00    -0.077 C 
ATOM     35  C   UNL     1      35.040 -15.646 -22.697  0.00  0.00    -0.101 C 
ATOM     36  H   UNL     1      36.049 -16.541 -24.135  0.00  0.00    -0.080 HD
ENDBRANCH  29  31
ENDBRANCH  28  29
ENDBRANCH   1  28
TORSDOF 5
ENDMDL
MODEL 2
REMARK VINA RESULT:     -10.5      9.287     14.106
REMARK  Name = 448943
REMARK  5 active torsions:
REMARK  status: ('A' for Active; 'I' for Inactive)
REMARK    1  A    between atoms: N_1  and  C_28
REMARK    2  A    between atoms: C_4  and  C_13
REMARK    3  A    between atoms: C_14  and  C_19
REMARK    4  A    between atoms: C_28  and  C_29
REMARK    5  A    between atoms: C_29  and  C_31
REMARK                            x       y       z     vdW  Elec       q    Type
REMARK                         _______ _______ _______ _____ _____    ______ ____
ROOT
ATOM      1  N   UNL     1      34.381 -22.231 -18.753  0.00  0.00    -0.286 N 
ATOM      2  C   UNL     1      35.486 -22.056 -17.962  0.00  0.00    +0.052 C 
ATOM      3  C   UNL     1      33.359 -22.791 -18.049  0.00  0.00    +0.066 C 
ATOM      4  C   UNL     1      33.803 -22.988 -16.761  0.00  0.00    +0.021 C 
ATOM      5  C   UNL     1      35.147 -22.527 -16.692  0.00  0.00    +0.015 C 
ATOM      6  C   UNL     1      36.745 -21.524 -18.259  0.00  0.00    +0.015 C 
ATOM      7  C   UNL     1      36.112 -22.465 -15.666  0.00  0.00    +0.001 C 
ATOM      8  C   UNL     1      37.686 -21.473 -17.227  0.00  0.00    +0.001 C 
ATOM      9  C   UNL     1      37.376 -21.936 -15.950  0.00  0.00    +0.000 C 
ENDROOT
BRANCH   4  13
ATOM     10  O   UNL     1      30.890 -22.590 -16.312  0.00  0.00    -0.270 OA
ATOM     11  O   UNL     1      32.147 -25.366 -12.896  0.00  0.00    -0.270 OA
ATOM     12  N   UNL     1      31.147 -23.983 -14.471  0.00  0.00    -0.248 N 
ATOM     13  C   UNL     1      33.013 -23.559 -15.715  0.00  0.00    +0.059 C 
ATOM     14  C   UNL     1      33.385 -24.365 -14.703  0.00  0.00    +0.059 C 
ATOM     15  C   UNL     1      31.558 -23.296 -15.575  0.00  0.00    +0.252 C 
ATOM     16  C   UNL     1      32.179 -24.654 -13.886  0.00  0.00    +0.252 C 
ATOM     17  H   UNL     1      30.221 -23.992 -14.138  0.00  0.00    +0.158 HD
BRANCH  14  19
ATOM     18  N   UNL     1      36.493 -26.179 -14.548  0.00  0.00    -0.312 N 
ATOM     19  C   UNL     1      34.670 -24.914 -14.403  0.00  0.00    +0.020 C 
ATOM     20  C   UNL     1      35.550 -24.558 -13.340  0.00  0.00    +0.015 C 
ATOM     21  C   UNL     1      35.281 -25.914 -15.128  0.00  0.00    +0.062 C 
ATOM     22  C   UNL     1      36.684 -25.366 -13.455  0.00  0.00    +0.048 C 
ATOM     23  C   UNL     1      35.488 -23.622 -12.289  0.00  0.00    +0.001 C 
ATOM     24  C   UNL     1      37.762 -25.284 -12.567  0.00  0.00    +0.015 C 
ATOM     25  C   UNL     1      36.560 -23.529 -11.392  0.00  0.00    +0.000 C 
ATOM     26  C   UNL     1      37.679 -24.348 -11.531  0.00  0.00    +0.001 C 
ATOM     27  H   UNL     1      37.135 -26.854 -14.868  0.00  0.00    +0.152 HD
ENDBRANCH  14  19
ENDBRANCH   4  13
BRANCH   1  28
ATOM     28  C   UNL     1      34.295 -21.871 -20.164  0.00  0.00    +0.093 C 
BRANCH  28  29
ATOM     29  C   UNL     1      34.112 -20.369 -20.360  0.00  0.00    +0.001 C 
BRANCH  29  31
ATOM     30  N   UNL     1      35.880 -18.835 -21.244  0.00  0.00    +0.387 N 
ATOM     31  C   UNL     1      34.890 -19.871 -21.571  0.00  0.00    -0.057 C 
ATOM     32  C   UNL     1      33.983 -19.162 -22.578  0.00  0.00    -0.023 C 
ATOM     33  C   UNL     1      34.849 -18.073 -23.202  0.00  0.00    -0.025 C 
ATOM     34  C   UNL     1      36.203 -18.203 -22.525  0.00  0.00    -0.077 C 
ATOM     35  C   UNL     1      37.074 -19.362 -20.593  0.00  0.00    -0.101 C 
ATOM     36  H   UNL     1      35.500 -18.175 -20.566  0.00  0.00    -0.080 HD
ENDBRANCH  29  31
ENDBRANCH  28  29
ENDBRANCH   1  28
TORSDOF 5
ENDMDL
MODEL 3
REMARK VINA RESULT:     -10.3      2.922      5.286
REMARK  Name = 448943
REMARK  5 active torsions:
REMARK  status: ('A' for Active; 'I' for Inactive)
REMARK    1  A    between atoms: N_1  and  C_28
REMARK    2  A    between atoms: C_4  and  C_13
REMARK    3  A    between atoms: C_14  and  C_19
REMARK    4  A    between atoms: C_28  and  C_29
REMARK    5  A    between atoms: C_29  and  C_31
REMARK                            x       y       z     vdW  Elec       q    Type
REMARK                         _______ _______ _______ _____ _____    ______ ____
ROOT
ATOM      1  N   UNL     1      34.998 -16.220 -22.659  0.00  0.00    -0.286 N 
ATOM      2  C   UNL     1      34.120 -15.516 -21.878  0.00  0.00    +0.052 C 
ATOM      3  C   UNL     1      34.822 -15.929 -23.978  0.00  0.00    +0.066 C 
ATOM      4  C   UNL     1      33.802 -15.009 -24.066  0.00  0.00    +0.021 C 
ATOM      5  C   UNL     1      33.348 -14.738 -22.745  0.00  0.00    +0.015 C 
ATOM      6  C   UNL     1      33.944 -15.500 -20.490  0.00  0.00    +0.015 C 
ATOM      7  C   UNL     1      32.352 -13.903 -22.201  0.00  0.00    +0.001 C 
ATOM      8  C   UNL     1      32.950 -14.665 -19.973  0.00  0.00    +0.001 C 
ATOM      9  C   UNL     1      32.165 -13.877 -20.814  0.00  0.00    +0.000 C 
ENDROOT
BRANCH   4  13
ATOM     10  O   UNL     1      32.619 -16.501 -26.350  0.00  0.00    -0.270 OA
ATOM     11  O   UNL     1      32.536 -12.142 -27.741  0.00  0.00    -0.270 OA
ATOM     12  N   UNL     1      32.414 -14.433 -27.386  0.00  0.00    -0.248 N 
ATOM     13  C   UNL     1      33.321 -14.454 -25.293  0.00  0.00    +0.059 C 
ATOM     14  C   UNL     1      33.307 -13.173 -25.707  0.00  0.00    +0.059 C 
ATOM     15  C   UNL     1      32.745 -15.289 -26.378  0.00  0.00    +0.252 C 
ATOM     16  C   UNL     1      32.716 -13.143 -27.069  0.00  0.00    +0.252 C 
ATOM     17  H   UNL     1      32.007 -14.713 -28.239  0.00  0.00    +0.158 HD
BRANCH  14  19
ATOM     18  N   UNL     1      35.010 -10.276 -24.410  0.00  0.00    -0.312 N 
ATOM     19  C   UNL     1      33.737 -11.992 -25.026  0.00  0.00    +0.020 C 
ATOM     20  C   UNL     1      33.036 -11.245 -24.036  0.00  0.00    +0.015 C 
ATOM     21  C   UNL     1      34.949 -11.369 -25.234  0.00  0.00    +0.062 C 
ATOM     22  C   UNL     1      33.856 -10.176 -23.667  0.00  0.00    +0.048 C 
ATOM     23  C   UNL     1      31.777 -11.379 -23.417  0.00  0.00    +0.001 C 
ATOM     24  C   UNL     1      33.478  -9.231 -22.708  0.00  0.00    +0.015 C 
ATOM     25  C   UNL     1      31.386 -10.441 -22.454  0.00  0.00    +0.000 C 
ATOM     26  C   UNL     1      32.225  -9.383 -22.106  0.00  0.00    +0.001 C 
ATOM     27  H   UNL     1      35.771  -9.653 -24.357  0.00  0.00    +0.152 HD
ENDBRANCH  14  19
ENDBRANCH   4  13
BRANCH   1  28
ATOM     28  C   UNL     1      35.996 -17.160 -22.160  0.00  0.00    +0.093 C 
BRANCH  28  29
ATOM     29  C   UNL     1      35.542 -18.609 -22.314  0.00  0.00    +0.001 C 
BRANCH  29  31
ATOM     30  N   UNL     1      35.299 -20.502 -20.697  0.00  0.00    +0.387 N 
ATOM     31  C   UNL     1      34.905 -19.127 -21.032  0.00  0.00    -0.057 C 
ATOM     32  C   UNL     1      33.384 -19.235 -21.157  0.00  0.00    -0.023 C 
ATOM     33  C   UNL     1      32.994 -20.432 -20.297  0.00  0.00    -0.025 C 
ATOM     34  C   UNL     1      34.301 -20.956 -19.726  0.00  0.00    -0.077 C 
ATOM     35  C   UNL     1      36.651 -20.601 -20.158  0.00  0.00    -0.101 C 
ATOM     36  H   UNL     1      35.323 -21.084 -21.534  0.00  0.00    -0.080 HD
ENDBRANCH  29  31
ENDBRANCH  28  29
ENDBRANCH   1  28
TORSDOF 5
ENDMDL
MODEL 4
REMARK VINA RESULT:     -10.2      2.455      8.134
REMARK  Name = 448943
REMARK  5 active torsions:
REMARK  status: ('A' for Active; 'I' for Inactive)
REMARK    1  A    between atoms: N_1  and  C_28
REMARK    2  A    between atoms: C_4  and  C_13
REMARK    3  A    between atoms: C_14  and  C_19
REMARK    4  A    between atoms: C_28  and  C_29
REMARK    5  A    between atoms: C_29  and  C_31
REMARK                            x       y       z     vdW  Elec       q    Type
REMARK                         _______ _______ _______ _____ _____    ______ ____
ROOT
ATOM      1  N   UNL     1      32.796 -10.972 -23.057  0.00  0.00    -0.286 N 
ATOM      2  C   UNL     1      33.750 -10.439 -23.883  0.00  0.00    +0.052 C 
ATOM      3  C   UNL     1      32.490 -12.248 -23.424  0.00  0.00    +0.066 C 
ATOM      4  C   UNL     1      33.264 -12.560 -24.517  0.00  0.00    +0.021 C 
ATOM      5  C   UNL     1      34.066 -11.425 -24.819  0.00  0.00    +0.015 C 
ATOM      6  C   UNL     1      34.357  -9.178 -23.881  0.00  0.00    +0.015 C 
ATOM      7  C   UNL     1      35.035 -11.141 -25.803  0.00  0.00    +0.001 C 
ATOM      8  C   UNL     1      35.314  -8.918 -24.865  0.00  0.00    +0.001 C 
ATOM      9  C   UNL     1      35.649  -9.884 -25.813  0.00  0.00    +0.000 C 
ENDROOT
BRANCH   4  13
ATOM     10  O   UNL     1      32.715 -13.011 -27.405  0.00  0.00    -0.270 OA
ATOM     11  O   UNL     1      33.360 -17.230 -25.751  0.00  0.00    -0.270 OA
ATOM     12  N   UNL     1      32.977 -15.271 -26.938  0.00  0.00    -0.248 N 
ATOM     13  C   UNL     1      33.230 -13.819 -25.195  0.00  0.00    +0.059 C 
ATOM     14  C   UNL     1      33.407 -15.061 -24.707  0.00  0.00    +0.059 C 
ATOM     15  C   UNL     1      32.943 -13.939 -26.648  0.00  0.00    +0.252 C 
ATOM     16  C   UNL     1      33.249 -16.018 -25.831  0.00  0.00    +0.252 C 
ATOM     17  H   UNL     1      32.822 -15.646 -27.835  0.00  0.00    +0.158 HD
BRANCH  14  19
ATOM     18  N   UNL     1      33.723 -15.557 -21.153  0.00  0.00    -0.312 N 
ATOM     19  C   UNL     1      33.717 -15.479 -23.375  0.00  0.00    +0.020 C 
ATOM     20  C   UNL     1      34.579 -16.537 -22.966  0.00  0.00    +0.015 C 
ATOM     21  C   UNL     1      33.206 -14.896 -22.236  0.00  0.00    +0.062 C 
ATOM     22  C   UNL     1      34.565 -16.564 -21.569  0.00  0.00    +0.048 C 
ATOM     23  C   UNL     1      35.372 -17.476 -23.654  0.00  0.00    +0.001 C 
ATOM     24  C   UNL     1      35.307 -17.487 -20.824  0.00  0.00    +0.015 C 
ATOM     25  C   UNL     1      36.121 -18.406 -22.922  0.00  0.00    +0.000 C 
ATOM     26  C   UNL     1      36.087 -18.409 -21.528  0.00  0.00    +0.001 C 
ATOM     27  H   UNL     1      33.522 -15.343 -20.214  0.00  0.00    +0.152 HD
ENDBRANCH  14  19
ENDBRANCH   4  13
BRANCH   1  28
ATOM     28  C   UNL     1      32.180 -10.279 -21.931  0.00  0.00    +0.093 C 
BRANCH  28  29
ATOM     29  C   UNL     1      31.118  -9.282 -22.385  0.00  0.00    +0.001 C 
BRANCH  29  31
ATOM     30  N   UNL     1      31.460  -6.930 -21.606  0.00  0.00    +0.387 N 
ATOM     31  C   UNL     1      31.728  -7.915 -22.663  0.00  0.00    -0.057 C 
ATOM     32  C   UNL     1      31.111  -7.257 -23.898  0.00  0.00    -0.023 C 
ATOM     33  C   UNL     1      31.121  -5.761 -23.605  0.00  0.00    -0.025 C 
ATOM     34  C   UNL     1      31.735  -5.629 -22.222  0.00  0.00    -0.077 C 
ATOM     35  C   UNL     1      32.266  -7.134 -20.407  0.00  0.00    -0.101 C 
ATOM     36  H   UNL     1      30.499  -7.010 -21.274  0.00  0.00    -0.080 HD
ENDBRANCH  29  31
ENDBRANCH  28  29
ENDBRANCH   1  28
TORSDOF 5
ENDMDL
MODEL 5
REMARK VINA RESULT:     -10.0      3.275      5.718
REMARK  Name = 448943
REMARK  5 active torsions:
REMARK  status: ('A' for Active; 'I' for Inactive)
REMARK    1  A    between atoms: N_1  and  C_28
REMARK    2  A    between atoms: C_4  and  C_13
REMARK    3  A    between atoms: C_14  and  C_19
REMARK    4  A    between atoms: C_28  and  C_29
REMARK    5  A    between atoms: C_29  and  C_31
REMARK                            x       y       z     vdW  Elec       q    Type
REMARK                         _______ _______ _______ _____ _____    ______ ____
ROOT
ATOM      1  N   UNL     1      35.137 -16.692 -22.382  0.00  0.00    -0.286 N 
ATOM      2  C   UNL     1      34.258 -15.983 -21.605  0.00  0.00    +0.052 C 
ATOM      3  C   UNL     1      34.921 -16.457 -23.705  0.00  0.00    +0.066 C 
ATOM      4  C   UNL     1      33.874 -15.569 -23.801  0.00  0.00    +0.021 C 
ATOM      5  C   UNL     1      33.445 -15.261 -22.480  0.00  0.00    +0.015 C 
ATOM      6  C   UNL     1      34.116 -15.920 -20.215  0.00  0.00    +0.015 C 
ATOM      7  C   UNL     1      32.438 -14.433 -21.943  0.00  0.00    +0.001 C 
ATOM      8  C   UNL     1      33.111 -15.093 -19.704  0.00  0.00    +0.001 C 
ATOM      9  C   UNL     1      32.284 -14.360 -20.554  0.00  0.00    +0.000 C 
ENDROOT
BRANCH   4  13
ATOM     10  O   UNL     1      33.106 -17.180 -26.180  0.00  0.00    -0.270 OA
ATOM     11  O   UNL     1      32.233 -12.872 -27.458  0.00  0.00    -0.270 OA
ATOM     12  N   UNL     1      32.546 -15.155 -27.170  0.00  0.00    -0.248 N 
ATOM     13  C   UNL     1      33.347 -15.074 -25.035  0.00  0.00    +0.059 C 
ATOM     14  C   UNL     1      33.102 -13.807 -25.416  0.00  0.00    +0.059 C 
ATOM     15  C   UNL     1      32.994 -15.966 -26.170  0.00  0.00    +0.252 C 
ATOM     16  C   UNL     1      32.575 -13.843 -26.804  0.00  0.00    +0.252 C 
ATOM     17  H   UNL     1      32.239 -15.478 -28.049  0.00  0.00    +0.158 HD
BRANCH  14  19
ATOM     18  N   UNL     1      33.010 -11.052 -23.097  0.00  0.00    -0.312 N 
ATOM     19  C   UNL     1      33.262 -12.590 -24.683  0.00  0.00    +0.020 C 
ATOM     20  C   UNL     1      34.093 -11.477 -25.001  0.00  0.00    +0.015 C 
ATOM     21  C   UNL     1      32.610 -12.297 -23.505  0.00  0.00    +0.062 C 
ATOM     22  C   UNL     1      33.916 -10.528 -23.992  0.00  0.00    +0.048 C 
ATOM     23  C   UNL     1      34.981 -11.188 -26.055  0.00  0.00    +0.001 C 
ATOM     24  C   UNL     1      34.585  -9.299 -23.984  0.00  0.00    +0.015 C 
ATOM     25  C   UNL     1      35.658  -9.961 -26.062  0.00  0.00    +0.000 C 
ATOM     26  C   UNL     1      35.461  -9.033 -25.041  0.00  0.00    +0.001 C 
ATOM     27  H   UNL     1      32.695 -10.598 -22.282  0.00  0.00    +0.152 HD
ENDBRANCH  14  19
ENDBRANCH   4  13
BRANCH   1  28
ATOM     28  C   UNL     1      36.173 -17.585 -21.873  0.00  0.00    +0.093 C 
BRANCH  28  29
ATOM     29  C   UNL     1      35.778 -19.053 -22.008  0.00  0.00    +0.001 C 
BRANCH  29  31
ATOM     30  N   UNL     1      35.318 -20.934 -20.424  0.00  0.00    +0.387 N 
ATOM     31  C   UNL     1      35.025 -19.537 -20.776  0.00  0.00    -0.057 C 
ATOM     32  C   UNL     1      33.514 -19.560 -21.007  0.00  0.00    -0.023 C 
ATOM     33  C   UNL     1      32.998 -20.735 -20.184  0.00  0.00    -0.025 C 
ATOM     34  C   UNL     1      34.231 -21.333 -19.527  0.00  0.00    -0.077 C 
ATOM     35  C   UNL     1      36.622 -21.111 -19.794  0.00  0.00    -0.101 C 
ATOM     36  H   UNL     1      35.367 -21.514 -21.261  0.00  0.00    -0.080 HD
ENDBRANCH  29  31
ENDBRANCH  28  29
ENDBRANCH   1  28
TORSDOF 5
ENDMDL
MODEL 6
REMARK VINA RESULT:      -9.8      2.028      3.167
REMARK  Name = 448943
REMARK  5 active torsions:
REMARK  status: ('A' for Active; 'I' for Inactive)
REMARK    1  A    between atoms: N_1  and  C_28
REMARK    2  A    between atoms: C_4  and  C_13
REMARK    3  A    between atoms: C_14  and  C_19
REMARK    4  A    between atoms: C_28  and  C_29
REMARK    5  A    between atoms: C_29  and  C_31
REMARK                            x       y       z     vdW  Elec       q    Type
REMARK                         _______ _______ _______ _____ _____    ______ ____
ROOT
ATOM      1  N   UNL     1      32.569 -11.758 -23.112  0.00  0.00    -0.286 N 
ATOM      2  C   UNL     1      33.478 -11.036 -23.840  0.00  0.00    +0.052 C 
ATOM      3  C   UNL     1      31.995 -10.990 -22.146  0.00  0.00    +0.066 C 
ATOM      4  C   UNL     1      32.539  -9.730 -22.241  0.00  0.00    +0.021 C 
ATOM      5  C   UNL     1      33.479  -9.744 -23.309  0.00  0.00    +0.015 C 
ATOM      6  C   UNL     1      34.292 -11.411 -24.914  0.00  0.00    +0.015 C 
ATOM      7  C   UNL     1      34.334  -8.778 -23.878  0.00  0.00    +0.001 C 
ATOM      8  C   UNL     1      35.132 -10.438 -25.462  0.00  0.00    +0.001 C 
ATOM      9  C   UNL     1      35.154  -9.141 -24.952  0.00  0.00    +0.000 C 
ENDROOT
BRANCH   4  13
ATOM     10  O   UNL     1      32.737  -9.642 -19.275  0.00  0.00    -0.270 OA
ATOM     11  O   UNL     1      31.048  -5.532 -20.373  0.00  0.00    -0.270 OA
ATOM     12  N   UNL     1      31.885  -7.488 -19.442  0.00  0.00    -0.248 N 
ATOM     13  C   UNL     1      32.188  -8.633 -21.393  0.00  0.00    +0.059 C 
ATOM     14  C   UNL     1      31.680  -7.429 -21.714  0.00  0.00    +0.059 C 
ATOM     15  C   UNL     1      32.324  -8.689 -19.914  0.00  0.00    +0.252 C 
ATOM     16  C   UNL     1      31.480  -6.669 -20.454  0.00  0.00    +0.252 C 
ATOM     17  H   UNL     1      31.863  -7.243 -18.489  0.00  0.00    +0.158 HD
BRANCH  14  19
ATOM     18  N   UNL     1      30.755  -6.767 -25.132  0.00  0.00    -0.312 N 
ATOM     19  C   UNL     1      31.377  -6.883 -23.000  0.00  0.00    +0.020 C 
ATOM     20  C   UNL     1      31.461  -5.524 -23.419  0.00  0.00    +0.015 C 
ATOM     21  C   UNL     1      30.940  -7.622 -24.078  0.00  0.00    +0.062 C 
ATOM     22  C   UNL     1      31.065  -5.479 -24.758  0.00  0.00    +0.048 C 
ATOM     23  C   UNL     1      31.836  -4.325 -22.782  0.00  0.00    +0.001 C 
ATOM     24  C   UNL     1      31.027  -4.290 -25.494  0.00  0.00    +0.015 C 
ATOM     25  C   UNL     1      31.803  -3.127 -23.506  0.00  0.00    +0.000 C 
ATOM     26  C   UNL     1      31.404  -3.112 -24.842  0.00  0.00    +0.001 C 
ATOM     27  H   UNL     1      30.445  -7.035 -26.027  0.00  0.00    +0.152 HD
ENDBRANCH  14  19
ENDBRANCH   4  13
BRANCH   1  28
ATOM     28  C   UNL     1      32.248 -13.164 -23.331  0.00  0.00    +0.093 C 
BRANCH  28  29
ATOM     29  C   UNL     1      32.701 -14.042 -22.167  0.00  0.00    +0.001 C 
BRANCH  29  31
ATOM     30  N   UNL     1      34.668 -15.586 -22.119  0.00  0.00    +0.387 N 
ATOM     31  C   UNL     1      33.327 -15.338 -22.665  0.00  0.00    -0.057 C 
ATOM     32  C   UNL     1      33.580 -15.305 -24.173  0.00  0.00    -0.023 C 
ATOM     33  C   UNL     1      34.841 -16.134 -24.388  0.00  0.00    -0.025 C 
ATOM     34  C   UNL     1      35.255 -16.598 -23.001  0.00  0.00    -0.077 C 
ATOM     35  C   UNL     1      34.654 -16.033 -20.730  0.00  0.00    -0.101 C 
ATOM     36  H   UNL     1      35.213 -14.724 -22.095  0.00  0.00    -0.080 HD
ENDBRANCH  29  31
ENDBRANCH  28  29
ENDBRANCH   1  28
TORSDOF 5
ENDMDL
MODEL 7
REMARK VINA RESULT:      -9.3      5.136      8.921
REMARK  Name = 448943
REMARK  5 active torsions:
REMARK  status: ('A' for Active; 'I' for Inactive)
REMARK    1  A    between atoms: N_1  and  C_28
REMARK    2  A    between atoms: C_4  and  C_13
REMARK    3  A    between atoms: C_14  and  C_19
REMARK    4  A    between atoms: C_28  and  C_29
REMARK    5  A    between atoms: C_29  and  C_31
REMARK                            x       y       z     vdW  Elec       q    Type
REMARK                         _______ _______ _______ _____ _____    ______ ____
ROOT
ATOM      1  N   UNL     1      33.537 -20.616 -20.197  0.00  0.00    -0.286 N 
ATOM      2  C   UNL     1      34.891 -20.650 -19.992  0.00  0.00    +0.052 C 
ATOM      3  C   UNL     1      33.226 -19.857 -21.285  0.00  0.00    +0.066 C 
ATOM      4  C   UNL     1      34.407 -19.382 -21.807  0.00  0.00    +0.021 C 
ATOM      5  C   UNL     1      35.469 -19.875 -20.999  0.00  0.00    +0.015 C 
ATOM      6  C   UNL     1      35.648 -21.296 -19.008  0.00  0.00    +0.015 C 
ATOM      7  C   UNL     1      36.871 -19.737 -21.028  0.00  0.00    +0.001 C 
ATOM      8  C   UNL     1      37.036 -21.145 -19.056  0.00  0.00    +0.001 C 
ATOM      9  C   UNL     1      37.640 -20.377 -20.051  0.00  0.00    +0.000 C 
ENDROOT
BRANCH   4  13
ATOM     10  O   UNL     1      34.860 -20.256 -24.613  0.00  0.00    -0.270 OA
ATOM     11  O   UNL     1      34.573 -15.699 -24.930  0.00  0.00    -0.270 OA
ATOM     12  N   UNL     1      34.772 -18.001 -25.161  0.00  0.00    -0.248 N 
ATOM     13  C   UNL     1      34.497 -18.541 -22.961  0.00  0.00    +0.059 C 
ATOM     14  C   UNL     1      34.425 -17.201 -23.053  0.00  0.00    +0.059 C 
ATOM     15  C   UNL     1      34.728 -19.078 -24.327  0.00  0.00    +0.252 C 
ATOM     16  C   UNL     1      34.598 -16.833 -24.481  0.00  0.00    +0.252 C 
ATOM     17  H   UNL     1      34.912 -18.060 -26.134  0.00  0.00    +0.158 HD
BRANCH  14  19
ATOM     18  N   UNL     1      34.313 -15.196 -20.062  0.00  0.00    -0.312 N 
ATOM     19  C   UNL     1      34.201 -16.229 -22.028  0.00  0.00    +0.020 C 
ATOM     20  C   UNL     1      33.406 -15.049 -22.095  0.00  0.00    +0.015 C 
ATOM     21  C   UNL     1      34.746 -16.290 -20.763  0.00  0.00    +0.062 C 
ATOM     22  C   UNL     1      33.493 -14.421 -20.851  0.00  0.00    +0.048 C 
ATOM     23  C   UNL     1      32.619 -14.455 -23.101  0.00  0.00    +0.001 C 
ATOM     24  C   UNL     1      32.830 -13.224 -20.561  0.00  0.00    +0.015 C 
ATOM     25  C   UNL     1      31.948 -13.257 -22.825  0.00  0.00    +0.000 C 
ATOM     26  C   UNL     1      32.053 -12.652 -21.574  0.00  0.00    +0.001 C 
ATOM     27  H   UNL     1      34.553 -14.994 -19.129  0.00  0.00    +0.152 HD
ENDBRANCH  14  19
ENDBRANCH   4  13
BRANCH   1  28
ATOM     28  C   UNL     1      32.546 -21.297 -19.371  0.00  0.00    +0.093 C 
BRANCH  28  29
ATOM     29  C   UNL     1      33.137 -22.502 -18.646  0.00  0.00    +0.001 C 
BRANCH  29  31
ATOM     30  N   UNL     1      33.457 -23.526 -16.385  0.00  0.00    +0.387 N 
ATOM     31  C   UNL     1      32.759 -22.499 -17.171  0.00  0.00    -0.057 C 
ATOM     32  C   UNL     1      31.287 -22.860 -16.961  0.00  0.00    -0.023 C 
ATOM     33  C   UNL     1      31.242 -23.610 -15.634  0.00  0.00    -0.025 C 
ATOM     34  C   UNL     1      32.682 -23.650 -15.149  0.00  0.00    -0.077 C 
ATOM     35  C   UNL     1      34.851 -23.195 -16.110  0.00  0.00    -0.101 C 
ATOM     36  H   UNL     1      33.510 -24.402 -16.904  0.00  0.00    -0.080 HD
ENDBRANCH  29  31
ENDBRANCH  28  29
ENDBRANCH   1  28
TORSDOF 5
ENDMDL
MODEL 8
REMARK VINA RESULT:      -9.3      2.435      7.608
REMARK  Name = 448943
REMARK  5 active torsions:
REMARK  status: ('A' for Active; 'I' for Inactive)
REMARK    1  A    between atoms: N_1  and  C_28
REMARK    2  A    between atoms: C_4  and  C_13
REMARK    3  A    between atoms: C_14  and  C_19
REMARK    4  A    between atoms: C_28  and  C_29
REMARK    5  A    between atoms: C_29  and  C_31
REMARK                            x       y       z     vdW  Elec       q    Type
REMARK                         _______ _______ _______ _____ _____    ______ ____
ROOT
ATOM      1  N   UNL     1      33.064 -11.170 -23.261  0.00  0.00    -0.286 N 
ATOM      2  C   UNL     1      33.952 -10.683 -24.183  0.00  0.00    +0.052 C 
ATOM      3  C   UNL     1      32.650 -12.424 -23.594  0.00  0.00    +0.066 C 
ATOM      4  C   UNL     1      33.285 -12.771 -24.765  0.00  0.00    +0.021 C 
ATOM      5  C   UNL     1      34.112 -11.679 -25.150  0.00  0.00    +0.015 C 
ATOM      6  C   UNL     1      34.624  -9.458 -24.244  0.00  0.00    +0.015 C 
ATOM      7  C   UNL     1      34.984 -11.441 -26.231  0.00  0.00    +0.001 C 
ATOM      8  C   UNL     1      35.483  -9.243 -25.325  0.00  0.00    +0.001 C 
ATOM      9  C   UNL     1      35.662 -10.219 -26.304  0.00  0.00    +0.000 C 
ENDROOT
BRANCH   4  13
ATOM     10  O   UNL     1      31.977 -13.205 -27.400  0.00  0.00    -0.270 OA
ATOM     11  O   UNL     1      33.201 -17.416 -26.089  0.00  0.00    -0.270 OA
ATOM     12  N   UNL     1      32.437 -15.458 -27.077  0.00  0.00    -0.248 N 
ATOM     13  C   UNL     1      33.109 -14.021 -25.437  0.00  0.00    +0.059 C 
ATOM     14  C   UNL     1      33.457 -15.261 -25.046  0.00  0.00    +0.059 C 
ATOM     15  C   UNL     1      32.438 -14.133 -26.758  0.00  0.00    +0.252 C 
ATOM     16  C   UNL     1      33.030 -16.209 -26.106  0.00  0.00    +0.252 C 
ATOM     17  H   UNL     1      32.054 -15.828 -27.906  0.00  0.00    +0.158 HD
BRANCH  14  19
ATOM     18  N   UNL     1      35.678 -16.598 -22.545  0.00  0.00    -0.312 N 
ATOM     19  C   UNL     1      34.137 -15.683 -23.862  0.00  0.00    +0.020 C 
ATOM     20  C   UNL     1      33.738 -15.497 -22.506  0.00  0.00    +0.015 C 
ATOM     21  C   UNL     1      35.336 -16.364 -23.851  0.00  0.00    +0.062 C 
ATOM     22  C   UNL     1      34.721 -16.080 -21.703  0.00  0.00    +0.048 C 
ATOM     23  C   UNL     1      32.630 -14.886 -21.887  0.00  0.00    +0.001 C 
ATOM     24  C   UNL     1      34.650 -16.082 -20.306  0.00  0.00    +0.015 C 
ATOM     25  C   UNL     1      32.545 -14.881 -20.489  0.00  0.00    +0.000 C 
ATOM     26  C   UNL     1      33.541 -15.471 -19.712  0.00  0.00    +0.001 C 
ATOM     27  H   UNL     1      36.491 -17.070 -22.252  0.00  0.00    +0.152 HD
ENDBRANCH  14  19
ENDBRANCH   4  13
BRANCH   1  28
ATOM     28  C   UNL     1      32.610 -10.453 -22.074  0.00  0.00    +0.093 C 
BRANCH  28  29
ATOM     29  C   UNL     1      31.257  -9.782 -22.294  0.00  0.00    +0.001 C 
BRANCH  29  31
ATOM     30  N   UNL     1      32.024  -7.480 -22.906  0.00  0.00    +0.387 N 
ATOM     31  C   UNL     1      31.307  -8.305 -21.924  0.00  0.00    -0.057 C 
ATOM     32  C   UNL     1      32.106  -8.068 -20.641  0.00  0.00    -0.023 C 
ATOM     33  C   UNL     1      32.772  -6.709 -20.827  0.00  0.00    -0.025 C 
ATOM     34  C   UNL     1      32.331  -6.234 -22.201  0.00  0.00    -0.077 C 
ATOM     35  C   UNL     1      31.256  -7.231 -24.121  0.00  0.00    -0.101 C 
ATOM     36  H   UNL     1      32.861  -7.960 -23.237  0.00  0.00    -0.080 HD
ENDBRANCH  29  31
ENDBRANCH  28  29
ENDBRANCH   1  28
TORSDOF 5
ENDMDL
MODEL 9
REMARK VINA RESULT:      -9.1      2.791      5.266
REMARK  Name = 448943
REMARK  5 active torsions:
REMARK  status: ('A' for Active; 'I' for Inactive)
REMARK    1  A    between atoms: N_1  and  C_28
REMARK    2  A    between atoms: C_4  and  C_13
REMARK    3  A    between atoms: C_14  and  C_19
REMARK    4  A    between atoms: C_28  and  C_29
REMARK    5  A    between atoms: C_29  and  C_31
REMARK                            x       y       z     vdW  Elec       q    Type
REMARK                         _______ _______ _______ _____ _____    ______ ____
ROOT
ATOM      1  N   UNL     1      35.193 -17.012 -21.900  0.00  0.00    -0.286 N 
ATOM      2  C   UNL     1      34.822 -17.107 -23.215  0.00  0.00    +0.052 C 
ATOM      3  C   UNL     1      34.608 -15.937 -21.302  0.00  0.00    +0.066 C 
ATOM      4  C   UNL     1      33.831 -15.310 -22.249  0.00  0.00    +0.021 C 
ATOM      5  C   UNL     1      33.956 -16.039 -23.464  0.00  0.00    +0.015 C 
ATOM      6  C   UNL     1      35.173 -18.039 -24.198  0.00  0.00    +0.015 C 
ATOM      7  C   UNL     1      33.414 -15.894 -24.757  0.00  0.00    +0.001 C 
ATOM      8  C   UNL     1      34.625 -17.874 -25.472  0.00  0.00    +0.001 C 
ATOM      9  C   UNL     1      33.758 -16.818 -25.750  0.00  0.00    +0.000 C 
ENDROOT
BRANCH   4  13
ATOM     10  O   UNL     1      32.393 -14.620 -19.739  0.00  0.00    -0.270 OA
ATOM     11  O   UNL     1      31.476 -11.101 -22.518  0.00  0.00    -0.270 OA
ATOM     12  N   UNL     1      31.720 -12.692 -20.844  0.00  0.00    -0.248 N 
ATOM     13  C   UNL     1      33.053 -14.135 -22.004  0.00  0.00    +0.059 C 
ATOM     14  C   UNL     1      32.773 -13.106 -22.825  0.00  0.00    +0.059 C 
ATOM     15  C   UNL     1      32.370 -13.883 -20.709  0.00  0.00    +0.252 C 
ATOM     16  C   UNL     1      31.908 -12.155 -22.083  0.00  0.00    +0.252 C 
ATOM     17  H   UNL     1      31.180 -12.273 -20.135  0.00  0.00    +0.158 HD
BRANCH  14  19
ATOM     18  N   UNL     1      33.438 -13.123 -26.365  0.00  0.00    -0.312 N 
ATOM     19  C   UNL     1      33.202 -12.872 -24.169  0.00  0.00    +0.020 C 
ATOM     20  C   UNL     1      34.053 -11.835 -24.650  0.00  0.00    +0.015 C 
ATOM     21  C   UNL     1      32.841 -13.647 -25.249  0.00  0.00    +0.062 C 
ATOM     22  C   UNL     1      34.184 -12.016 -26.029  0.00  0.00    +0.048 C 
ATOM     23  C   UNL     1      34.724 -10.757 -24.041  0.00  0.00    +0.001 C 
ATOM     24  C   UNL     1      34.956 -11.169 -26.831  0.00  0.00    +0.015 C 
ATOM     25  C   UNL     1      35.502  -9.901 -24.831  0.00  0.00    +0.000 C 
ATOM     26  C   UNL     1      35.615 -10.107 -26.205  0.00  0.00    +0.001 C 
ATOM     27  H   UNL     1      33.347 -13.486 -27.276  0.00  0.00    +0.152 HD
ENDBRANCH  14  19
ENDBRANCH   4  13
BRANCH   1  28
ATOM     28  C   UNL     1      36.095 -17.932 -21.215  0.00  0.00    +0.093 C 
BRANCH  28  29
ATOM     29  C   UNL     1      35.712 -19.390 -21.452  0.00  0.00    +0.001 C 
BRANCH  29  31
ATOM     30  N   UNL     1      35.220 -21.314 -19.931  0.00  0.00    +0.387 N 
ATOM     31  C   UNL     1      34.876 -19.934 -20.301  0.00  0.00    -0.057 C 
ATOM     32  C   UNL     1      33.398 -20.047 -20.677  0.00  0.00    -0.023 C 
ATOM     33  C   UNL     1      32.880 -21.262 -19.915  0.00  0.00    -0.025 C 
ATOM     34  C   UNL     1      34.079 -21.791 -19.146  0.00  0.00    -0.077 C 
ATOM     35  C   UNL     1      36.466 -21.417 -19.179  0.00  0.00    -0.101 C 
ATOM     36  H   UNL     1      35.386 -21.880 -20.763  0.00  0.00    -0.080 HD
ENDBRANCH  29  31
ENDBRANCH  28  29
ENDBRANCH   1  28
TORSDOF 5
ENDMDL
