MODEL 1
REMARK VINA RESULT:      -8.7      0.000      0.000
REMARK  Name = 9547958
REMARK  8 active torsions:
REMARK  status: ('A' for Active; 'I' for Inactive)
REMARK    1  A    between atoms: C_3  and  C_7
REMARK    2  A    between atoms: C_4  and  O_19
REMARK    3  A    between atoms: C_6  and  C_16
REMARK    4  A    between atoms: C_12  and  O_13
REMARK    5  A    between atoms: C_16  and  O_17
REMARK    6  A    between atoms: O_19  and  C_20
REMARK    7  A    between atoms: C_20  and  C_22
REMARK    8  A    between atoms: C_22  and  O_23
REMARK                            x       y       z     vdW  Elec       q    Type
REMARK                         _______ _______ _______ _____ _____    ______ ____
ROOT
ATOM      1 BR   UNL     1      35.067 -19.301 -24.363  0.00  0.00    -0.045 Br
ATOM      2  S   UNL     1      34.081 -16.701 -20.933  0.00  0.00    -0.077 S 
ATOM      3  C   UNL     1      34.445 -18.163 -21.751  0.00  0.00    +0.039 A 
ATOM      4  C   UNL     1      34.499 -16.590 -23.465  0.00  0.00    +0.158 A 
ATOM      5  C   UNL     1      34.645 -17.959 -23.100  0.00  0.00    +0.075 A 
ATOM      6  C   UNL     1      34.192 -15.795 -22.383  0.00  0.00    +0.139 A 
ENDROOT
BRANCH   3   7
ATOM      7  C   UNL     1      34.497 -19.379 -20.978  0.00  0.00    +0.007 C 
ATOM      8  C   UNL     1      33.315 -19.990 -20.557  0.00  0.00    +0.004 C 
ATOM      9  C   UNL     1      35.730 -19.946 -20.650  0.00  0.00    +0.004 C 
ATOM     10  C   UNL     1      33.366 -21.166 -19.809  0.00  0.00    +0.037 C 
ATOM     11  C   UNL     1      35.780 -21.121 -19.902  0.00  0.00    +0.037 C 
ATOM     12  C   UNL     1      34.598 -21.732 -19.481  0.00  0.00    +0.134 C 
BRANCH  12  13
ATOM     13  O   UNL     1      34.647 -22.879 -18.751  0.00  0.00    -0.506 OA
ATOM     14  H   UNL     1      35.164 -22.915 -17.970  0.00  0.00    +0.292 HD
ENDBRANCH  12  13
ENDBRANCH   3   7
BRANCH   6  16
ATOM     15  O   UNL     1      33.226 -13.768 -21.546  0.00  0.00    -0.244 OA
ATOM     16  C   UNL     1      33.968 -14.386 -22.331  0.00  0.00    +0.347 C 
BRANCH  16  17
ATOM     17  O   UNL     1      34.681 -13.695 -23.279  0.00  0.00    -0.477 OA
ATOM     18  H   UNL     1      34.950 -14.125 -24.068  0.00  0.00    +0.295 HD
ENDBRANCH  16  17
ENDBRANCH   6  16
BRANCH   4  19
ATOM     19  O   UNL     1      34.636 -16.086 -24.707  0.00  0.00    -0.463 OA
BRANCH  19  20
ATOM     20  C   UNL     1      33.532 -16.231 -25.608  0.00  0.00    +0.314 C 
BRANCH  20  22
ATOM     21  O   UNL     1      33.642 -14.534 -27.344  0.00  0.00    -0.246 OA
ATOM     22  C   UNL     1      33.228 -14.910 -26.257  0.00  0.00    +0.359 C 
BRANCH  22  23
ATOM     23  O   UNL     1      32.412 -14.173 -25.461  0.00  0.00    -0.478 OA
ATOM     24  H   UNL     1      32.534 -13.246 -25.396  0.00  0.00    +0.295 HD
ENDBRANCH  22  23
ENDBRANCH  20  22
ENDBRANCH  19  20
ENDBRANCH   4  19
TORSDOF 8
ENDMDL
MODEL 2
REMARK VINA RESULT:      -8.5      9.072     12.050
REMARK  Name = 9547958
REMARK  8 active torsions:
REMARK  status: ('A' for Active; 'I' for Inactive)
REMARK    1  A    between atoms: C_3  and  C_7
REMARK    2  A    between atoms: C_4  and  O_19
REMARK    3  A    between atoms: C_6  and  C_16
REMARK    4  A    between atoms: C_12  and  O_13
REMARK    5  A    between atoms: C_16  and  O_17
REMARK    6  A    between atoms: O_19  and  C_20
REMARK    7  A    between atoms: C_20  and  C_22
REMARK    8  A    between atoms: C_22  and  O_23
REMARK                            x       y       z     vdW  Elec       q    Type
REMARK                         _______ _______ _______ _____ _____    ______ ____
ROOT
ATOM      1 BR   UNL     1      36.288 -22.410 -16.637  0.00  0.00    -0.045 Br
ATOM      2  S   UNL     1      34.552 -24.392 -13.093  0.00  0.00    -0.077 S 
ATOM      3  C   UNL     1      34.556 -23.579 -14.603  0.00  0.00    +0.039 A 
ATOM      4  C   UNL     1      36.823 -23.750 -14.108  0.00  0.00    +0.158 A 
ATOM      5  C   UNL     1      35.836 -23.295 -15.029  0.00  0.00    +0.075 A 
ATOM      6  C   UNL     1      36.263 -24.365 -13.010  0.00  0.00    +0.139 A 
ENDROOT
BRANCH   3   7
ATOM      7  C   UNL     1      33.286 -23.296 -15.225  0.00  0.00    +0.007 C 
ATOM      8  C   UNL     1      33.177 -23.292 -16.616  0.00  0.00    +0.004 C 
ATOM      9  C   UNL     1      32.166 -23.027 -14.437  0.00  0.00    +0.004 C 
ATOM     10  C   UNL     1      31.949 -23.018 -17.219  0.00  0.00    +0.037 C 
ATOM     11  C   UNL     1      30.939 -22.753 -15.040  0.00  0.00    +0.037 C 
ATOM     12  C   UNL     1      30.830 -22.749 -16.431  0.00  0.00    +0.134 C 
BRANCH  12  13
ATOM     13  O   UNL     1      29.632 -22.480 -17.019  0.00  0.00    -0.506 OA
ATOM     14  H   UNL     1      28.944 -23.114 -16.989  0.00  0.00    +0.292 HD
ENDBRANCH  12  13
ENDBRANCH   3   7
BRANCH   6  16
ATOM     15  O   UNL     1      37.351 -24.360 -10.875  0.00  0.00    -0.244 OA
ATOM     16  C   UNL     1      36.905 -24.949 -11.876  0.00  0.00    +0.347 C 
BRANCH  16  17
ATOM     17  O   UNL     1      37.010 -26.314 -11.965  0.00  0.00    -0.477 OA
ATOM     18  H   UNL     1      36.278 -26.823 -12.258  0.00  0.00    +0.295 HD
ENDBRANCH  16  17
ENDBRANCH   6  16
BRANCH   4  19
ATOM     19  O   UNL     1      38.156 -23.618 -14.252  0.00  0.00    -0.463 OA
BRANCH  19  20
ATOM     20  C   UNL     1      38.832 -24.568 -15.085  0.00  0.00    +0.314 C 
BRANCH  20  22
ATOM     21  O   UNL     1      39.635 -26.196 -13.470  0.00  0.00    -0.246 OA
ATOM     22  C   UNL     1      39.862 -25.309 -14.279  0.00  0.00    +0.359 C 
BRANCH  22  23
ATOM     23  O   UNL     1      41.106 -24.855 -14.577  0.00  0.00    -0.478 OA
ATOM     24  H   UNL     1      41.465 -25.000 -15.431  0.00  0.00    +0.295 HD
ENDBRANCH  22  23
ENDBRANCH  20  22
ENDBRANCH  19  20
ENDBRANCH   4  19
TORSDOF 8
ENDMDL
MODEL 3
REMARK VINA RESULT:      -8.0      2.186      3.347
REMARK  Name = 9547958
REMARK  8 active torsions:
REMARK  status: ('A' for Active; 'I' for Inactive)
REMARK    1  A    between atoms: C_3  and  C_7
REMARK    2  A    between atoms: C_4  and  O_19
REMARK    3  A    between atoms: C_6  and  C_16
REMARK    4  A    between atoms: C_12  and  O_13
REMARK    5  A    between atoms: C_16  and  O_17
REMARK    6  A    between atoms: O_19  and  C_20
REMARK    7  A    between atoms: C_20  and  C_22
REMARK    8  A    between atoms: C_22  and  O_23
REMARK                            x       y       z     vdW  Elec       q    Type
REMARK                         _______ _______ _______ _____ _____    ______ ____
ROOT
ATOM      1 BR   UNL     1      34.493 -15.223 -20.284  0.00  0.00    -0.045 Br
ATOM      2  S   UNL     1      34.336 -17.317 -24.168  0.00  0.00    -0.077 S 
ATOM      3  C   UNL     1      34.597 -17.135 -22.483  0.00  0.00    +0.039 A 
ATOM      4  C   UNL     1      33.912 -15.006 -23.128  0.00  0.00    +0.158 A 
ATOM      5  C   UNL     1      34.333 -15.849 -22.060  0.00  0.00    +0.075 A 
ATOM      6  C   UNL     1      33.870 -15.677 -24.331  0.00  0.00    +0.139 A 
ENDROOT
BRANCH   3   7
ATOM      7  C   UNL     1      35.041 -18.286 -21.736  0.00  0.00    +0.007 C 
ATOM      8  C   UNL     1      34.110 -19.208 -21.257  0.00  0.00    +0.004 C 
ATOM      9  C   UNL     1      36.402 -18.477 -21.491  0.00  0.00    +0.004 C 
ATOM     10  C   UNL     1      34.539 -20.321 -20.534  0.00  0.00    +0.037 C 
ATOM     11  C   UNL     1      36.831 -19.589 -20.768  0.00  0.00    +0.037 C 
ATOM     12  C   UNL     1      35.900 -20.511 -20.289  0.00  0.00    +0.134 C 
BRANCH  12  13
ATOM     13  O   UNL     1      36.318 -21.597 -19.582  0.00  0.00    -0.506 OA
ATOM     14  H   UNL     1      37.229 -21.814 -19.553  0.00  0.00    +0.292 HD
ENDBRANCH  12  13
ENDBRANCH   3   7
BRANCH   6  16
ATOM     15  O   UNL     1      33.209 -15.868 -26.627  0.00  0.00    -0.244 OA
ATOM     16  C   UNL     1      33.502 -15.193 -25.623  0.00  0.00    +0.347 C 
BRANCH  16  17
ATOM     17  O   UNL     1      33.492 -13.822 -25.698  0.00  0.00    -0.477 OA
ATOM     18  H   UNL     1      32.916 -13.390 -26.299  0.00  0.00    +0.295 HD
ENDBRANCH  16  17
ENDBRANCH   6  16
BRANCH   4  19
ATOM     19  O   UNL     1      33.584 -13.705 -23.023  0.00  0.00    -0.463 OA
BRANCH  19  20
ATOM     20  C   UNL     1      32.310 -13.385 -22.450  0.00  0.00    +0.314 C 
BRANCH  20  22
ATOM     21  O   UNL     1      32.789 -11.097 -23.114  0.00  0.00    -0.246 OA
ATOM     22  C   UNL     1      32.050 -11.909 -22.577  0.00  0.00    +0.359 C 
BRANCH  22  23
ATOM     23  O   UNL     1      30.860 -11.592 -22.007  0.00  0.00    -0.478 OA
ATOM     24  H   UNL     1      30.172 -11.229 -22.530  0.00  0.00    +0.295 HD
ENDBRANCH  22  23
ENDBRANCH  20  22
ENDBRANCH  19  20
ENDBRANCH   4  19
TORSDOF 8
ENDMDL
MODEL 4
REMARK VINA RESULT:      -7.9     10.373     11.884
REMARK  Name = 9547958
REMARK  8 active torsions:
REMARK  status: ('A' for Active; 'I' for Inactive)
REMARK    1  A    between atoms: C_3  and  C_7
REMARK    2  A    between atoms: C_4  and  O_19
REMARK    3  A    between atoms: C_6  and  C_16
REMARK    4  A    between atoms: C_12  and  O_13
REMARK    5  A    between atoms: C_16  and  O_17
REMARK    6  A    between atoms: O_19  and  C_20
REMARK    7  A    between atoms: C_20  and  C_22
REMARK    8  A    between atoms: C_22  and  O_23
REMARK                            x       y       z     vdW  Elec       q    Type
REMARK                         _______ _______ _______ _____ _____    ______ ____
ROOT
ATOM      1 BR   UNL     1      35.081 -22.929 -16.653  0.00  0.00    -0.045 Br
ATOM      2  S   UNL     1      34.561 -23.987 -12.397  0.00  0.00    -0.077 S 
ATOM      3  C   UNL     1      34.092 -23.716 -14.024  0.00  0.00    +0.039 A 
ATOM      4  C   UNL     1      36.373 -23.250 -14.063  0.00  0.00    +0.158 A 
ATOM      5  C   UNL     1      35.159 -23.326 -14.807  0.00  0.00    +0.075 A 
ATOM      6  C   UNL     1      36.190 -23.583 -12.739  0.00  0.00    +0.139 A 
ENDROOT
BRANCH   3   7
ATOM      7  C   UNL     1      32.708 -23.915 -14.375  0.00  0.00    +0.007 C 
ATOM      8  C   UNL     1      32.051 -22.983 -15.179  0.00  0.00    +0.004 C 
ATOM      9  C   UNL     1      32.024 -25.039 -13.911  0.00  0.00    +0.004 C 
ATOM     10  C   UNL     1      30.712 -23.174 -15.518  0.00  0.00    +0.037 C 
ATOM     11  C   UNL     1      30.685 -25.231 -14.249  0.00  0.00    +0.037 C 
ATOM     12  C   UNL     1      30.029 -24.298 -15.053  0.00  0.00    +0.134 C 
BRANCH  12  13
ATOM     13  O   UNL     1      28.722 -24.484 -15.383  0.00  0.00    -0.506 OA
ATOM     14  H   UNL     1      28.493 -24.780 -16.242  0.00  0.00    +0.292 HD
ENDBRANCH  12  13
ENDBRANCH   3   7
BRANCH   6  16
ATOM     15  O   UNL     1      37.084 -24.306 -10.637  0.00  0.00    -0.244 OA
ATOM     16  C   UNL     1      37.146 -23.629 -11.679  0.00  0.00    +0.347 C 
BRANCH  16  17
ATOM     17  O   UNL     1      38.227 -22.813 -11.897  0.00  0.00    -0.477 OA
ATOM     18  H   UNL     1      38.955 -22.832 -11.307  0.00  0.00    +0.295 HD
ENDBRANCH  16  17
ENDBRANCH   6  16
BRANCH   4  19
ATOM     19  O   UNL     1      37.577 -22.900 -14.554  0.00  0.00    -0.463 OA
BRANCH  19  20
ATOM     20  C   UNL     1      38.202 -23.794 -15.483  0.00  0.00    +0.314 C 
BRANCH  20  22
ATOM     21  O   UNL     1      39.618 -24.760 -13.761  0.00  0.00    -0.246 OA
ATOM     22  C   UNL     1      38.897 -24.899 -14.738  0.00  0.00    +0.359 C 
BRANCH  22  23
ATOM     23  O   UNL     1      38.610 -26.099 -15.304  0.00  0.00    -0.478 OA
ATOM     24  H   UNL     1      38.791 -26.891 -14.838  0.00  0.00    +0.295 HD
ENDBRANCH  22  23
ENDBRANCH  20  22
ENDBRANCH  19  20
ENDBRANCH   4  19
TORSDOF 8
ENDMDL
MODEL 5
REMARK VINA RESULT:      -7.8      1.798      2.741
REMARK  Name = 9547958
REMARK  8 active torsions:
REMARK  status: ('A' for Active; 'I' for Inactive)
REMARK    1  A    between atoms: C_3  and  C_7
REMARK    2  A    between atoms: C_4  and  O_19
REMARK    3  A    between atoms: C_6  and  C_16
REMARK    4  A    between atoms: C_12  and  O_13
REMARK    5  A    between atoms: C_16  and  O_17
REMARK    6  A    between atoms: O_19  and  C_20
REMARK    7  A    between atoms: C_20  and  C_22
REMARK    8  A    between atoms: C_22  and  O_23
REMARK                            x       y       z     vdW  Elec       q    Type
REMARK                         _______ _______ _______ _____ _____    ______ ____
ROOT
ATOM      1 BR   UNL     1      34.568 -16.039 -20.168  0.00  0.00    -0.045 Br
ATOM      2  S   UNL     1      34.506 -18.551 -23.799  0.00  0.00    -0.077 S 
ATOM      3  C   UNL     1      34.541 -18.205 -22.120  0.00  0.00    +0.039 A 
ATOM      4  C   UNL     1      34.503 -16.085 -23.078  0.00  0.00    +0.158 A 
ATOM      5  C   UNL     1      34.537 -16.848 -21.875  0.00  0.00    +0.075 A 
ATOM      6  C   UNL     1      34.484 -16.885 -24.199  0.00  0.00    +0.139 A 
ENDROOT
BRANCH   3   7
ATOM      7  C   UNL     1      34.571 -19.314 -21.198  0.00  0.00    +0.007 C 
ATOM      8  C   UNL     1      33.377 -19.855 -20.719  0.00  0.00    +0.004 C 
ATOM      9  C   UNL     1      35.793 -19.846 -20.786  0.00  0.00    +0.004 C 
ATOM     10  C   UNL     1      33.406 -20.927 -19.827  0.00  0.00    +0.037 C 
ATOM     11  C   UNL     1      35.821 -20.918 -19.894  0.00  0.00    +0.037 C 
ATOM     12  C   UNL     1      34.628 -21.459 -19.415  0.00  0.00    +0.134 C 
BRANCH  12  13
ATOM     13  O   UNL     1      34.655 -22.504 -18.544  0.00  0.00    -0.506 OA
ATOM     14  H   UNL     1      34.840 -23.368 -18.855  0.00  0.00    +0.292 HD
ENDBRANCH  12  13
ENDBRANCH   3   7
BRANCH   6  16
ATOM     15  O   UNL     1      33.515 -15.958 -26.185  0.00  0.00    -0.244 OA
ATOM     16  C   UNL     1      34.450 -16.510 -25.576  0.00  0.00    +0.347 C 
BRANCH  16  17
ATOM     17  O   UNL     1      35.606 -16.823 -26.246  0.00  0.00    -0.477 OA
ATOM     18  H   UNL     1      36.428 -16.488 -25.944  0.00  0.00    +0.295 HD
ENDBRANCH  16  17
ENDBRANCH   6  16
BRANCH   4  19
ATOM     19  O   UNL     1      34.490 -14.741 -23.158  0.00  0.00    -0.463 OA
BRANCH  19  20
ATOM     20  C   UNL     1      33.214 -14.091 -23.221  0.00  0.00    +0.314 C 
BRANCH  20  22
ATOM     21  O   UNL     1      33.346 -11.695 -23.604  0.00  0.00    -0.246 OA
ATOM     22  C   UNL     1      33.321 -12.836 -24.041  0.00  0.00    +0.359 C 
BRANCH  22  23
ATOM     23  O   UNL     1      33.389 -13.144 -25.362  0.00  0.00    -0.478 OA
ATOM     24  H   UNL     1      34.090 -13.676 -25.683  0.00  0.00    +0.295 HD
ENDBRANCH  22  23
ENDBRANCH  20  22
ENDBRANCH  19  20
ENDBRANCH   4  19
TORSDOF 8
ENDMDL
MODEL 6
REMARK VINA RESULT:      -7.8      1.476      2.197
REMARK  Name = 9547958
REMARK  8 active torsions:
REMARK  status: ('A' for Active; 'I' for Inactive)
REMARK    1  A    between atoms: C_3  and  C_7
REMARK    2  A    between atoms: C_4  and  O_19
REMARK    3  A    between atoms: C_6  and  C_16
REMARK    4  A    between atoms: C_12  and  O_13
REMARK    5  A    between atoms: C_16  and  O_17
REMARK    6  A    between atoms: O_19  and  C_20
REMARK    7  A    between atoms: C_20  and  C_22
REMARK    8  A    between atoms: C_22  and  O_23
REMARK                            x       y       z     vdW  Elec       q    Type
REMARK                         _______ _______ _______ _____ _____    ______ ____
ROOT
ATOM      1 BR   UNL     1      35.053 -16.857 -24.486  0.00  0.00    -0.045 Br
ATOM      2  S   UNL     1      33.114 -15.713 -20.687  0.00  0.00    -0.077 S 
ATOM      3  C   UNL     1      33.985 -16.711 -21.776  0.00  0.00    +0.039 A 
ATOM      4  C   UNL     1      33.562 -14.810 -23.050  0.00  0.00    +0.158 A 
ATOM      5  C   UNL     1      34.153 -16.105 -23.004  0.00  0.00    +0.075 A 
ATOM      6  C   UNL     1      32.962 -14.471 -21.857  0.00  0.00    +0.139 A 
ENDROOT
BRANCH   3   7
ATOM      7  C   UNL     1      34.421 -18.005 -21.312  0.00  0.00    +0.007 C 
ATOM      8  C   UNL     1      35.784 -18.276 -21.182  0.00  0.00    +0.004 C 
ATOM      9  C   UNL     1      33.481 -18.985 -20.993  0.00  0.00    +0.004 C 
ATOM     10  C   UNL     1      36.206 -19.527 -20.734  0.00  0.00    +0.037 C 
ATOM     11  C   UNL     1      33.903 -20.236 -20.544  0.00  0.00    +0.037 C 
ATOM     12  C   UNL     1      35.266 -20.508 -20.415  0.00  0.00    +0.134 C 
BRANCH  12  13
ATOM     13  O   UNL     1      35.678 -21.729 -19.978  0.00  0.00    -0.506 OA
ATOM     14  H   UNL     1      35.574 -21.964 -19.078  0.00  0.00    +0.292 HD
ENDBRANCH  12  13
ENDBRANCH   3   7
BRANCH   6  16
ATOM     15  O   UNL     1      32.211 -12.741 -20.379  0.00  0.00    -0.244 OA
ATOM     16  C   UNL     1      32.270 -13.274 -21.502  0.00  0.00    +0.347 C 
BRANCH  16  17
ATOM     17  O   UNL     1      31.617 -12.698 -22.563  0.00  0.00    -0.477 OA
ATOM     18  H   UNL     1      30.801 -13.051 -22.859  0.00  0.00    +0.295 HD
ENDBRANCH  16  17
ENDBRANCH   6  16
BRANCH   4  19
ATOM     19  O   UNL     1      33.565 -13.980 -24.111  0.00  0.00    -0.463 OA
BRANCH  19  20
ATOM     20  C   UNL     1      32.600 -14.218 -25.143  0.00  0.00    +0.314 C 
BRANCH  20  22
ATOM     21  O   UNL     1      33.391 -12.840 -26.982  0.00  0.00    -0.246 OA
ATOM     22  C   UNL     1      33.214 -13.944 -26.488  0.00  0.00    +0.359 C 
BRANCH  22  23
ATOM     23  O   UNL     1      33.555 -15.110 -27.094  0.00  0.00    -0.478 OA
ATOM     24  H   UNL     1      32.891 -15.655 -27.468  0.00  0.00    +0.295 HD
ENDBRANCH  22  23
ENDBRANCH  20  22
ENDBRANCH  19  20
ENDBRANCH   4  19
TORSDOF 8
ENDMDL
MODEL 7
REMARK VINA RESULT:      -7.6      4.726      6.969
REMARK  Name = 9547958
REMARK  8 active torsions:
REMARK  status: ('A' for Active; 'I' for Inactive)
REMARK    1  A    between atoms: C_3  and  C_7
REMARK    2  A    between atoms: C_4  and  O_19
REMARK    3  A    between atoms: C_6  and  C_16
REMARK    4  A    between atoms: C_12  and  O_13
REMARK    5  A    between atoms: C_16  and  O_17
REMARK    6  A    between atoms: O_19  and  C_20
REMARK    7  A    between atoms: C_20  and  C_22
REMARK    8  A    between atoms: C_22  and  O_23
REMARK                            x       y       z     vdW  Elec       q    Type
REMARK                         _______ _______ _______ _____ _____    ______ ____
ROOT
ATOM      1 BR   UNL     1      34.402 -11.011 -25.279  0.00  0.00    -0.045 Br
ATOM      2  S   UNL     1      32.150 -12.905 -21.987  0.00  0.00    -0.077 S 
ATOM      3  C   UNL     1      33.117 -12.834 -23.400  0.00  0.00    +0.039 A 
ATOM      4  C   UNL     1      32.774 -10.587 -22.902  0.00  0.00    +0.158 A 
ATOM      5  C   UNL     1      33.376 -11.534 -23.780  0.00  0.00    +0.075 A 
ATOM      6  C   UNL     1      32.076 -11.197 -21.883  0.00  0.00    +0.139 A 
ENDROOT
BRANCH   3   7
ATOM      7  C   UNL     1      33.531 -14.077 -24.003  0.00  0.00    +0.007 C 
ATOM      8  C   UNL     1      33.047 -14.437 -25.261  0.00  0.00    +0.004 C 
ATOM      9  C   UNL     1      34.416 -14.920 -23.329  0.00  0.00    +0.004 C 
ATOM     10  C   UNL     1      33.446 -15.639 -25.844  0.00  0.00    +0.037 C 
ATOM     11  C   UNL     1      34.815 -16.122 -23.913  0.00  0.00    +0.037 C 
ATOM     12  C   UNL     1      34.330 -16.482 -25.170  0.00  0.00    +0.134 C 
BRANCH  12  13
ATOM     13  O   UNL     1      34.719 -17.656 -25.739  0.00  0.00    -0.506 OA
ATOM     14  H   UNL     1      35.585 -17.983 -25.594  0.00  0.00    +0.292 HD
ENDBRANCH  12  13
ENDBRANCH   3   7
BRANCH   6  16
ATOM     15  O   UNL     1      30.266 -10.999 -20.325  0.00  0.00    -0.244 OA
ATOM     16  C   UNL     1      31.342 -10.605 -20.810  0.00  0.00    +0.347 C 
BRANCH  16  17
ATOM     17  O   UNL     1      31.945  -9.481 -20.305  0.00  0.00    -0.477 OA
ATOM     18  H   UNL     1      31.721  -9.174 -19.447  0.00  0.00    +0.295 HD
ENDBRANCH  16  17
ENDBRANCH   6  16
BRANCH   4  19
ATOM     19  O   UNL     1      32.851  -9.247 -23.015  0.00  0.00    -0.463 OA
BRANCH  19  20
ATOM     20  C   UNL     1      31.826  -8.584 -23.765  0.00  0.00    +0.314 C 
BRANCH  20  22
ATOM     21  O   UNL     1      31.500  -7.096 -21.871  0.00  0.00    -0.246 OA
ATOM     22  C   UNL     1      31.435  -7.307 -23.073  0.00  0.00    +0.359 C 
BRANCH  22  23
ATOM     23  O   UNL     1      30.992  -6.400 -23.980  0.00  0.00    -0.478 OA
ATOM     24  H   UNL     1      30.480  -6.681 -24.713  0.00  0.00    +0.295 HD
ENDBRANCH  22  23
ENDBRANCH  20  22
ENDBRANCH  19  20
ENDBRANCH   4  19
TORSDOF 8
ENDMDL
MODEL 8
REMARK VINA RESULT:      -7.5      5.520      9.681
REMARK  Name = 9547958
REMARK  8 active torsions:
REMARK  status: ('A' for Active; 'I' for Inactive)
REMARK    1  A    between atoms: C_3  and  C_7
REMARK    2  A    between atoms: C_4  and  O_19
REMARK    3  A    between atoms: C_6  and  C_16
REMARK    4  A    between atoms: C_12  and  O_13
REMARK    5  A    between atoms: C_16  and  O_17
REMARK    6  A    between atoms: O_19  and  C_20
REMARK    7  A    between atoms: C_20  and  C_22
REMARK    8  A    between atoms: C_22  and  O_23
REMARK                            x       y       z     vdW  Elec       q    Type
REMARK                         _______ _______ _______ _____ _____    ______ ____
ROOT
ATOM      1 BR   UNL     1      30.719 -11.075 -20.247  0.00  0.00    -0.045 Br
ATOM      2  S   UNL     1      33.242 -10.756 -23.856  0.00  0.00    -0.077 S 
ATOM      3  C   UNL     1      32.266 -10.203 -22.559  0.00  0.00    +0.039 A 
ATOM      4  C   UNL     1      32.283 -12.508 -22.241  0.00  0.00    +0.158 A 
ATOM      5  C   UNL     1      31.818 -11.245 -21.774  0.00  0.00    +0.075 A 
ATOM      6  C   UNL     1      33.068 -12.388 -23.367  0.00  0.00    +0.139 A 
ENDROOT
BRANCH   3   7
ATOM      7  C   UNL     1      32.032  -8.785 -22.441  0.00  0.00    +0.007 C 
ATOM      8  C   UNL     1      31.252  -8.124 -23.391  0.00  0.00    +0.004 C 
ATOM      9  C   UNL     1      32.587  -8.072 -21.377  0.00  0.00    +0.004 C 
ATOM     10  C   UNL     1      31.027  -6.753 -23.277  0.00  0.00    +0.037 C 
ATOM     11  C   UNL     1      32.361  -6.701 -21.263  0.00  0.00    +0.037 C 
ATOM     12  C   UNL     1      31.581  -6.041 -22.213  0.00  0.00    +0.134 C 
BRANCH  12  13
ATOM     13  O   UNL     1      31.362  -4.702 -22.103  0.00  0.00    -0.506 OA
ATOM     14  H   UNL     1      31.636  -4.125 -22.787  0.00  0.00    +0.292 HD
ENDBRANCH  12  13
ENDBRANCH   3   7
BRANCH   6  16
ATOM     15  O   UNL     1      33.493 -13.720 -25.313  0.00  0.00    -0.244 OA
ATOM     16  C   UNL     1      33.716 -13.406 -24.129  0.00  0.00    +0.347 C 
BRANCH  16  17
ATOM     17  O   UNL     1      34.680 -14.075 -23.419  0.00  0.00    -0.477 OA
ATOM     18  H   UNL     1      34.444 -14.807 -22.882  0.00  0.00    +0.295 HD
ENDBRANCH  16  17
ENDBRANCH   6  16
BRANCH   4  19
ATOM     19  O   UNL     1      32.013 -13.703 -21.681  0.00  0.00    -0.463 OA
BRANCH  19  20
ATOM     20  C   UNL     1      32.743 -14.065 -20.502  0.00  0.00    +0.314 C 
BRANCH  20  22
ATOM     21  O   UNL     1      33.437 -16.213 -21.400  0.00  0.00    -0.246 OA
ATOM     22  C   UNL     1      33.709 -15.172 -20.821  0.00  0.00    +0.359 C 
BRANCH  22  23
ATOM     23  O   UNL     1      34.950 -14.855 -20.372  0.00  0.00    -0.478 OA
ATOM     24  H   UNL     1      35.056 -14.198 -19.713  0.00  0.00    +0.295 HD
ENDBRANCH  22  23
ENDBRANCH  20  22
ENDBRANCH  19  20
ENDBRANCH   4  19
TORSDOF 8
ENDMDL
MODEL 9
REMARK VINA RESULT:      -7.5      9.999     11.859
REMARK  Name = 9547958
REMARK  8 active torsions:
REMARK  status: ('A' for Active; 'I' for Inactive)
REMARK    1  A    between atoms: C_3  and  C_7
REMARK    2  A    between atoms: C_4  and  O_19
REMARK    3  A    between atoms: C_6  and  C_16
REMARK    4  A    between atoms: C_12  and  O_13
REMARK    5  A    between atoms: C_16  and  O_17
REMARK    6  A    between atoms: O_19  and  C_20
REMARK    7  A    between atoms: C_20  and  C_22
REMARK    8  A    between atoms: C_22  and  O_23
REMARK                            x       y       z     vdW  Elec       q    Type
REMARK                         _______ _______ _______ _____ _____    ______ ____
ROOT
ATOM      1 BR   UNL     1      34.122 -23.161 -17.140  0.00  0.00    -0.045 Br
ATOM      2  S   UNL     1      32.837 -24.414 -13.105  0.00  0.00    -0.077 S 
ATOM      3  C   UNL     1      32.655 -23.946 -14.745  0.00  0.00    +0.039 A 
ATOM      4  C   UNL     1      34.963 -23.896 -14.451  0.00  0.00    +0.158 A 
ATOM      5  C   UNL     1      33.872 -23.698 -15.345  0.00  0.00    +0.075 A 
ATOM      6  C   UNL     1      34.543 -24.285 -13.198  0.00  0.00    +0.139 A 
ENDROOT
BRANCH   3   7
ATOM      7  C   UNL     1      31.320 -23.867 -15.285  0.00  0.00    +0.007 C 
ATOM      8  C   UNL     1      30.394 -24.873 -15.006  0.00  0.00    +0.004 C 
ATOM      9  C   UNL     1      30.954 -22.785 -16.086  0.00  0.00    +0.004 C 
ATOM     10  C   UNL     1      29.104 -24.798 -15.529  0.00  0.00    +0.037 C 
ATOM     11  C   UNL     1      29.663 -22.710 -16.609  0.00  0.00    +0.037 C 
ATOM     12  C   UNL     1      28.738 -23.716 -16.330  0.00  0.00    +0.134 C 
BRANCH  12  13
ATOM     13  O   UNL     1      27.478 -23.642 -16.841  0.00  0.00    -0.506 OA
ATOM     14  H   UNL     1      26.936 -24.406 -16.862  0.00  0.00    +0.292 HD
ENDBRANCH  12  13
ENDBRANCH   3   7
BRANCH   6  16
ATOM     15  O   UNL     1      35.320 -23.963 -10.955  0.00  0.00    -0.244 OA
ATOM     16  C   UNL     1      35.318 -24.579 -12.036  0.00  0.00    +0.347 C 
BRANCH  16  17
ATOM     17  O   UNL     1      36.130 -25.674 -12.196  0.00  0.00    -0.477 OA
ATOM     18  H   UNL     1      36.374 -25.955 -13.057  0.00  0.00    +0.295 HD
ENDBRANCH  16  17
ENDBRANCH   6  16
BRANCH   4  19
ATOM     19  O   UNL     1      36.266 -23.732 -14.750  0.00  0.00    -0.463 OA
BRANCH  19  20
ATOM     20  C   UNL     1      36.972 -24.859 -15.284  0.00  0.00    +0.314 C 
BRANCH  20  22
ATOM     21  O   UNL     1      38.650 -24.450 -13.575  0.00  0.00    -0.246 OA
ATOM     22  C   UNL     1      38.319 -24.974 -14.628  0.00  0.00    +0.359 C 
BRANCH  22  23
ATOM     23  O   UNL     1      39.139 -25.757 -15.375  0.00  0.00    -0.478 OA
ATOM     24  H   UNL     1      39.903 -25.389 -15.773  0.00  0.00    +0.295 HD
ENDBRANCH  22  23
ENDBRANCH  20  22
ENDBRANCH  19  20
ENDBRANCH   4  19
TORSDOF 8
ENDMDL
