MODEL 1
REMARK VINA RESULT:      -9.2      0.000      0.000
REMARK  Name = 46836227
REMARK  13 active torsions:
REMARK  status: ('A' for Active; 'I' for Inactive)
REMARK    1  A    between atoms: C_3  and  C_18
REMARK    2  A    between atoms: C_6  and  N_11
REMARK    3  A    between atoms: N_11  and  C_12
REMARK    4  A    between atoms: N_11  and  C_15
REMARK    5  A    between atoms: C_12  and  C_14
REMARK    6  A    between atoms: C_15  and  C_17
REMARK    7  A    between atoms: C_18  and  C_19
REMARK    8  A    between atoms: C_19  and  C_20
REMARK    9  A    between atoms: C_20  and  C_21
REMARK   10  A    between atoms: C_21  and  C_22
REMARK   11  A    between atoms: C_22  and  C_23
REMARK   12  A    between atoms: C_23  and  C_26
REMARK   13  A    between atoms: N_25  and  O_28
REMARK                            x       y       z     vdW  Elec       q    Type
REMARK                         _______ _______ _______ _____ _____    ______ ____
ROOT
ATOM      1  N   UNL     1      35.334 -21.517 -19.002  0.00  0.00    -0.262 N 
ATOM      2  N   UNL     1      33.320 -21.297 -19.915  0.00  0.00    -0.394 NA
ATOM      3  C   UNL     1      34.036 -21.944 -19.023  0.00  0.00    +0.163 C 
ATOM      4  C   UNL     1      35.465 -20.528 -19.943  0.00  0.00    +0.079 C 
ATOM      5  C   UNL     1      34.195 -20.410 -20.499  0.00  0.00    +0.129 C 
ATOM      6  C   UNL     1      35.055 -18.674 -21.934  0.00  0.00    +0.032 C 
ATOM      7  C   UNL     1      33.978 -19.465 -21.517  0.00  0.00    +0.101 C 
ATOM      8  C   UNL     1      36.553 -19.752 -20.344  0.00  0.00    +0.018 C 
ATOM      9  C   UNL     1      36.319 -18.817 -21.357  0.00  0.00    +0.012 C 
ATOM     10  C   UNL     1      36.385 -22.016 -18.142  0.00  0.00    +0.119 C 
ENDROOT
BRANCH   6  11
ATOM     11  N   UNL     1      34.859 -17.718 -22.956  0.00  0.00    -0.308 N 
BRANCH  11  12
ATOM     12  C   UNL     1      34.395 -18.130 -24.263  0.00  0.00    +0.108 C 
BRANCH  12  14
ATOM     13 CL   UNL     1      33.462 -16.006 -25.707  0.00  0.00    -0.112 Cl
ATOM     14  C   UNL     1      34.797 -17.122 -25.328  0.00  0.00    +0.116 C 
ENDBRANCH  12  14
ENDBRANCH  11  12
BRANCH  11  15
ATOM     15  C   UNL     1      35.113 -16.314 -22.703  0.00  0.00    +0.108 C 
BRANCH  15  17
ATOM     16 CL   UNL     1      34.320 -15.290 -20.297  0.00  0.00    -0.112 Cl
ATOM     17  C   UNL     1      33.934 -15.666 -21.995  0.00  0.00    +0.116 C 
ENDBRANCH  15  17
ENDBRANCH  11  15
ENDBRANCH   6  11
BRANCH   3  18
ATOM     18  C   UNL     1      33.533 -23.034 -18.109  0.00  0.00    +0.075 C 
BRANCH  18  19
ATOM     19  C   UNL     1      32.232 -22.678 -17.380  0.00  0.00    +0.009 C 
BRANCH  19  20
ATOM     20  C   UNL     1      32.004 -23.515 -16.117  0.00  0.00    +0.000 C 
BRANCH  20  21
ATOM     21  C   UNL     1      31.186 -22.743 -15.080  0.00  0.00    +0.001 C 
BRANCH  21  22
ATOM     22  C   UNL     1      29.859 -23.445 -14.785  0.00  0.00    +0.010 C 
BRANCH  22  23
ATOM     23  C   UNL     1      29.386 -24.313 -15.951  0.00  0.00    +0.087 C 
BRANCH  23  26
ATOM     24  O   UNL     1      27.668 -24.251 -17.625  0.00  0.00    -0.273 OA
ATOM     25  N   UNL     1      28.185 -22.299 -16.500  0.00  0.00    -0.197 N 
ATOM     26  C   UNL     1      28.320 -23.634 -16.786  0.00  0.00    +0.244 C 
ATOM     27  H   UNL     1      28.736 -21.853 -15.816  0.00  0.00    +0.182 HD
BRANCH  25  28
ATOM     28  O   UNL     1      27.216 -21.610 -17.240  0.00  0.00    -0.295 OA
ATOM     29  H   UNL     1      27.329 -21.808 -18.183  0.00  0.00    +0.241 HD
ENDBRANCH  25  28
ENDBRANCH  23  26
ENDBRANCH  22  23
ENDBRANCH  21  22
ENDBRANCH  20  21
ENDBRANCH  19  20
ENDBRANCH  18  19
ENDBRANCH   3  18
TORSDOF 13
ENDMDL
MODEL 2
REMARK VINA RESULT:      -9.1      0.550      2.014
REMARK  Name = 46836227
REMARK  13 active torsions:
REMARK  status: ('A' for Active; 'I' for Inactive)
REMARK    1  A    between atoms: C_3  and  C_18
REMARK    2  A    between atoms: C_6  and  N_11
REMARK    3  A    between atoms: N_11  and  C_12
REMARK    4  A    between atoms: N_11  and  C_15
REMARK    5  A    between atoms: C_12  and  C_14
REMARK    6  A    between atoms: C_15  and  C_17
REMARK    7  A    between atoms: C_18  and  C_19
REMARK    8  A    between atoms: C_19  and  C_20
REMARK    9  A    between atoms: C_20  and  C_21
REMARK   10  A    between atoms: C_21  and  C_22
REMARK   11  A    between atoms: C_22  and  C_23
REMARK   12  A    between atoms: C_23  and  C_26
REMARK   13  A    between atoms: N_25  and  O_28
REMARK                            x       y       z     vdW  Elec       q    Type
REMARK                         _______ _______ _______ _____ _____    ______ ____
ROOT
ATOM      1  N   UNL     1      35.296 -21.505 -19.102  0.00  0.00    -0.262 N 
ATOM      2  N   UNL     1      33.298 -21.314 -20.056  0.00  0.00    -0.394 NA
ATOM      3  C   UNL     1      34.010 -21.964 -19.163  0.00  0.00    +0.163 C 
ATOM      4  C   UNL     1      35.422 -20.490 -20.015  0.00  0.00    +0.079 C 
ATOM      5  C   UNL     1      34.162 -20.391 -20.597  0.00  0.00    +0.129 C 
ATOM      6  C   UNL     1      35.009 -18.598 -21.970  0.00  0.00    +0.032 C 
ATOM      7  C   UNL     1      33.943 -19.426 -21.597  0.00  0.00    +0.101 C 
ATOM      8  C   UNL     1      36.498 -19.677 -20.372  0.00  0.00    +0.018 C 
ATOM      9  C   UNL     1      36.263 -18.722 -21.367  0.00  0.00    +0.012 C 
ATOM     10  C   UNL     1      36.340 -21.998 -18.230  0.00  0.00    +0.119 C 
ENDROOT
BRANCH   6  11
ATOM     11  N   UNL     1      34.811 -17.621 -22.972  0.00  0.00    -0.308 N 
BRANCH  11  12
ATOM     12  C   UNL     1      34.988 -16.217 -22.670  0.00  0.00    +0.108 C 
BRANCH  12  14
ATOM     13 CL   UNL     1      33.974 -15.242 -20.327  0.00  0.00    -0.112 Cl
ATOM     14  C   UNL     1      33.731 -15.630 -22.049  0.00  0.00    +0.116 C 
ENDBRANCH  12  14
ENDBRANCH  11  12
BRANCH  11  15
ATOM     15  C   UNL     1      34.436 -18.017 -24.314  0.00  0.00    +0.108 C 
BRANCH  15  17
ATOM     16 CL   UNL     1      33.444 -15.955 -25.807  0.00  0.00    -0.112 Cl
ATOM     17  C   UNL     1      34.836 -16.956 -25.327  0.00  0.00    +0.116 C 
ENDBRANCH  15  17
ENDBRANCH  11  15
ENDBRANCH   6  11
BRANCH   3  18
ATOM     18  C   UNL     1      33.516 -23.089 -18.288  0.00  0.00    +0.075 C 
BRANCH  18  19
ATOM     19  C   UNL     1      32.435 -22.664 -17.286  0.00  0.00    +0.009 C 
BRANCH  19  20
ATOM     20  C   UNL     1      32.714 -23.149 -15.861  0.00  0.00    +0.000 C 
BRANCH  20  21
ATOM     21  C   UNL     1      31.416 -23.488 -15.126  0.00  0.00    +0.001 C 
BRANCH  21  22
ATOM     22  C   UNL     1      30.211 -22.816 -15.789  0.00  0.00    +0.010 C 
BRANCH  22  23
ATOM     23  C   UNL     1      29.102 -23.810 -16.129  0.00  0.00    +0.087 C 
BRANCH  23  26
ATOM     24  O   UNL     1      27.692 -23.328 -18.010  0.00  0.00    -0.273 OA
ATOM     25  N   UNL     1      27.179 -22.368 -15.970  0.00  0.00    -0.197 N 
ATOM     26  C   UNL     1      27.922 -23.153 -16.816  0.00  0.00    +0.244 C 
ATOM     27  H   UNL     1      27.410 -22.262 -15.018  0.00  0.00    +0.182 HD
BRANCH  25  28
ATOM     28  O   UNL     1      26.074 -21.729 -16.544  0.00  0.00    -0.295 OA
ATOM     29  H   UNL     1      25.300 -22.310 -16.489  0.00  0.00    +0.241 HD
ENDBRANCH  25  28
ENDBRANCH  23  26
ENDBRANCH  22  23
ENDBRANCH  21  22
ENDBRANCH  20  21
ENDBRANCH  19  20
ENDBRANCH  18  19
ENDBRANCH   3  18
TORSDOF 13
ENDMDL
MODEL 3
REMARK VINA RESULT:      -9.0      3.332      4.529
REMARK  Name = 46836227
REMARK  13 active torsions:
REMARK  status: ('A' for Active; 'I' for Inactive)
REMARK    1  A    between atoms: C_3  and  C_18
REMARK    2  A    between atoms: C_6  and  N_11
REMARK    3  A    between atoms: N_11  and  C_12
REMARK    4  A    between atoms: N_11  and  C_15
REMARK    5  A    between atoms: C_12  and  C_14
REMARK    6  A    between atoms: C_15  and  C_17
REMARK    7  A    between atoms: C_18  and  C_19
REMARK    8  A    between atoms: C_19  and  C_20
REMARK    9  A    between atoms: C_20  and  C_21
REMARK   10  A    between atoms: C_21  and  C_22
REMARK   11  A    between atoms: C_22  and  C_23
REMARK   12  A    between atoms: C_23  and  C_26
REMARK   13  A    between atoms: N_25  and  O_28
REMARK                            x       y       z     vdW  Elec       q    Type
REMARK                         _______ _______ _______ _____ _____    ______ ____
ROOT
ATOM      1  N   UNL     1      35.381 -21.442 -19.153  0.00  0.00    -0.262 N 
ATOM      2  N   UNL     1      33.350 -21.227 -20.029  0.00  0.00    -0.394 NA
ATOM      3  C   UNL     1      34.090 -21.892 -19.172  0.00  0.00    +0.163 C 
ATOM      4  C   UNL     1      35.480 -20.417 -20.058  0.00  0.00    +0.079 C 
ATOM      5  C   UNL     1      34.200 -20.303 -20.592  0.00  0.00    +0.129 C 
ATOM      6  C   UNL     1      35.008 -18.499 -21.974  0.00  0.00    +0.032 C 
ATOM      7  C   UNL     1      33.951 -19.325 -21.571  0.00  0.00    +0.101 C 
ATOM      8  C   UNL     1      36.547 -19.607 -20.445  0.00  0.00    +0.018 C 
ATOM      9  C   UNL     1      36.282 -18.639 -21.419  0.00  0.00    +0.012 C 
ATOM     10  C   UNL     1      36.452 -21.952 -18.326  0.00  0.00    +0.119 C 
ENDROOT
BRANCH   6  11
ATOM     11  N   UNL     1      34.779 -17.510 -22.957  0.00  0.00    -0.308 N 
BRANCH  11  12
ATOM     12  C   UNL     1      34.905 -16.107 -22.624  0.00  0.00    +0.108 C 
BRANCH  12  14
ATOM     13 CL   UNL     1      33.586 -15.305 -20.369  0.00  0.00    -0.112 Cl
ATOM     14  C   UNL     1      33.581 -15.542 -22.135  0.00  0.00    +0.116 C 
ENDBRANCH  12  14
ENDBRANCH  11  12
BRANCH  11  15
ATOM     15  C   UNL     1      34.425 -17.890 -24.309  0.00  0.00    +0.108 C 
BRANCH  15  17
ATOM     16 CL   UNL     1      33.400 -15.875 -25.843  0.00  0.00    -0.112 Cl
ATOM     17  C   UNL     1      34.818 -16.806 -25.301  0.00  0.00    +0.116 C 
ENDBRANCH  15  17
ENDBRANCH  11  15
ENDBRANCH   6  11
BRANCH   3  18
ATOM     18  C   UNL     1      33.621 -23.024 -18.291  0.00  0.00    +0.075 C 
BRANCH  18  19
ATOM     19  C   UNL     1      32.421 -22.663 -17.407  0.00  0.00    +0.009 C 
BRANCH  19  20
ATOM     20  C   UNL     1      32.511 -23.262 -16.000  0.00  0.00    +0.000 C 
BRANCH  20  21
ATOM     21  C   UNL     1      33.967 -23.394 -15.546  0.00  0.00    +0.001 C 
BRANCH  21  22
ATOM     22  C   UNL     1      34.118 -24.477 -14.475  0.00  0.00    +0.010 C 
BRANCH  22  23
ATOM     23  C   UNL     1      35.531 -24.533 -13.897  0.00  0.00    +0.087 C 
BRANCH  23  26
ATOM     24  O   UNL     1      37.641 -24.914 -14.974  0.00  0.00    -0.273 OA
ATOM     25  N   UNL     1      35.934 -26.434 -15.319  0.00  0.00    -0.197 N 
ATOM     26  C   UNL     1      36.491 -25.302 -14.781  0.00  0.00    +0.244 C 
ATOM     27  H   UNL     1      35.004 -26.699 -15.131  0.00  0.00    +0.182 HD
BRANCH  25  28
ATOM     28  O   UNL     1      36.770 -27.191 -16.149  0.00  0.00    -0.295 OA
ATOM     29  H   UNL     1      37.181 -27.901 -15.634  0.00  0.00    +0.241 HD
ENDBRANCH  25  28
ENDBRANCH  23  26
ENDBRANCH  22  23
ENDBRANCH  21  22
ENDBRANCH  20  21
ENDBRANCH  19  20
ENDBRANCH  18  19
ENDBRANCH   3  18
TORSDOF 13
ENDMDL
MODEL 4
REMARK VINA RESULT:      -8.8      3.559      6.268
REMARK  Name = 46836227
REMARK  13 active torsions:
REMARK  status: ('A' for Active; 'I' for Inactive)
REMARK    1  A    between atoms: C_3  and  C_18
REMARK    2  A    between atoms: C_6  and  N_11
REMARK    3  A    between atoms: N_11  and  C_12
REMARK    4  A    between atoms: N_11  and  C_15
REMARK    5  A    between atoms: C_12  and  C_14
REMARK    6  A    between atoms: C_15  and  C_17
REMARK    7  A    between atoms: C_18  and  C_19
REMARK    8  A    between atoms: C_19  and  C_20
REMARK    9  A    between atoms: C_20  and  C_21
REMARK   10  A    between atoms: C_21  and  C_22
REMARK   11  A    between atoms: C_22  and  C_23
REMARK   12  A    between atoms: C_23  and  C_26
REMARK   13  A    between atoms: N_25  and  O_28
REMARK                            x       y       z     vdW  Elec       q    Type
REMARK                         _______ _______ _______ _____ _____    ______ ____
ROOT
ATOM      1  N   UNL     1      34.589 -17.199 -24.028  0.00  0.00    -0.262 N 
ATOM      2  N   UNL     1      35.164 -16.222 -22.116  0.00  0.00    -0.394 NA
ATOM      3  C   UNL     1      35.198 -17.336 -22.812  0.00  0.00    +0.163 C 
ATOM      4  C   UNL     1      34.131 -15.910 -24.123  0.00  0.00    +0.079 C 
ATOM      5  C   UNL     1      34.503 -15.321 -22.918  0.00  0.00    +0.129 C 
ATOM      6  C   UNL     1      33.489 -13.271 -23.682  0.00  0.00    +0.032 C 
ATOM      7  C   UNL     1      34.178 -13.973 -22.685  0.00  0.00    +0.101 C 
ATOM      8  C   UNL     1      33.444 -15.230 -25.129  0.00  0.00    +0.018 C 
ATOM      9  C   UNL     1      33.130 -13.890 -24.881  0.00  0.00    +0.012 C 
ATOM     10  C   UNL     1      34.450 -18.226 -25.036  0.00  0.00    +0.119 C 
ENDROOT
BRANCH   6  11
ATOM     11  N   UNL     1      33.154 -11.915 -23.469  0.00  0.00    -0.308 N 
BRANCH  11  12
ATOM     12  C   UNL     1      33.945 -10.863 -24.070  0.00  0.00    +0.108 C 
BRANCH  12  14
ATOM     13 CL   UNL     1      34.834  -8.296 -23.770  0.00  0.00    -0.112 Cl
ATOM     14  C   UNL     1      33.544  -9.500 -23.527  0.00  0.00    +0.116 C 
ENDBRANCH  12  14
ENDBRANCH  11  12
BRANCH  11  15
ATOM     15  C   UNL     1      32.009 -11.564 -22.653  0.00  0.00    +0.108 C 
BRANCH  15  17
ATOM     16 CL   UNL     1      31.332 -11.459 -20.009  0.00  0.00    -0.112 Cl
ATOM     17  C   UNL     1      31.970 -12.397 -21.382  0.00  0.00    +0.116 C 
ENDBRANCH  15  17
ENDBRANCH  11  15
ENDBRANCH   6  11
BRANCH   3  18
ATOM     18  C   UNL     1      35.822 -18.636 -22.368  0.00  0.00    +0.075 C 
BRANCH  18  19
ATOM     19  C   UNL     1      35.140 -19.265 -21.147  0.00  0.00    +0.009 C 
BRANCH  19  20
ATOM     20  C   UNL     1      33.642 -19.504 -21.354  0.00  0.00    +0.000 C 
BRANCH  20  21
ATOM     21  C   UNL     1      33.080 -20.454 -20.294  0.00  0.00    +0.001 C 
BRANCH  21  22
ATOM     22  C   UNL     1      34.203 -21.177 -19.547  0.00  0.00    +0.010 C 
BRANCH  22  23
ATOM     23  C   UNL     1      33.911 -22.665 -19.351  0.00  0.00    +0.087 C 
BRANCH  23  26
ATOM     24  O   UNL     1      34.238 -23.462 -17.112  0.00  0.00    -0.273 OA
ATOM     25  N   UNL     1      32.141 -22.702 -17.719  0.00  0.00    -0.197 N 
ATOM     26  C   UNL     1      33.464 -22.989 -17.940  0.00  0.00    +0.244 C 
ATOM     27  H   UNL     1      31.564 -22.323 -18.421  0.00  0.00    +0.182 HD
BRANCH  25  28
ATOM     28  O   UNL     1      31.663 -22.981 -16.433  0.00  0.00    -0.295 OA
ATOM     29  H   UNL     1      30.694 -22.954 -16.435  0.00  0.00    +0.241 HD
ENDBRANCH  25  28
ENDBRANCH  23  26
ENDBRANCH  22  23
ENDBRANCH  21  22
ENDBRANCH  20  21
ENDBRANCH  19  20
ENDBRANCH  18  19
ENDBRANCH   3  18
TORSDOF 13
ENDMDL
MODEL 5
REMARK VINA RESULT:      -8.7      5.598      9.728
REMARK  Name = 46836227
REMARK  13 active torsions:
REMARK  status: ('A' for Active; 'I' for Inactive)
REMARK    1  A    between atoms: C_3  and  C_18
REMARK    2  A    between atoms: C_6  and  N_11
REMARK    3  A    between atoms: N_11  and  C_12
REMARK    4  A    between atoms: N_11  and  C_15
REMARK    5  A    between atoms: C_12  and  C_14
REMARK    6  A    between atoms: C_15  and  C_17
REMARK    7  A    between atoms: C_18  and  C_19
REMARK    8  A    between atoms: C_19  and  C_20
REMARK    9  A    between atoms: C_20  and  C_21
REMARK   10  A    between atoms: C_21  and  C_22
REMARK   11  A    between atoms: C_22  and  C_23
REMARK   12  A    between atoms: C_23  and  C_26
REMARK   13  A    between atoms: N_25  and  O_28
REMARK                            x       y       z     vdW  Elec       q    Type
REMARK                         _______ _______ _______ _____ _____    ______ ____
ROOT
ATOM      1  N   UNL     1      35.670 -22.021 -18.173  0.00  0.00    -0.262 N 
ATOM      2  N   UNL     1      33.922 -23.261 -17.583  0.00  0.00    -0.394 NA
ATOM      3  C   UNL     1      34.413 -22.452 -18.495  0.00  0.00    +0.163 C 
ATOM      4  C   UNL     1      36.013 -22.591 -16.974  0.00  0.00    +0.079 C 
ATOM      5  C   UNL     1      34.906 -23.359 -16.627  0.00  0.00    +0.129 C 
ATOM      6  C   UNL     1      36.072 -24.016 -14.620  0.00  0.00    +0.032 C 
ATOM      7  C   UNL     1      34.929 -24.090 -15.426  0.00  0.00    +0.101 C 
ATOM      8  C   UNL     1      37.162 -22.501 -16.187  0.00  0.00    +0.018 C 
ATOM      9  C   UNL     1      37.168 -23.235 -14.996  0.00  0.00    +0.012 C 
ATOM     10  C   UNL     1      36.494 -21.126 -18.955  0.00  0.00    +0.119 C 
ENDROOT
BRANCH   6  11
ATOM     11  N   UNL     1      36.116 -24.743 -13.409  0.00  0.00    -0.308 N 
BRANCH  11  12
ATOM     12  C   UNL     1      35.352 -24.299 -12.263  0.00  0.00    +0.108 C 
BRANCH  12  14
ATOM     13 CL   UNL     1      37.342 -22.602 -11.471  0.00  0.00    -0.112 Cl
ATOM     14  C   UNL     1      36.265 -23.969 -11.093  0.00  0.00    +0.116 C 
ENDBRANCH  12  14
ENDBRANCH  11  12
BRANCH  11  15
ATOM     15  C   UNL     1      36.921 -25.943 -13.305  0.00  0.00    +0.108 C 
BRANCH  15  17
ATOM     16 CL   UNL     1      39.368 -25.948 -14.519  0.00  0.00    -0.112 Cl
ATOM     17  C   UNL     1      38.384 -25.600 -13.076  0.00  0.00    +0.116 C 
ENDBRANCH  15  17
ENDBRANCH  11  15
ENDBRANCH   6  11
BRANCH   3  18
ATOM     18  C   UNL     1      33.715 -22.019 -19.760  0.00  0.00    +0.075 C 
BRANCH  18  19
ATOM     19  C   UNL     1      32.891 -20.735 -19.604  0.00  0.00    +0.009 C 
BRANCH  19  20
ATOM     20  C   UNL     1      32.858 -19.886 -20.878  0.00  0.00    +0.000 C 
BRANCH  20  21
ATOM     21  C   UNL     1      34.134 -19.054 -21.023  0.00  0.00    +0.001 C 
BRANCH  21  22
ATOM     22  C   UNL     1      34.965 -19.517 -22.222  0.00  0.00    +0.010 C 
BRANCH  22  23
ATOM     23  C   UNL     1      35.601 -18.351 -22.977  0.00  0.00    +0.087 C 
BRANCH  23  26
ATOM     24  O   UNL     1      34.190 -18.886 -24.843  0.00  0.00    -0.273 OA
ATOM     25  N   UNL     1      35.131 -16.777 -24.738  0.00  0.00    -0.197 N 
ATOM     26  C   UNL     1      34.893 -18.048 -24.282  0.00  0.00    +0.244 C 
ATOM     27  H   UNL     1      35.705 -16.144 -24.248  0.00  0.00    +0.182 HD
BRANCH  25  28
ATOM     28  O   UNL     1      34.506 -16.433 -25.943  0.00  0.00    -0.295 OA
ATOM     29  H   UNL     1      34.495 -17.204 -26.532  0.00  0.00    +0.241 HD
ENDBRANCH  25  28
ENDBRANCH  23  26
ENDBRANCH  22  23
ENDBRANCH  21  22
ENDBRANCH  20  21
ENDBRANCH  19  20
ENDBRANCH  18  19
ENDBRANCH   3  18
TORSDOF 13
ENDMDL
MODEL 6
REMARK VINA RESULT:      -8.7      3.794      6.782
REMARK  Name = 46836227
REMARK  13 active torsions:
REMARK  status: ('A' for Active; 'I' for Inactive)
REMARK    1  A    between atoms: C_3  and  C_18
REMARK    2  A    between atoms: C_6  and  N_11
REMARK    3  A    between atoms: N_11  and  C_12
REMARK    4  A    between atoms: N_11  and  C_15
REMARK    5  A    between atoms: C_12  and  C_14
REMARK    6  A    between atoms: C_15  and  C_17
REMARK    7  A    between atoms: C_18  and  C_19
REMARK    8  A    between atoms: C_19  and  C_20
REMARK    9  A    between atoms: C_20  and  C_21
REMARK   10  A    between atoms: C_21  and  C_22
REMARK   11  A    between atoms: C_22  and  C_23
REMARK   12  A    between atoms: C_23  and  C_26
REMARK   13  A    between atoms: N_25  and  O_28
REMARK                            x       y       z     vdW  Elec       q    Type
REMARK                         _______ _______ _______ _____ _____    ______ ____
ROOT
ATOM      1  N   UNL     1      34.609 -16.900 -24.169  0.00  0.00    -0.262 N 
ATOM      2  N   UNL     1      35.043 -16.003 -22.182  0.00  0.00    -0.394 NA
ATOM      3  C   UNL     1      35.171 -17.073 -22.935  0.00  0.00    +0.163 C 
ATOM      4  C   UNL     1      34.082 -15.635 -24.215  0.00  0.00    +0.079 C 
ATOM      5  C   UNL     1      34.366 -15.096 -22.963  0.00  0.00    +0.129 C 
ATOM      6  C   UNL     1      33.271 -13.064 -23.662  0.00  0.00    +0.032 C 
ATOM      7  C   UNL     1      33.954 -13.784 -22.673  0.00  0.00    +0.101 C 
ATOM      8  C   UNL     1      33.402 -14.937 -25.214  0.00  0.00    +0.018 C 
ATOM      9  C   UNL     1      33.001 -13.633 -24.908  0.00  0.00    +0.012 C 
ATOM     10  C   UNL     1      34.573 -17.874 -25.237  0.00  0.00    +0.119 C 
ENDROOT
BRANCH   6  11
ATOM     11  N   UNL     1      32.849 -11.743 -23.391  0.00  0.00    -0.308 N 
BRANCH  11  12
ATOM     12  C   UNL     1      32.039 -11.459 -22.225  0.00  0.00    +0.108 C 
BRANCH  12  14
ATOM     13 CL   UNL     1      31.788  -9.593 -20.244  0.00  0.00    -0.112 Cl
ATOM     14  C   UNL     1      31.942  -9.961 -21.980  0.00  0.00    +0.116 C 
ENDBRANCH  12  14
ENDBRANCH  11  12
BRANCH  11  15
ATOM     15  C   UNL     1      33.228 -10.658 -24.273  0.00  0.00    +0.108 C 
BRANCH  15  17
ATOM     16 CL   UNL     1      35.455 -10.433 -25.839  0.00  0.00    -0.112 Cl
ATOM     17  C   UNL     1      34.726 -10.406 -24.214  0.00  0.00    +0.116 C 
ENDBRANCH  15  17
ENDBRANCH  11  15
ENDBRANCH   6  11
BRANCH   3  18
ATOM     18  C   UNL     1      35.849 -18.359 -22.534  0.00  0.00    +0.075 C 
BRANCH  18  19
ATOM     19  C   UNL     1      34.883 -19.431 -22.013  0.00  0.00    +0.009 C 
BRANCH  19  20
ATOM     20  C   UNL     1      33.715 -18.847 -21.212  0.00  0.00    +0.000 C 
BRANCH  20  21
ATOM     21  C   UNL     1      32.861 -19.954 -20.590  0.00  0.00    +0.001 C 
BRANCH  21  22
ATOM     22  C   UNL     1      33.732 -20.999 -19.889  0.00  0.00    +0.010 C 
BRANCH  22  23
ATOM     23  C   UNL     1      32.968 -21.770 -18.814  0.00  0.00    +0.087 C 
BRANCH  23  26
ATOM     24  O   UNL     1      33.913 -23.950 -19.146  0.00  0.00    -0.273 OA
ATOM     25  N   UNL     1      34.057 -22.992 -17.047  0.00  0.00    -0.197 N 
ATOM     26  C   UNL     1      33.695 -23.024 -18.370  0.00  0.00    +0.244 C 
ATOM     27  H   UNL     1      33.855 -22.222 -16.468  0.00  0.00    +0.182 HD
BRANCH  25  28
ATOM     28  O   UNL     1      34.731 -24.124 -16.572  0.00  0.00    -0.295 OA
ATOM     29  H   UNL     1      35.110 -24.612 -17.319  0.00  0.00    +0.241 HD
ENDBRANCH  25  28
ENDBRANCH  23  26
ENDBRANCH  22  23
ENDBRANCH  21  22
ENDBRANCH  20  21
ENDBRANCH  19  20
ENDBRANCH  18  19
ENDBRANCH   3  18
TORSDOF 13
ENDMDL
MODEL 7
REMARK VINA RESULT:      -8.7      7.858     12.465
REMARK  Name = 46836227
REMARK  13 active torsions:
REMARK  status: ('A' for Active; 'I' for Inactive)
REMARK    1  A    between atoms: C_3  and  C_18
REMARK    2  A    between atoms: C_6  and  N_11
REMARK    3  A    between atoms: N_11  and  C_12
REMARK    4  A    between atoms: N_11  and  C_15
REMARK    5  A    between atoms: C_12  and  C_14
REMARK    6  A    between atoms: C_15  and  C_17
REMARK    7  A    between atoms: C_18  and  C_19
REMARK    8  A    between atoms: C_19  and  C_20
REMARK    9  A    between atoms: C_20  and  C_21
REMARK   10  A    between atoms: C_21  and  C_22
REMARK   11  A    between atoms: C_22  and  C_23
REMARK   12  A    between atoms: C_23  and  C_26
REMARK   13  A    between atoms: N_25  and  O_28
REMARK                            x       y       z     vdW  Elec       q    Type
REMARK                         _______ _______ _______ _____ _____    ______ ____
ROOT
ATOM      1  N   UNL     1      32.350 -11.714 -22.441  0.00  0.00    -0.262 N 
ATOM      2  N   UNL     1      33.949 -12.070 -23.943  0.00  0.00    -0.394 NA
ATOM      3  C   UNL     1      33.114 -11.187 -23.445  0.00  0.00    +0.163 C 
ATOM      4  C   UNL     1      32.717 -13.025 -22.281  0.00  0.00    +0.079 C 
ATOM      5  C   UNL     1      33.716 -13.223 -23.229  0.00  0.00    +0.129 C 
ATOM      6  C   UNL     1      33.891 -15.506 -22.472  0.00  0.00    +0.032 C 
ATOM      7  C   UNL     1      34.320 -14.488 -23.333  0.00  0.00    +0.101 C 
ATOM      8  C   UNL     1      32.273 -14.024 -21.414  0.00  0.00    +0.018 C 
ATOM      9  C   UNL     1      32.886 -15.276 -21.531  0.00  0.00    +0.012 C 
ATOM     10  C   UNL     1      31.336 -11.016 -21.682  0.00  0.00    +0.119 C 
ENDROOT
BRANCH   6  11
ATOM     11  N   UNL     1      34.486 -16.785 -22.560  0.00  0.00    -0.308 N 
BRANCH  11  12
ATOM     12  C   UNL     1      35.274 -17.147 -23.719  0.00  0.00    +0.108 C 
BRANCH  12  14
ATOM     13 CL   UNL     1      34.811 -19.668 -24.665  0.00  0.00    -0.112 Cl
ATOM     14  C   UNL     1      34.441 -17.927 -24.724  0.00  0.00    +0.116 C 
ENDBRANCH  12  14
ENDBRANCH  11  12
BRANCH  11  15
ATOM     15  C   UNL     1      34.319 -17.744 -21.488  0.00  0.00    +0.108 C 
BRANCH  15  17
ATOM     16 CL   UNL     1      35.325 -20.092 -20.518  0.00  0.00    -0.112 Cl
ATOM     17  C   UNL     1      35.621 -18.475 -21.202  0.00  0.00    +0.116 C 
ENDBRANCH  15  17
ENDBRANCH  11  15
ENDBRANCH   6  11
BRANCH   3  18
ATOM     18  C   UNL     1      32.976  -9.752 -23.891  0.00  0.00    +0.075 C 
BRANCH  18  19
ATOM     19  C   UNL     1      34.307  -8.992 -23.952  0.00  0.00    +0.009 C 
BRANCH  19  20
ATOM     20  C   UNL     1      34.275  -7.665 -23.188  0.00  0.00    +0.000 C 
BRANCH  20  21
ATOM     21  C   UNL     1      33.228  -7.693 -22.073  0.00  0.00    +0.001 C 
BRANCH  21  22
ATOM     22  C   UNL     1      32.356  -6.435 -22.099  0.00  0.00    +0.010 C 
BRANCH  22  23
ATOM     23  C   UNL     1      31.891  -6.076 -23.509  0.00  0.00    +0.087 C 
BRANCH  23  26
ATOM     24  O   UNL     1      30.537  -4.410 -24.582  0.00  0.00    -0.273 OA
ATOM     25  N   UNL     1      30.885  -4.250 -22.302  0.00  0.00    -0.197 N 
ATOM     26  C   UNL     1      31.031  -4.829 -23.538  0.00  0.00    +0.244 C 
ATOM     27  H   UNL     1      31.305  -4.628 -21.496  0.00  0.00    +0.182 HD
BRANCH  25  28
ATOM     28  O   UNL     1      30.102  -3.090 -22.260  0.00  0.00    -0.295 OA
ATOM     29  H   UNL     1      29.318  -3.249 -21.711  0.00  0.00    +0.241 HD
ENDBRANCH  25  28
ENDBRANCH  23  26
ENDBRANCH  22  23
ENDBRANCH  21  22
ENDBRANCH  20  21
ENDBRANCH  19  20
ENDBRANCH  18  19
ENDBRANCH   3  18
TORSDOF 13
ENDMDL
MODEL 8
REMARK VINA RESULT:      -8.7      5.657      8.855
REMARK  Name = 46836227
REMARK  13 active torsions:
REMARK  status: ('A' for Active; 'I' for Inactive)
REMARK    1  A    between atoms: C_3  and  C_18
REMARK    2  A    between atoms: C_6  and  N_11
REMARK    3  A    between atoms: N_11  and  C_12
REMARK    4  A    between atoms: N_11  and  C_15
REMARK    5  A    between atoms: C_12  and  C_14
REMARK    6  A    between atoms: C_15  and  C_17
REMARK    7  A    between atoms: C_18  and  C_19
REMARK    8  A    between atoms: C_19  and  C_20
REMARK    9  A    between atoms: C_20  and  C_21
REMARK   10  A    between atoms: C_21  and  C_22
REMARK   11  A    between atoms: C_22  and  C_23
REMARK   12  A    between atoms: C_23  and  C_26
REMARK   13  A    between atoms: N_25  and  O_28
REMARK                            x       y       z     vdW  Elec       q    Type
REMARK                         _______ _______ _______ _____ _____    ______ ____
ROOT
ATOM      1  N   UNL     1      32.756 -14.099 -22.308  0.00  0.00    -0.262 N 
ATOM      2  N   UNL     1      33.804 -13.268 -24.083  0.00  0.00    -0.394 NA
ATOM      3  C   UNL     1      33.529 -14.359 -23.405  0.00  0.00    +0.163 C 
ATOM      4  C   UNL     1      32.516 -12.750 -22.276  0.00  0.00    +0.079 C 
ATOM      5  C   UNL     1      33.181 -12.254 -23.394  0.00  0.00    +0.129 C 
ATOM      6  C   UNL     1      32.418 -10.048 -22.787  0.00  0.00    +0.032 C 
ATOM      7  C   UNL     1      33.135 -10.874 -23.661  0.00  0.00    +0.101 C 
ATOM      8  C   UNL     1      31.797 -11.945 -21.392  0.00  0.00    +0.018 C 
ATOM      9  C   UNL     1      31.762 -10.576 -21.673  0.00  0.00    +0.012 C 
ATOM     10  C   UNL     1      32.275 -15.071 -21.351  0.00  0.00    +0.119 C 
ENDROOT
BRANCH   6  11
ATOM     11  N   UNL     1      32.360  -8.658 -23.037  0.00  0.00    -0.308 N 
BRANCH  11  12
ATOM     12  C   UNL     1      31.280  -8.102 -23.824  0.00  0.00    +0.108 C 
BRANCH  12  14
ATOM     13 CL   UNL     1      31.161  -5.465 -24.533  0.00  0.00    -0.112 Cl
ATOM     14  C   UNL     1      30.880  -6.728 -23.309  0.00  0.00    +0.116 C 
ENDBRANCH  12  14
ENDBRANCH  11  12
BRANCH  11  15
ATOM     15  C   UNL     1      33.376  -7.775 -22.503  0.00  0.00    +0.108 C 
BRANCH  15  17
ATOM     16 CL   UNL     1      34.483  -6.683 -24.749  0.00  0.00    -0.112 Cl
ATOM     17  C   UNL     1      34.627  -7.797 -23.367  0.00  0.00    +0.116 C 
ENDBRANCH  15  17
ENDBRANCH  11  15
ENDBRANCH   6  11
BRANCH   3  18
ATOM     18  C   UNL     1      33.987 -15.754 -23.753  0.00  0.00    +0.075 C 
BRANCH  18  19
ATOM     19  C   UNL     1      35.180 -16.239 -22.921  0.00  0.00    +0.009 C 
BRANCH  19  20
ATOM     20  C   UNL     1      35.197 -17.758 -22.725  0.00  0.00    +0.000 C 
BRANCH  20  21
ATOM     21  C   UNL     1      34.384 -18.167 -21.495  0.00  0.00    +0.001 C 
BRANCH  21  22
ATOM     22  C   UNL     1      34.359 -19.688 -21.327  0.00  0.00    +0.010 C 
BRANCH  22  23
ATOM     23  C   UNL     1      33.147 -20.168 -20.530  0.00  0.00    +0.087 C 
BRANCH  23  26
ATOM     24  O   UNL     1      32.617 -21.917 -18.976  0.00  0.00    -0.273 OA
ATOM     25  N   UNL     1      34.841 -21.487 -19.439  0.00  0.00    -0.197 N 
ATOM     26  C   UNL     1      33.490 -21.285 -19.566  0.00  0.00    +0.244 C 
ATOM     27  H   UNL     1      35.498 -20.949 -19.937  0.00  0.00    +0.182 HD
BRANCH  25  28
ATOM     28  O   UNL     1      35.226 -22.506 -18.559  0.00  0.00    -0.295 OA
ATOM     29  H   UNL     1      36.120 -22.327 -18.230  0.00  0.00    +0.241 HD
ENDBRANCH  25  28
ENDBRANCH  23  26
ENDBRANCH  22  23
ENDBRANCH  21  22
ENDBRANCH  20  21
ENDBRANCH  19  20
ENDBRANCH  18  19
ENDBRANCH   3  18
TORSDOF 13
ENDMDL
MODEL 9
REMARK VINA RESULT:      -8.6      6.349     11.321
REMARK  Name = 46836227
REMARK  13 active torsions:
REMARK  status: ('A' for Active; 'I' for Inactive)
REMARK    1  A    between atoms: C_3  and  C_18
REMARK    2  A    between atoms: C_6  and  N_11
REMARK    3  A    between atoms: N_11  and  C_12
REMARK    4  A    between atoms: N_11  and  C_15
REMARK    5  A    between atoms: C_12  and  C_14
REMARK    6  A    between atoms: C_15  and  C_17
REMARK    7  A    between atoms: C_18  and  C_19
REMARK    8  A    between atoms: C_19  and  C_20
REMARK    9  A    between atoms: C_20  and  C_21
REMARK   10  A    between atoms: C_21  and  C_22
REMARK   11  A    between atoms: C_22  and  C_23
REMARK   12  A    between atoms: C_23  and  C_26
REMARK   13  A    between atoms: N_25  and  O_28
REMARK                            x       y       z     vdW  Elec       q    Type
REMARK                         _______ _______ _______ _____ _____    ______ ____
ROOT
ATOM      1  N   UNL     1      32.639 -12.517 -22.582  0.00  0.00    -0.262 N 
ATOM      2  N   UNL     1      34.218 -13.053 -24.051  0.00  0.00    -0.394 NA
ATOM      3  C   UNL     1      33.396 -12.112 -23.646  0.00  0.00    +0.163 C 
ATOM      4  C   UNL     1      32.998 -13.805 -22.279  0.00  0.00    +0.079 C 
ATOM      5  C   UNL     1      33.985 -14.117 -23.210  0.00  0.00    +0.129 C 
ATOM      6  C   UNL     1      34.152 -16.302 -22.204  0.00  0.00    +0.032 C 
ATOM      7  C   UNL     1      34.579 -15.390 -23.178  0.00  0.00    +0.101 C 
ATOM      8  C   UNL     1      32.557 -14.697 -21.302  0.00  0.00    +0.018 C 
ATOM      9  C   UNL     1      33.159 -15.959 -21.284  0.00  0.00    +0.012 C 
ATOM     10  C   UNL     1      31.639 -11.730 -21.895  0.00  0.00    +0.119 C 
ENDROOT
BRANCH   6  11
ATOM     11  N   UNL     1      34.736 -17.588 -22.154  0.00  0.00    -0.308 N 
BRANCH  11  12
ATOM     12  C   UNL     1      34.497 -18.455 -21.021  0.00  0.00    +0.108 C 
BRANCH  12  14
ATOM     13 CL   UNL     1      35.098 -20.896 -19.949  0.00  0.00    -0.112 Cl
ATOM     14  C   UNL     1      35.630 -19.455 -20.851  0.00  0.00    +0.116 C 
ENDBRANCH  12  14
ENDBRANCH  11  12
BRANCH  11  15
ATOM     15  C   UNL     1      35.573 -18.054 -23.241  0.00  0.00    +0.108 C 
BRANCH  15  17
ATOM     16 CL   UNL     1      33.951 -18.005 -25.439  0.00  0.00    -0.112 Cl
ATOM     17  C   UNL     1      34.790 -18.952 -24.186  0.00  0.00    +0.116 C 
ENDBRANCH  15  17
ENDBRANCH  11  15
ENDBRANCH   6  11
BRANCH   3  18
ATOM     18  C   UNL     1      33.263 -10.735 -24.249  0.00  0.00    +0.075 C 
BRANCH  18  19
ATOM     19  C   UNL     1      34.584  -9.960 -24.316  0.00  0.00    +0.009 C 
BRANCH  19  20
ATOM     20  C   UNL     1      34.468  -8.530 -23.779  0.00  0.00    +0.000 C 
BRANCH  20  21
ATOM     21  C   UNL     1      33.021  -8.189 -23.420  0.00  0.00    +0.001 C 
BRANCH  21  22
ATOM     22  C   UNL     1      32.939  -6.882 -22.627  0.00  0.00    +0.010 C 
BRANCH  22  23
ATOM     23  C   UNL     1      31.885  -6.934 -21.522  0.00  0.00    +0.087 C 
BRANCH  23  26
ATOM     24  O   UNL     1      33.034  -6.880 -19.416  0.00  0.00    -0.273 OA
ATOM     25  N   UNL     1      32.130  -8.884 -20.131  0.00  0.00    -0.197 N 
ATOM     26  C   UNL     1      32.415  -7.547 -20.242  0.00  0.00    +0.244 C 
ATOM     27  H   UNL     1      31.629  -9.372 -20.825  0.00  0.00    +0.182 HD
BRANCH  25  28
ATOM     28  O   UNL     1      32.595  -9.513 -18.969  0.00  0.00    -0.295 OA
ATOM     29  H   UNL     1      32.442 -10.468 -19.035  0.00  0.00    +0.241 HD
ENDBRANCH  25  28
ENDBRANCH  23  26
ENDBRANCH  22  23
ENDBRANCH  21  22
ENDBRANCH  20  21
ENDBRANCH  19  20
ENDBRANCH  18  19
ENDBRANCH   3  18
TORSDOF 13
ENDMDL
