MODEL 1
REMARK VINA RESULT:      -9.4      0.000      0.000
REMARK  Name = 68802
REMARK  0 active torsions:
REMARK  status: ('A' for Active; 'I' for Inactive)
REMARK                            x       y       z     vdW  Elec       q    Type
REMARK                         _______ _______ _______ _____ _____    ______ ____
ROOT
ATOM      1  N   UNL     1      33.901 -15.941 -24.126  0.00  0.00    -0.335 N 
ATOM      2  N   UNL     1      32.982 -13.432 -25.007  0.00  0.00    +0.390 N 
ATOM      3  C   UNL     1      32.550 -13.888 -23.679  0.00  0.00    -0.022 C 
ATOM      4  C   UNL     1      33.353 -15.058 -23.249  0.00  0.00    +0.013 A 
ATOM      5  C   UNL     1      33.721 -15.395 -21.971  0.00  0.00    -0.011 A 
ATOM      6  C   UNL     1      32.685 -12.797 -22.595  0.00  0.00    -0.015 C 
ATOM      7  C   UNL     1      33.392 -14.527 -20.805  0.00  0.00    +0.027 C 
ATOM      8  C   UNL     1      32.414 -13.390 -21.190  0.00  0.00    +0.003 C 
ATOM      9  C   UNL     1      33.878 -15.707 -25.559  0.00  0.00    +0.082 C 
ATOM     10  C   UNL     1      34.471 -16.604 -22.070  0.00  0.00    +0.013 A 
ATOM     11  C   UNL     1      34.570 -16.925 -23.435  0.00  0.00    +0.059 A 
ATOM     12  C   UNL     1      32.934 -14.556 -25.959  0.00  0.00    -0.056 C 
ATOM     13  C   UNL     1      35.104 -17.442 -21.129  0.00  0.00    -0.003 C 
ATOM     14  C   UNL     1      35.273 -18.052 -23.887  0.00  0.00    +0.017 C 
ATOM     15  C   UNL     1      35.799 -18.572 -21.573  0.00  0.00    -0.022 C 
ATOM     16  C   UNL     1      35.882 -18.870 -22.931  0.00  0.00    -0.003 C 
ATOM     17  C   UNL     1      36.465 -19.464 -20.579  0.00  0.00    +0.031 C 
ATOM     18  H   UNL     1      33.937 -13.078 -24.948  0.00  0.00    -0.084 HD
ATOM     19  H   UNL     1      32.359 -12.691 -25.328  0.00  0.00    -0.084 HD
ENDROOT
TORSDOF 0
ENDMDL
MODEL 2
REMARK VINA RESULT:      -8.8      7.742     11.195
REMARK  Name = 68802
REMARK  0 active torsions:
REMARK  status: ('A' for Active; 'I' for Inactive)
REMARK                            x       y       z     vdW  Elec       q    Type
REMARK                         _______ _______ _______ _____ _____    ______ ____
ROOT
ATOM      1  N   UNL     1      35.364 -23.160 -14.900  0.00  0.00    -0.335 N 
ATOM      2  N   UNL     1      34.381 -24.770 -12.811  0.00  0.00    +0.390 N 
ATOM      3  C   UNL     1      33.405 -24.010 -13.604  0.00  0.00    -0.022 C 
ATOM      4  C   UNL     1      34.042 -23.472 -14.830  0.00  0.00    +0.013 A 
ATOM      5  C   UNL     1      33.460 -23.271 -16.056  0.00  0.00    -0.011 A 
ATOM      6  C   UNL     1      32.189 -24.859 -14.037  0.00  0.00    -0.015 C 
ATOM      7  C   UNL     1      32.049 -23.665 -16.329  0.00  0.00    +0.027 C 
ATOM      8  C   UNL     1      31.304 -24.072 -15.034  0.00  0.00    +0.003 C 
ATOM      9  C   UNL     1      36.283 -23.490 -13.825  0.00  0.00    +0.082 C 
ATOM     10  C   UNL     1      34.471 -22.727 -16.902  0.00  0.00    +0.013 A 
ATOM     11  C   UNL     1      35.659 -22.668 -16.150  0.00  0.00    +0.059 A 
ATOM     12  C   UNL     1      35.560 -23.930 -12.537  0.00  0.00    -0.056 C 
ATOM     13  C   UNL     1      34.499 -22.307 -18.247  0.00  0.00    -0.003 C 
ATOM     14  C   UNL     1      36.864 -22.202 -16.696  0.00  0.00    +0.017 C 
ATOM     15  C   UNL     1      35.696 -21.833 -18.795  0.00  0.00    -0.022 C 
ATOM     16  C   UNL     1      36.860 -21.782 -18.029  0.00  0.00    -0.003 C 
ATOM     17  C   UNL     1      35.727 -21.382 -20.217  0.00  0.00    +0.031 C 
ATOM     18  H   UNL     1      34.669 -25.597 -13.334  0.00  0.00    -0.084 HD
ATOM     19  H   UNL     1      33.953 -25.051 -11.929  0.00  0.00    -0.084 HD
ENDROOT
TORSDOF 0
ENDMDL
MODEL 3
REMARK VINA RESULT:      -8.8      1.537      5.401
REMARK  Name = 68802
REMARK  0 active torsions:
REMARK  status: ('A' for Active; 'I' for Inactive)
REMARK                            x       y       z     vdW  Elec       q    Type
REMARK                         _______ _______ _______ _____ _____    ______ ____
ROOT
ATOM      1  N   UNL     1      33.944 -15.710 -21.798  0.00  0.00    -0.335 N 
ATOM      2  N   UNL     1      35.776 -17.480 -22.993  0.00  0.00    +0.390 N 
ATOM      3  C   UNL     1      34.613 -17.063 -23.788  0.00  0.00    -0.022 C 
ATOM      4  C   UNL     1      33.930 -15.916 -23.142  0.00  0.00    +0.013 A 
ATOM      5  C   UNL     1      33.264 -14.885 -23.756  0.00  0.00    -0.011 A 
ATOM      6  C   UNL     1      34.987 -16.642 -25.226  0.00  0.00    -0.015 C 
ATOM      7  C   UNL     1      33.211 -14.758 -25.239  0.00  0.00    +0.027 C 
ATOM      8  C   UNL     1      33.764 -16.020 -25.946  0.00  0.00    +0.003 C 
ATOM      9  C   UNL     1      34.772 -16.510 -20.912  0.00  0.00    +0.082 C 
ATOM     10  C   UNL     1      32.772 -14.043 -22.715  0.00  0.00    +0.013 A 
ATOM     11  C   UNL     1      33.215 -14.584 -21.494  0.00  0.00    +0.059 A 
ATOM     12  C   UNL     1      35.358 -17.754 -21.607  0.00  0.00    -0.056 C 
ATOM     13  C   UNL     1      32.018 -12.852 -22.695  0.00  0.00    -0.003 C 
ATOM     14  C   UNL     1      32.925 -13.978 -20.263  0.00  0.00    +0.017 C 
ATOM     15  C   UNL     1      31.719 -12.248 -21.469  0.00  0.00    -0.022 C 
ATOM     16  C   UNL     1      32.167 -12.804 -20.272  0.00  0.00    -0.003 C 
ATOM     17  C   UNL     1      30.916 -10.991 -21.444  0.00  0.00    +0.031 C 
ATOM     18  H   UNL     1      36.472 -16.735 -22.997  0.00  0.00    -0.084 HD
ATOM     19  H   UNL     1      36.176 -18.326 -23.399  0.00  0.00    -0.084 HD
ENDROOT
TORSDOF 0
ENDMDL
MODEL 4
REMARK VINA RESULT:      -8.8      1.555      5.587
REMARK  Name = 68802
REMARK  0 active torsions:
REMARK  status: ('A' for Active; 'I' for Inactive)
REMARK                            x       y       z     vdW  Elec       q    Type
REMARK                         _______ _______ _______ _____ _____    ______ ____
ROOT
ATOM      1  N   UNL     1      34.150 -15.376 -22.547  0.00  0.00    -0.335 N 
ATOM      2  N   UNL     1      35.404 -17.207 -20.817  0.00  0.00    +0.390 N 
ATOM      3  C   UNL     1      34.647 -17.751 -21.952  0.00  0.00    -0.022 C 
ATOM      4  C   UNL     1      34.319 -16.673 -22.917  0.00  0.00    +0.013 A 
ATOM      5  C   UNL     1      34.203 -16.779 -24.280  0.00  0.00    -0.011 A 
ATOM      6  C   UNL     1      35.415 -18.852 -22.715  0.00  0.00    -0.015 C 
ATOM      7  C   UNL     1      34.483 -18.056 -24.995  0.00  0.00    +0.027 C 
ATOM      8  C   UNL     1      34.663 -19.239 -24.013  0.00  0.00    +0.003 C 
ATOM      9  C   UNL     1      34.445 -14.923 -21.199  0.00  0.00    +0.082 C 
ATOM     10  C   UNL     1      33.863 -15.479 -24.760  0.00  0.00    +0.013 A 
ATOM     11  C   UNL     1      33.837 -14.616 -23.650  0.00  0.00    +0.059 A 
ATOM     12  C   UNL     1      34.660 -16.088 -20.212  0.00  0.00    -0.056 C 
ATOM     13  C   UNL     1      33.604 -14.946 -26.039  0.00  0.00    -0.003 C 
ATOM     14  C   UNL     1      33.559 -13.247 -23.777  0.00  0.00    +0.017 C 
ATOM     15  C   UNL     1      33.318 -13.583 -26.171  0.00  0.00    -0.022 C 
ATOM     16  C   UNL     1      33.296 -12.748 -25.056  0.00  0.00    -0.003 C 
ATOM     17  C   UNL     1      33.038 -13.017 -27.523  0.00  0.00    +0.031 C 
ATOM     18  H   UNL     1      36.311 -16.873 -21.144  0.00  0.00    -0.084 HD
ATOM     19  H   UNL     1      35.539 -17.939 -20.119  0.00  0.00    -0.084 HD
ENDROOT
TORSDOF 0
ENDMDL
MODEL 5
REMARK VINA RESULT:      -8.7      1.101      4.737
REMARK  Name = 68802
REMARK  0 active torsions:
REMARK  status: ('A' for Active; 'I' for Inactive)
REMARK                            x       y       z     vdW  Elec       q    Type
REMARK                         _______ _______ _______ _____ _____    ______ ____
ROOT
ATOM      1  N   UNL     1      33.616 -15.123 -23.757  0.00  0.00    -0.335 N 
ATOM      2  N   UNL     1      34.375 -17.609 -24.837  0.00  0.00    +0.390 N 
ATOM      3  C   UNL     1      34.981 -17.207 -23.561  0.00  0.00    -0.022 C 
ATOM      4  C   UNL     1      34.258 -16.044 -22.990  0.00  0.00    +0.013 A 
ATOM      5  C   UNL     1      34.063 -15.750 -21.664  0.00  0.00    -0.011 A 
ATOM      6  C   UNL     1      34.969 -18.335 -22.507  0.00  0.00    -0.015 C 
ATOM      7  C   UNL     1      34.525 -16.664 -20.581  0.00  0.00    +0.027 C 
ATOM      8  C   UNL     1      35.427 -17.797 -21.129  0.00  0.00    +0.003 C 
ATOM      9  C   UNL     1      33.451 -15.306 -25.189  0.00  0.00    +0.082 C 
ATOM     10  C   UNL     1      33.326 -14.530 -21.623  0.00  0.00    +0.013 A 
ATOM     11  C   UNL     1      33.057 -14.158 -22.953  0.00  0.00    +0.059 A 
ATOM     12  C   UNL     1      34.318 -16.451 -25.747  0.00  0.00    -0.056 C 
ATOM     13  C   UNL     1      32.832 -13.720 -20.580  0.00  0.00    -0.003 C 
ATOM     14  C   UNL     1      32.320 -13.008 -23.270  0.00  0.00    +0.017 C 
ATOM     15  C   UNL     1      32.104 -12.567 -20.891  0.00  0.00    -0.022 C 
ATOM     16  C   UNL     1      31.852 -12.218 -22.216  0.00  0.00    -0.003 C 
ATOM     17  C   UNL     1      31.585 -11.705 -19.789  0.00  0.00    +0.031 C 
ATOM     18  H   UNL     1      33.430 -17.954 -24.668  0.00  0.00    -0.084 HD
ATOM     19  H   UNL     1      34.939 -18.345 -25.261  0.00  0.00    -0.084 HD
ENDROOT
TORSDOF 0
ENDMDL
MODEL 6
REMARK VINA RESULT:      -8.7      7.132     10.738
REMARK  Name = 68802
REMARK  0 active torsions:
REMARK  status: ('A' for Active; 'I' for Inactive)
REMARK                            x       y       z     vdW  Elec       q    Type
REMARK                         _______ _______ _______ _____ _____    ______ ____
ROOT
ATOM      1  N   UNL     1      33.811 -23.333 -16.084  0.00  0.00    -0.335 N 
ATOM      2  N   UNL     1      33.633 -23.892 -13.331  0.00  0.00    +0.390 N 
ATOM      3  C   UNL     1      34.934 -24.089 -13.984  0.00  0.00    -0.022 C 
ATOM      4  C   UNL     1      34.935 -23.468 -15.331  0.00  0.00    +0.013 A 
ATOM      5  C   UNL     1      35.995 -22.893 -15.985  0.00  0.00    -0.011 A 
ATOM      6  C   UNL     1      36.108 -23.485 -13.183  0.00  0.00    -0.015 C 
ATOM      7  C   UNL     1      37.333 -22.755 -15.343  0.00  0.00    +0.027 C 
ATOM      8  C   UNL     1      37.416 -23.539 -14.010  0.00  0.00    +0.003 C 
ATOM      9  C   UNL     1      32.495 -23.638 -15.550  0.00  0.00    +0.082 C 
ATOM     10  C   UNL     1      35.502 -22.453 -17.249  0.00  0.00    +0.013 A 
ATOM     11  C   UNL     1      34.126 -22.741 -17.285  0.00  0.00    +0.059 A 
ATOM     12  C   UNL     1      32.557 -24.390 -14.206  0.00  0.00    -0.056 C 
ATOM     13  C   UNL     1      36.088 -21.807 -18.356  0.00  0.00    -0.003 C 
ATOM     14  C   UNL     1      33.324 -22.410 -18.387  0.00  0.00    +0.017 C 
ATOM     15  C   UNL     1      35.294 -21.482 -19.462  0.00  0.00    -0.022 C 
ATOM     16  C   UNL     1      33.933 -21.780 -19.475  0.00  0.00    -0.003 C 
ATOM     17  C   UNL     1      35.913 -20.804 -20.638  0.00  0.00    +0.031 C 
ATOM     18  H   UNL     1      33.492 -22.897 -13.153  0.00  0.00    -0.084 HD
ATOM     19  H   UNL     1      33.617 -24.405 -12.450  0.00  0.00    -0.084 HD
ENDROOT
TORSDOF 0
ENDMDL
MODEL 7
REMARK VINA RESULT:      -8.6      8.132     10.810
REMARK  Name = 68802
REMARK  0 active torsions:
REMARK  status: ('A' for Active; 'I' for Inactive)
REMARK                            x       y       z     vdW  Elec       q    Type
REMARK                         _______ _______ _______ _____ _____    ______ ____
ROOT
ATOM      1  N   UNL     1      34.677 -23.231 -15.379  0.00  0.00    -0.335 N 
ATOM      2  N   UNL     1      37.065 -21.980 -16.185  0.00  0.00    +0.390 N 
ATOM      3  C   UNL     1      36.206 -22.548 -17.232  0.00  0.00    -0.022 C 
ATOM      4  C   UNL     1      34.872 -22.886 -16.679  0.00  0.00    +0.013 A 
ATOM      5  C   UNL     1      33.663 -22.844 -17.328  0.00  0.00    -0.011 A 
ATOM      6  C   UNL     1      35.996 -21.590 -18.425  0.00  0.00    -0.015 C 
ATOM      7  C   UNL     1      33.541 -22.353 -18.729  0.00  0.00    +0.027 C 
ATOM      8  C   UNL     1      34.926 -22.153 -19.393  0.00  0.00    +0.003 C 
ATOM      9  C   UNL     1      35.741 -23.132 -14.395  0.00  0.00    +0.082 C 
ATOM     10  C   UNL     1      32.682 -23.269 -16.384  0.00  0.00    +0.013 A 
ATOM     11  C   UNL     1      33.346 -23.505 -15.167  0.00  0.00    +0.059 A 
ATOM     12  C   UNL     1      37.124 -22.900 -15.035  0.00  0.00    -0.056 C 
ATOM     13  C   UNL     1      31.284 -23.445 -16.439  0.00  0.00    -0.003 C 
ATOM     14  C   UNL     1      32.661 -23.914 -14.013  0.00  0.00    +0.017 C 
ATOM     15  C   UNL     1      30.598 -23.861 -15.293  0.00  0.00    -0.022 C 
ATOM     16  C   UNL     1      31.278 -24.091 -14.099  0.00  0.00    -0.003 C 
ATOM     17  C   UNL     1      29.119 -24.054 -15.351  0.00  0.00    +0.031 C 
ATOM     18  H   UNL     1      36.680 -21.084 -15.883  0.00  0.00    -0.084 HD
ATOM     19  H   UNL     1      38.004 -21.842 -16.556  0.00  0.00    -0.084 HD
ENDROOT
TORSDOF 0
ENDMDL
MODEL 8
REMARK VINA RESULT:      -8.5      3.855      6.059
REMARK  Name = 68802
REMARK  0 active torsions:
REMARK  status: ('A' for Active; 'I' for Inactive)
REMARK                            x       y       z     vdW  Elec       q    Type
REMARK                         _______ _______ _______ _____ _____    ______ ____
ROOT
ATOM      1  N   UNL     1      33.011  -9.705 -23.042  0.00  0.00    -0.335 N 
ATOM      2  N   UNL     1      32.936  -7.741 -21.027  0.00  0.00    +0.390 N 
ATOM      3  C   UNL     1      31.943  -8.822 -20.962  0.00  0.00    -0.022 C 
ATOM      4  C   UNL     1      32.309  -9.915 -21.896  0.00  0.00    +0.013 A 
ATOM      5  C   UNL     1      32.076 -11.259 -21.742  0.00  0.00    -0.011 A 
ATOM      6  C   UNL     1      31.808  -9.432 -19.550  0.00  0.00    -0.015 C 
ATOM      7  C   UNL     1      31.454 -11.811 -20.506  0.00  0.00    +0.027 C 
ATOM      8  C   UNL     1      30.908 -10.692 -19.586  0.00  0.00    +0.003 C 
ATOM      9  C   UNL     1      33.600  -8.413 -23.349  0.00  0.00    +0.082 C 
ATOM     10  C   UNL     1      32.598 -11.897 -22.906  0.00  0.00    +0.013 A 
ATOM     11  C   UNL     1      33.181 -10.897 -23.706  0.00  0.00    +0.059 A 
ATOM     12  C   UNL     1      33.092  -7.291 -22.422  0.00  0.00    -0.056 C 
ATOM     13  C   UNL     1      32.660 -13.236 -23.343  0.00  0.00    -0.003 C 
ATOM     14  C   UNL     1      33.815 -11.192 -24.922  0.00  0.00    +0.017 C 
ATOM     15  C   UNL     1      33.283 -13.534 -24.560  0.00  0.00    -0.022 C 
ATOM     16  C   UNL     1      33.852 -12.526 -25.336  0.00  0.00    -0.003 C 
ATOM     17  C   UNL     1      33.344 -14.950 -25.027  0.00  0.00    +0.031 C 
ATOM     18  H   UNL     1      33.832  -8.085 -20.679  0.00  0.00    -0.084 HD
ATOM     19  H   UNL     1      32.622  -6.960 -20.453  0.00  0.00    -0.084 HD
ENDROOT
TORSDOF 0
ENDMDL
MODEL 9
REMARK VINA RESULT:      -8.4      9.715     12.024
REMARK  Name = 68802
REMARK  0 active torsions:
REMARK  status: ('A' for Active; 'I' for Inactive)
REMARK                            x       y       z     vdW  Elec       q    Type
REMARK                         _______ _______ _______ _____ _____    ______ ____
ROOT
ATOM      1  N   UNL     1      35.000 -23.055 -15.714  0.00  0.00    -0.335 N 
ATOM      2  N   UNL     1      37.810 -23.204 -15.701  0.00  0.00    +0.390 N 
ATOM      3  C   UNL     1      37.124 -23.164 -14.402  0.00  0.00    -0.022 C 
ATOM      4  C   UNL     1      35.669 -23.396 -14.580  0.00  0.00    +0.013 A 
ATOM      5  C   UNL     1      34.810 -24.020 -13.711  0.00  0.00    -0.011 A 
ATOM      6  C   UNL     1      37.653 -24.221 -13.409  0.00  0.00    -0.015 C 
ATOM      7  C   UNL     1      35.288 -24.638 -12.443  0.00  0.00    +0.027 C 
ATOM      8  C   UNL     1      36.762 -24.271 -12.143  0.00  0.00    +0.003 C 
ATOM      9  C   UNL     1      35.696 -22.591 -16.901  0.00  0.00    +0.082 C 
ATOM     10  C   UNL     1      33.521 -23.984 -14.320  0.00  0.00    +0.013 A 
ATOM     11  C   UNL     1      33.668 -23.373 -15.578  0.00  0.00    +0.059 A 
ATOM     12  C   UNL     1      37.175 -22.251 -16.629  0.00  0.00    -0.056 C 
ATOM     13  C   UNL     1      32.244 -24.442 -13.935  0.00  0.00    -0.003 C 
ATOM     14  C   UNL     1      32.587 -23.203 -16.455  0.00  0.00    +0.017 C 
ATOM     15  C   UNL     1      31.160 -24.267 -14.802  0.00  0.00    -0.022 C 
ATOM     16  C   UNL     1      31.331 -23.656 -16.043  0.00  0.00    -0.003 C 
ATOM     17  C   UNL     1      29.807 -24.745 -14.394  0.00  0.00    +0.031 C 
ATOM     18  H   UNL     1      37.747 -24.146 -16.087  0.00  0.00    -0.084 HD
ATOM     19  H   UNL     1      38.789 -22.950 -15.573  0.00  0.00    -0.084 HD
ENDROOT
TORSDOF 0
ENDMDL
