MODEL 1
REMARK VINA RESULT:     -11.3      0.000      0.000
REMARK  Name = 11338127
REMARK  7 active torsions:
REMARK  status: ('A' for Active; 'I' for Inactive)
REMARK    1  A    between atoms: N_1  and  C_8
REMARK    2  A    between atoms: C_3  and  N_20
REMARK    3  A    between atoms: C_4  and  C_24
REMARK    4  A    between atoms: C_6  and  C_15
REMARK    5  A    between atoms: N_14  and  C_17
REMARK    6  A    between atoms: C_24  and  C_25
REMARK    7  A    between atoms: C_28  and  C_32
REMARK                            x       y       z     vdW  Elec       q    Type
REMARK                         _______ _______ _______ _____ _____    ______ ____
ROOT
ATOM      1  N   UNL     1      34.155 -15.578 -22.954  0.00  0.00    -0.177 N 
ATOM      2  N   UNL     1      34.111 -16.172 -24.159  0.00  0.00    -0.171 NA
ATOM      3  C   UNL     1      34.819 -16.301 -22.007  0.00  0.00    +0.122 C 
ATOM      4  C   UNL     1      35.215 -17.413 -22.655  0.00  0.00    +0.088 C 
ATOM      5  C   UNL     1      34.774 -17.313 -23.959  0.00  0.00    +0.124 C 
ENDROOT
BRANCH   1   8
ATOM      6  C   UNL     1      33.399 -12.009 -23.387  0.00  0.00    +0.055 C 
ATOM      7  C   UNL     1      33.993 -13.261 -23.545  0.00  0.00    +0.021 C 
ATOM      8  C   UNL     1      33.549 -14.333 -22.780  0.00  0.00    +0.071 C 
ATOM      9  C   UNL     1      32.366 -11.838 -22.465  0.00  0.00    +0.004 C 
ATOM     10  C   UNL     1      32.519 -14.172 -21.861  0.00  0.00    -0.006 C 
ATOM     11  C   UNL     1      31.926 -12.920 -21.703  0.00  0.00    -0.003 C 
ATOM     12  C   UNL     1      32.025 -15.311 -21.028  0.00  0.00    +0.032 C 
BRANCH   6  15
ATOM     13  O   UNL     1      34.356 -11.008 -25.310  0.00  0.00    -0.270 OA
ATOM     14  N   UNL     1      33.738  -9.617 -23.590  0.00  0.00    -0.302 N 
ATOM     15  C   UNL     1      33.857 -10.880 -24.181  0.00  0.00    +0.246 C 
ATOM     16  H   UNL     1      33.338  -9.551 -22.693  0.00  0.00    +0.150 HD
BRANCH  14  17
ATOM     17  C   UNL     1      34.178  -8.404 -24.242  0.00  0.00    +0.072 C 
ATOM     18  C   UNL     1      33.546  -7.098 -23.912  0.00  0.00    +0.021 C 
ATOM     19  C   UNL     1      34.955  -7.383 -23.486  0.00  0.00    +0.021 C 
ENDBRANCH  14  17
ENDBRANCH   6  15
ENDBRANCH   1   8
BRANCH   3  20
ATOM     20  N   UNL     1      34.964 -15.861 -20.738  0.00  0.00    -0.344 N 
ATOM     21  H   UNL     1      34.380 -15.146 -20.396  0.00  0.00    +0.144 HD
ATOM     22  H   UNL     1      35.652 -16.257 -20.155  0.00  0.00    +0.144 HD
ENDBRANCH   3  20
BRANCH   4  24
ATOM     23  O   UNL     1      37.194 -18.645 -22.276  0.00  0.00    -0.286 OA
ATOM     24  C   UNL     1      35.981 -18.520 -22.046  0.00  0.00    +0.200 C 
BRANCH  24  25
ATOM     25  C   UNL     1      35.333 -19.490 -21.177  0.00  0.00    +0.040 C 
ATOM     26  C   UNL     1      36.076 -20.167 -20.210  0.00  0.00    +0.013 C 
ATOM     27  C   UNL     1      33.967 -19.743 -21.310  0.00  0.00    +0.003 C 
ATOM     28  C   UNL     1      35.455 -21.096 -19.377  0.00  0.00    +0.069 C 
ATOM     29  C   UNL     1      33.346 -20.672 -20.477  0.00  0.00    +0.001 C 
ATOM     30  C   UNL     1      34.090 -21.350 -19.510  0.00  0.00    +0.010 C 
BRANCH  28  32
ATOM     31  N   UNL     1      36.835 -22.354 -17.581  0.00  0.00    -0.191 NA
ATOM     32  C   UNL     1      36.216 -21.790 -18.387  0.00  0.00    +0.100 C 
ENDBRANCH  28  32
ENDBRANCH  24  25
ENDBRANCH   4  24
TORSDOF 7
ENDMDL
MODEL 2
REMARK VINA RESULT:     -11.1      3.041      5.128
REMARK  Name = 11338127
REMARK  7 active torsions:
REMARK  status: ('A' for Active; 'I' for Inactive)
REMARK    1  A    between atoms: N_1  and  C_8
REMARK    2  A    between atoms: C_3  and  N_20
REMARK    3  A    between atoms: C_4  and  C_24
REMARK    4  A    between atoms: C_6  and  C_15
REMARK    5  A    between atoms: N_14  and  C_17
REMARK    6  A    between atoms: C_24  and  C_25
REMARK    7  A    between atoms: C_28  and  C_32
REMARK                            x       y       z     vdW  Elec       q    Type
REMARK                         _______ _______ _______ _____ _____    ______ ____
ROOT
ATOM      1  N   UNL     1      35.190 -19.295 -21.034  0.00  0.00    -0.177 N 
ATOM      2  N   UNL     1      36.463 -19.553 -20.689  0.00  0.00    -0.171 NA
ATOM      3  C   UNL     1      34.290 -20.187 -20.529  0.00  0.00    +0.122 C 
ATOM      4  C   UNL     1      35.042 -21.056 -19.826  0.00  0.00    +0.088 C 
ATOM      5  C   UNL     1      36.356 -20.651 -19.937  0.00  0.00    +0.124 C 
ENDROOT
BRANCH   1   8
ATOM      6  C   UNL     1      34.401 -15.846 -22.022  0.00  0.00    +0.055 C 
ATOM      7  C   UNL     1      34.684 -16.961 -21.234  0.00  0.00    +0.021 C 
ATOM      8  C   UNL     1      34.907 -18.191 -21.841  0.00  0.00    +0.071 C 
ATOM      9  C   UNL     1      34.344 -15.968 -23.410  0.00  0.00    +0.004 C 
ATOM     10  C   UNL     1      34.854 -18.323 -23.223  0.00  0.00    -0.006 C 
ATOM     11  C   UNL     1      34.571 -17.207 -24.011  0.00  0.00    -0.003 C 
ATOM     12  C   UNL     1      35.092 -19.636 -23.896  0.00  0.00    +0.032 C 
BRANCH   6  15
ATOM     13  O   UNL     1      34.816 -14.146 -20.424  0.00  0.00    -0.270 OA
ATOM     14  N   UNL     1      33.124 -13.787 -21.935  0.00  0.00    -0.302 N 
ATOM     15  C   UNL     1      34.164 -14.554 -21.398  0.00  0.00    +0.246 C 
ATOM     16  H   UNL     1      32.627 -14.141 -22.708  0.00  0.00    +0.150 HD
BRANCH  14  17
ATOM     17  C   UNL     1      32.748 -12.497 -21.402  0.00  0.00    +0.072 C 
ATOM     18  C   UNL     1      31.402 -11.927 -21.683  0.00  0.00    +0.021 C 
ATOM     19  C   UNL     1      31.750 -12.398 -20.302  0.00  0.00    +0.021 C 
ENDBRANCH  14  17
ENDBRANCH   6  15
ENDBRANCH   1   8
BRANCH   3  20
ATOM     20  N   UNL     1      32.965 -20.087 -20.772  0.00  0.00    -0.344 N 
ATOM     21  H   UNL     1      32.584 -19.232 -21.078  0.00  0.00    +0.144 HD
ATOM     22  H   UNL     1      32.380 -20.868 -20.643  0.00  0.00    +0.144 HD
ENDBRANCH   3  20
BRANCH   4  24
ATOM     23  O   UNL     1      33.699 -22.986 -19.612  0.00  0.00    -0.286 OA
ATOM     24  C   UNL     1      34.518 -22.220 -19.082  0.00  0.00    +0.200 C 
BRANCH  24  25
ATOM     25  C   UNL     1      34.938 -22.485 -17.715  0.00  0.00    +0.040 C 
ATOM     26  C   UNL     1      34.063 -23.109 -16.825  0.00  0.00    +0.013 C 
ATOM     27  C   UNL     1      36.216 -22.117 -17.294  0.00  0.00    +0.003 C 
ATOM     28  C   UNL     1      34.466 -23.365 -15.515  0.00  0.00    +0.069 C 
ATOM     29  C   UNL     1      36.619 -22.373 -15.984  0.00  0.00    +0.001 C 
ATOM     30  C   UNL     1      35.744 -22.996 -15.094  0.00  0.00    +0.010 C 
BRANCH  28  32
ATOM     31  N   UNL     1      32.843 -24.521 -13.860  0.00  0.00    -0.191 NA
ATOM     32  C   UNL     1      33.571 -24.003 -14.603  0.00  0.00    +0.100 C 
ENDBRANCH  28  32
ENDBRANCH  24  25
ENDBRANCH   4  24
TORSDOF 7
ENDMDL
MODEL 3
REMARK VINA RESULT:     -11.0      1.453      2.155
REMARK  Name = 11338127
REMARK  7 active torsions:
REMARK  status: ('A' for Active; 'I' for Inactive)
REMARK    1  A    between atoms: N_1  and  C_8
REMARK    2  A    between atoms: C_3  and  N_20
REMARK    3  A    between atoms: C_4  and  C_24
REMARK    4  A    between atoms: C_6  and  C_15
REMARK    5  A    between atoms: N_14  and  C_17
REMARK    6  A    between atoms: C_24  and  C_25
REMARK    7  A    between atoms: C_28  and  C_32
REMARK                            x       y       z     vdW  Elec       q    Type
REMARK                         _______ _______ _______ _____ _____    ______ ____
ROOT
ATOM      1  N   UNL     1      33.905 -15.165 -23.275  0.00  0.00    -0.177 N 
ATOM      2  N   UNL     1      33.153 -15.254 -22.164  0.00  0.00    -0.171 NA
ATOM      3  C   UNL     1      34.792 -16.190 -23.425  0.00  0.00    +0.122 C 
ATOM      4  C   UNL     1      34.585 -16.969 -22.346  0.00  0.00    +0.088 C 
ATOM      5  C   UNL     1      33.586 -16.382 -21.596  0.00  0.00    +0.124 C 
ENDROOT
BRANCH   1   8
ATOM      6  C   UNL     1      33.815 -11.709 -24.518  0.00  0.00    +0.055 C 
ATOM      7  C   UNL     1      33.987 -12.802 -23.670  0.00  0.00    +0.021 C 
ATOM      8  C   UNL     1      33.725 -14.083 -24.140  0.00  0.00    +0.071 C 
ATOM      9  C   UNL     1      33.383 -11.905 -25.830  0.00  0.00    +0.004 C 
ATOM     10  C   UNL     1      33.296 -14.288 -25.445  0.00  0.00    -0.006 C 
ATOM     11  C   UNL     1      33.125 -13.195 -26.294  0.00  0.00    -0.003 C 
ATOM     12  C   UNL     1      33.010 -15.658 -25.972  0.00  0.00    +0.032 C 
BRANCH   6  15
ATOM     13  O   UNL     1      35.178  -9.799 -24.190  0.00  0.00    -0.270 OA
ATOM     14  N   UNL     1      33.043  -9.731 -23.349  0.00  0.00    -0.302 N 
ATOM     15  C   UNL     1      34.084 -10.363 -24.037  0.00  0.00    +0.246 C 
ATOM     16  H   UNL     1      32.187 -10.208 -23.245  0.00  0.00    +0.150 HD
BRANCH  14  17
ATOM     17  C   UNL     1      33.169  -8.407 -22.784  0.00  0.00    +0.072 C 
ATOM     18  C   UNL     1      31.993  -7.497 -22.720  0.00  0.00    +0.021 C 
ATOM     19  C   UNL     1      32.558  -8.090 -21.463  0.00  0.00    +0.021 C 
ENDBRANCH  14  17
ENDBRANCH   6  15
ENDBRANCH   1   8
BRANCH   3  20
ATOM     20  N   UNL     1      35.630 -16.266 -24.481  0.00  0.00    -0.344 N 
ATOM     21  H   UNL     1      35.369 -16.778 -25.281  0.00  0.00    +0.144 HD
ATOM     22  H   UNL     1      36.502 -15.809 -24.452  0.00  0.00    +0.144 HD
ENDBRANCH   3  20
BRANCH   4  24
ATOM     23  O   UNL     1      36.451 -18.406 -22.513  0.00  0.00    -0.286 OA
ATOM     24  C   UNL     1      35.314 -18.220 -22.052  0.00  0.00    +0.200 C 
BRANCH  24  25
ATOM     25  C   UNL     1      34.716 -19.260 -21.230  0.00  0.00    +0.040 C 
ATOM     26  C   UNL     1      35.510 -20.000 -20.354  0.00  0.00    +0.013 C 
ATOM     27  C   UNL     1      33.347 -19.517 -21.317  0.00  0.00    +0.003 C 
ATOM     28  C   UNL     1      34.937 -20.997 -19.566  0.00  0.00    +0.069 C 
ATOM     29  C   UNL     1      32.774 -20.513 -20.528  0.00  0.00    +0.001 C 
ATOM     30  C   UNL     1      33.568 -21.254 -19.653  0.00  0.00    +0.010 C 
BRANCH  28  32
ATOM     31  N   UNL     1      36.411 -22.373 -17.940  0.00  0.00    -0.191 NA
ATOM     32  C   UNL     1      35.750 -21.756 -18.670  0.00  0.00    +0.100 C 
ENDBRANCH  28  32
ENDBRANCH  24  25
ENDBRANCH   4  24
TORSDOF 7
ENDMDL
MODEL 4
REMARK VINA RESULT:     -10.9      2.363      9.932
REMARK  Name = 11338127
REMARK  7 active torsions:
REMARK  status: ('A' for Active; 'I' for Inactive)
REMARK    1  A    between atoms: N_1  and  C_8
REMARK    2  A    between atoms: C_3  and  N_20
REMARK    3  A    between atoms: C_4  and  C_24
REMARK    4  A    between atoms: C_6  and  C_15
REMARK    5  A    between atoms: N_14  and  C_17
REMARK    6  A    between atoms: C_24  and  C_25
REMARK    7  A    between atoms: C_28  and  C_32
REMARK                            x       y       z     vdW  Elec       q    Type
REMARK                         _______ _______ _______ _____ _____    ______ ____
ROOT
ATOM      1  N   UNL     1      33.456 -13.551 -23.476  0.00  0.00    -0.177 N 
ATOM      2  N   UNL     1      34.002 -12.607 -24.262  0.00  0.00    -0.171 NA
ATOM      3  C   UNL     1      32.514 -13.073 -22.614  0.00  0.00    +0.122 C 
ATOM      4  C   UNL     1      32.465 -11.753 -22.873  0.00  0.00    +0.088 C 
ATOM      5  C   UNL     1      33.376 -11.493 -23.876  0.00  0.00    +0.124 C 
ENDROOT
BRANCH   1   8
ATOM      6  C   UNL     1      34.778 -16.859 -22.577  0.00  0.00    +0.055 C 
ATOM      7  C   UNL     1      34.353 -15.535 -22.473  0.00  0.00    +0.021 C 
ATOM      8  C   UNL     1      33.878 -14.876 -23.601  0.00  0.00    +0.071 C 
ATOM      9  C   UNL     1      34.725 -17.515 -23.807  0.00  0.00    +0.004 C 
ATOM     10  C   UNL     1      33.821 -15.521 -24.830  0.00  0.00    -0.006 C 
ATOM     11  C   UNL     1      34.247 -16.845 -24.933  0.00  0.00    -0.003 C 
ATOM     12  C   UNL     1      33.314 -14.832 -26.056  0.00  0.00    +0.032 C 
BRANCH   6  15
ATOM     13  O   UNL     1      35.454 -16.997 -20.310  0.00  0.00    -0.270 OA
ATOM     14  N   UNL     1      35.588 -18.911 -21.572  0.00  0.00    -0.302 N 
ATOM     15  C   UNL     1      35.278 -17.557 -21.403  0.00  0.00    +0.246 C 
ATOM     16  H   UNL     1      35.436 -19.324 -22.453  0.00  0.00    +0.150 HD
BRANCH  14  17
ATOM     17  C   UNL     1      36.124 -19.730 -20.508  0.00  0.00    +0.072 C 
ATOM     18  C   UNL     1      35.284 -20.778 -19.866  0.00  0.00    +0.021 C 
ATOM     19  C   UNL     1      36.435 -21.166 -20.747  0.00  0.00    +0.021 C 
ENDBRANCH  14  17
ENDBRANCH   6  15
ENDBRANCH   1   8
BRANCH   3  20
ATOM     20  N   UNL     1      31.860 -13.878 -21.747  0.00  0.00    -0.344 N 
ATOM     21  H   UNL     1      32.170 -14.800 -21.602  0.00  0.00    +0.144 HD
ATOM     22  H   UNL     1      31.073 -13.540 -21.261  0.00  0.00    +0.144 HD
ENDBRANCH   3  20
BRANCH   4  24
ATOM     23  O   UNL     1      30.492 -11.156 -21.720  0.00  0.00    -0.286 OA
ATOM     24  C   UNL     1      31.582 -10.788 -22.186  0.00  0.00    +0.200 C 
BRANCH  24  25
ATOM     25  C   UNL     1      31.962  -9.390 -22.051  0.00  0.00    +0.040 C 
ATOM     26  C   UNL     1      31.932  -8.550 -23.164  0.00  0.00    +0.013 C 
ATOM     27  C   UNL     1      32.355  -8.890 -20.810  0.00  0.00    +0.003 C 
ATOM     28  C   UNL     1      32.295  -7.210 -23.036  0.00  0.00    +0.069 C 
ATOM     29  C   UNL     1      32.718  -7.550 -20.681  0.00  0.00    +0.001 C 
ATOM     30  C   UNL     1      32.689  -6.710 -21.794  0.00  0.00    +0.010 C 
BRANCH  28  32
ATOM     31  N   UNL     1      32.242  -5.647 -25.101  0.00  0.00    -0.191 NA
ATOM     32  C   UNL     1      32.266  -6.348 -24.175  0.00  0.00    +0.100 C 
ENDBRANCH  28  32
ENDBRANCH  24  25
ENDBRANCH   4  24
TORSDOF 7
ENDMDL
MODEL 5
REMARK VINA RESULT:     -10.9      2.776      4.124
REMARK  Name = 11338127
REMARK  7 active torsions:
REMARK  status: ('A' for Active; 'I' for Inactive)
REMARK    1  A    between atoms: N_1  and  C_8
REMARK    2  A    between atoms: C_3  and  N_20
REMARK    3  A    between atoms: C_4  and  C_24
REMARK    4  A    between atoms: C_6  and  C_15
REMARK    5  A    between atoms: N_14  and  C_17
REMARK    6  A    between atoms: C_24  and  C_25
REMARK    7  A    between atoms: C_28  and  C_32
REMARK                            x       y       z     vdW  Elec       q    Type
REMARK                         _______ _______ _______ _____ _____    ______ ____
ROOT
ATOM      1  N   UNL     1      34.141 -18.586 -21.352  0.00  0.00    -0.177 N 
ATOM      2  N   UNL     1      33.039 -19.341 -21.203  0.00  0.00    -0.171 NA
ATOM      3  C   UNL     1      35.274 -19.160 -20.854  0.00  0.00    +0.122 C 
ATOM      4  C   UNL     1      34.859 -20.343 -20.364  0.00  0.00    +0.088 C 
ATOM      5  C   UNL     1      33.500 -20.432 -20.587  0.00  0.00    +0.124 C 
ENDROOT
BRANCH   1   8
ATOM      6  C   UNL     1      33.292 -15.054 -21.900  0.00  0.00    +0.055 C 
ATOM      7  C   UNL     1      33.402 -16.307 -21.298  0.00  0.00    +0.021 C 
ATOM      8  C   UNL     1      34.041 -17.340 -21.973  0.00  0.00    +0.071 C 
ATOM      9  C   UNL     1      33.821 -14.843 -23.173  0.00  0.00    +0.004 C 
ATOM     10  C   UNL     1      34.572 -17.139 -23.241  0.00  0.00    -0.006 C 
ATOM     11  C   UNL     1      34.462 -15.886 -23.843  0.00  0.00    -0.003 C 
ATOM     12  C   UNL     1      35.264 -18.235 -23.986  0.00  0.00    +0.032 C 
BRANCH   6  15
ATOM     13  O   UNL     1      32.630 -13.853 -19.968  0.00  0.00    -0.270 OA
ATOM     14  N   UNL     1      31.930 -13.051 -22.002  0.00  0.00    -0.302 N 
ATOM     15  C   UNL     1      32.624 -13.967 -21.203  0.00  0.00    +0.246 C 
ATOM     16  H   UNL     1      31.945 -13.171 -22.980  0.00  0.00    +0.150 HD
BRANCH  14  17
ATOM     17  C   UNL     1      31.192 -11.936 -21.453  0.00  0.00    +0.072 C 
ATOM     18  C   UNL     1      31.908 -10.775 -20.860  0.00  0.00    +0.021 C 
ATOM     19  C   UNL     1      31.173 -10.625 -22.159  0.00  0.00    +0.021 C 
ENDBRANCH  14  17
ENDBRANCH   6  15
ENDBRANCH   1   8
BRANCH   3  20
ATOM     20  N   UNL     1      36.476 -18.546 -20.914  0.00  0.00    -0.344 N 
ATOM     21  H   UNL     1      36.554 -17.593 -20.680  0.00  0.00    +0.144 HD
ATOM     22  H   UNL     1      37.274 -19.053 -21.190  0.00  0.00    +0.144 HD
ENDBRANCH   3  20
BRANCH   4  24
ATOM     23  O   UNL     1      36.834 -21.629 -20.202  0.00  0.00    -0.286 OA
ATOM     24  C   UNL     1      35.731 -21.342 -19.711  0.00  0.00    +0.200 C 
BRANCH  24  25
ATOM     25  C   UNL     1      35.315 -22.015 -18.491  0.00  0.00    +0.040 C 
ATOM     26  C   UNL     1      36.204 -22.137 -17.423  0.00  0.00    +0.013 C 
ATOM     27  C   UNL     1      34.026 -22.538 -18.388  0.00  0.00    +0.003 C 
ATOM     28  C   UNL     1      35.806 -22.782 -16.253  0.00  0.00    +0.069 C 
ATOM     29  C   UNL     1      33.627 -23.183 -17.218  0.00  0.00    +0.001 C 
ATOM     30  C   UNL     1      34.517 -23.306 -16.150  0.00  0.00    +0.010 C 
BRANCH  28  32
ATOM     31  N   UNL     1      37.457 -23.010 -14.270  0.00  0.00    -0.191 NA
ATOM     32  C   UNL     1      36.716 -22.908 -15.160  0.00  0.00    +0.100 C 
ENDBRANCH  28  32
ENDBRANCH  24  25
ENDBRANCH   4  24
TORSDOF 7
ENDMDL
MODEL 6
REMARK VINA RESULT:     -10.9      2.543     10.703
REMARK  Name = 11338127
REMARK  7 active torsions:
REMARK  status: ('A' for Active; 'I' for Inactive)
REMARK    1  A    between atoms: N_1  and  C_8
REMARK    2  A    between atoms: C_3  and  N_20
REMARK    3  A    between atoms: C_4  and  C_24
REMARK    4  A    between atoms: C_6  and  C_15
REMARK    5  A    between atoms: N_14  and  C_17
REMARK    6  A    between atoms: C_24  and  C_25
REMARK    7  A    between atoms: C_28  and  C_32
REMARK                            x       y       z     vdW  Elec       q    Type
REMARK                         _______ _______ _______ _____ _____    ______ ____
ROOT
ATOM      1  N   UNL     1      33.168 -11.772 -23.538  0.00  0.00    -0.177 N 
ATOM      2  N   UNL     1      32.049 -11.444 -22.869  0.00  0.00    -0.171 NA
ATOM      3  C   UNL     1      33.908 -10.698 -23.936  0.00  0.00    +0.122 C 
ATOM      4  C   UNL     1      33.214  -9.633 -23.492  0.00  0.00    +0.088 C 
ATOM      5  C   UNL     1      32.090 -10.110 -22.847  0.00  0.00    +0.124 C 
ENDROOT
BRANCH   1   8
ATOM      6  C   UNL     1      34.183 -15.242 -22.884  0.00  0.00    +0.055 C 
ATOM      7  C   UNL     1      33.882 -13.896 -22.685  0.00  0.00    +0.021 C 
ATOM      8  C   UNL     1      33.466 -13.119 -23.759  0.00  0.00    +0.071 C 
ATOM      9  C   UNL     1      34.065 -15.802 -24.156  0.00  0.00    +0.004 C 
ATOM     10  C   UNL     1      33.345 -13.668 -25.030  0.00  0.00    -0.006 C 
ATOM     11  C   UNL     1      33.646 -15.015 -25.229  0.00  0.00    -0.003 C 
ATOM     12  C   UNL     1      32.899 -12.851 -26.199  0.00  0.00    +0.032 C 
BRANCH   6  15
ATOM     13  O   UNL     1      34.988 -15.587 -20.682  0.00  0.00    -0.270 OA
ATOM     14  N   UNL     1      34.641 -17.446 -21.985  0.00  0.00    -0.302 N 
ATOM     15  C   UNL     1      34.620 -16.064 -21.768  0.00  0.00    +0.246 C 
ATOM     16  H   UNL     1      34.343 -17.792 -22.858  0.00  0.00    +0.150 HD
BRANCH  14  17
ATOM     17  C   UNL     1      35.081 -18.390 -20.982  0.00  0.00    +0.072 C 
ATOM     18  C   UNL     1      35.203 -19.837 -21.307  0.00  0.00    +0.021 C 
ATOM     19  C   UNL     1      36.432 -19.009 -21.072  0.00  0.00    +0.021 C 
ENDBRANCH  14  17
ENDBRANCH   6  15
ENDBRANCH   1   8
BRANCH   3  20
ATOM     20  N   UNL     1      35.064 -10.836 -24.622  0.00  0.00    -0.344 N 
ATOM     21  H   UNL     1      35.232 -11.653 -25.144  0.00  0.00    +0.144 HD
ATOM     22  H   UNL     1      35.738 -10.118 -24.600  0.00  0.00    +0.144 HD
ENDBRANCH   3  20
BRANCH   4  24
ATOM     23  O   UNL     1      34.662  -7.943 -24.282  0.00  0.00    -0.286 OA
ATOM     24  C   UNL     1      33.614  -8.223 -23.679  0.00  0.00    +0.200 C 
BRANCH  24  25
ATOM     25  C   UNL     1      32.800  -7.138 -23.154  0.00  0.00    +0.040 C 
ATOM     26  C   UNL     1      32.273  -6.180 -24.020  0.00  0.00    +0.013 C 
ATOM     27  C   UNL     1      32.544  -7.057 -21.785  0.00  0.00    +0.003 C 
ATOM     28  C   UNL     1      31.492  -5.140 -23.518  0.00  0.00    +0.069 C 
ATOM     29  C   UNL     1      31.763  -6.017 -21.282  0.00  0.00    +0.001 C 
ATOM     30  C   UNL     1      31.237  -5.057 -22.148  0.00  0.00    +0.010 C 
BRANCH  28  32
ATOM     31  N   UNL     1      30.515  -3.358 -25.124  0.00  0.00    -0.191 NA
ATOM     32  C   UNL     1      30.953  -4.157 -24.403  0.00  0.00    +0.100 C 
ENDBRANCH  28  32
ENDBRANCH  24  25
ENDBRANCH   4  24
TORSDOF 7
ENDMDL
MODEL 7
REMARK VINA RESULT:     -10.7      2.396      9.717
REMARK  Name = 11338127
REMARK  7 active torsions:
REMARK  status: ('A' for Active; 'I' for Inactive)
REMARK    1  A    between atoms: N_1  and  C_8
REMARK    2  A    between atoms: C_3  and  N_20
REMARK    3  A    between atoms: C_4  and  C_24
REMARK    4  A    between atoms: C_6  and  C_15
REMARK    5  A    between atoms: N_14  and  C_17
REMARK    6  A    between atoms: C_24  and  C_25
REMARK    7  A    between atoms: C_28  and  C_32
REMARK                            x       y       z     vdW  Elec       q    Type
REMARK                         _______ _______ _______ _____ _____    ______ ____
ROOT
ATOM      1  N   UNL     1      34.968 -17.768 -21.455  0.00  0.00    -0.177 N 
ATOM      2  N   UNL     1      35.013 -16.706 -20.631  0.00  0.00    -0.171 NA
ATOM      3  C   UNL     1      34.539 -17.470 -22.715  0.00  0.00    +0.122 C 
ATOM      4  C   UNL     1      34.302 -16.145 -22.681  0.00  0.00    +0.088 C 
ATOM      5  C   UNL     1      34.596 -15.703 -21.407  0.00  0.00    +0.124 C 
ENDROOT
BRANCH   1   8
ATOM      6  C   UNL     1      34.730 -21.094 -19.911  0.00  0.00    +0.055 C 
ATOM      7  C   UNL     1      34.376 -19.835 -20.395  0.00  0.00    +0.021 C 
ATOM      8  C   UNL     1      35.344 -19.025 -20.976  0.00  0.00    +0.071 C 
ATOM      9  C   UNL     1      36.050 -21.534 -20.013  0.00  0.00    +0.004 C 
ATOM     10  C   UNL     1      36.660 -19.455 -21.083  0.00  0.00    -0.006 C 
ATOM     11  C   UNL     1      37.015 -20.714 -20.599  0.00  0.00    -0.003 C 
ATOM     12  C   UNL     1      37.718 -18.601 -21.705  0.00  0.00    +0.032 C 
BRANCH   6  15
ATOM     13  O   UNL     1      32.588 -22.097 -19.773  0.00  0.00    -0.270 OA
ATOM     14  N   UNL     1      34.095 -22.586 -18.110  0.00  0.00    -0.302 N 
ATOM     15  C   UNL     1      33.726 -21.949 -19.300  0.00  0.00    +0.246 C 
ATOM     16  H   UNL     1      35.005 -22.447 -17.762  0.00  0.00    +0.150 HD
BRANCH  14  17
ATOM     17  C   UNL     1      33.195 -23.442 -17.370  0.00  0.00    +0.072 C 
ATOM     18  C   UNL     1      33.148 -23.381 -15.884  0.00  0.00    +0.021 C 
ATOM     19  C   UNL     1      31.996 -22.871 -16.697  0.00  0.00    +0.021 C 
ENDBRANCH  14  17
ENDBRANCH   6  15
ENDBRANCH   1   8
BRANCH   3  20
ATOM     20  N   UNL     1      34.430 -18.412 -23.678  0.00  0.00    -0.344 N 
ATOM     21  H   UNL     1      33.713 -18.348 -24.349  0.00  0.00    +0.144 HD
ATOM     22  H   UNL     1      35.068 -19.161 -23.709  0.00  0.00    +0.144 HD
ENDBRANCH   3  20
BRANCH   4  24
ATOM     23  O   UNL     1      33.682 -15.861 -24.942  0.00  0.00    -0.286 OA
ATOM     24  C   UNL     1      33.815 -15.343 -23.822  0.00  0.00    +0.200 C 
BRANCH  24  25
ATOM     25  C   UNL     1      33.493 -13.934 -23.663  0.00  0.00    +0.040 C 
ATOM     26  C   UNL     1      32.611 -13.529 -22.660  0.00  0.00    +0.013 C 
ATOM     27  C   UNL     1      34.066 -12.986 -24.511  0.00  0.00    +0.003 C 
ATOM     28  C   UNL     1      32.303 -12.178 -22.507  0.00  0.00    +0.069 C 
ATOM     29  C   UNL     1      33.758 -11.635 -24.358  0.00  0.00    +0.001 C 
ATOM     30  C   UNL     1      32.875 -11.231 -23.356  0.00  0.00    +0.010 C 
BRANCH  28  32
ATOM     31  N   UNL     1      30.664 -11.425 -20.647  0.00  0.00    -0.191 NA
ATOM     32  C   UNL     1      31.399 -11.763 -21.481  0.00  0.00    +0.100 C 
ENDBRANCH  28  32
ENDBRANCH  24  25
ENDBRANCH   4  24
TORSDOF 7
ENDMDL
MODEL 8
REMARK VINA RESULT:     -10.5      2.664     10.969
REMARK  Name = 11338127
REMARK  7 active torsions:
REMARK  status: ('A' for Active; 'I' for Inactive)
REMARK    1  A    between atoms: N_1  and  C_8
REMARK    2  A    between atoms: C_3  and  N_20
REMARK    3  A    between atoms: C_4  and  C_24
REMARK    4  A    between atoms: C_6  and  C_15
REMARK    5  A    between atoms: N_14  and  C_17
REMARK    6  A    between atoms: C_24  and  C_25
REMARK    7  A    between atoms: C_28  and  C_32
REMARK                            x       y       z     vdW  Elec       q    Type
REMARK                         _______ _______ _______ _____ _____    ______ ____
ROOT
ATOM      1  N   UNL     1      34.128 -11.264 -24.346  0.00  0.00    -0.177 N 
ATOM      2  N   UNL     1      35.174 -10.752 -25.017  0.00  0.00    -0.171 NA
ATOM      3  C   UNL     1      33.390 -10.331 -23.679  0.00  0.00    +0.122 C 
ATOM      4  C   UNL     1      34.008  -9.165 -23.947  0.00  0.00    +0.088 C 
ATOM      5  C   UNL     1      35.088  -9.445 -24.760  0.00  0.00    +0.124 C 
ENDROOT
BRANCH   1   8
ATOM      6  C   UNL     1      33.883 -14.762 -23.248  0.00  0.00    +0.055 C 
ATOM      7  C   UNL     1      34.111 -13.386 -23.231  0.00  0.00    +0.021 C 
ATOM      8  C   UNL     1      33.895 -12.640 -24.384  0.00  0.00    +0.071 C 
ATOM      9  C   UNL     1      33.441 -15.382 -24.417  0.00  0.00    +0.004 C 
ATOM     10  C   UNL     1      33.455 -13.249 -25.553  0.00  0.00    -0.006 C 
ATOM     11  C   UNL     1      33.227 -14.624 -25.570  0.00  0.00    -0.003 C 
ATOM     12  C   UNL     1      33.216 -12.466 -26.804  0.00  0.00    +0.032 C 
BRANCH   6  15
ATOM     13  O   UNL     1      33.703 -15.205 -20.927  0.00  0.00    -0.270 OA
ATOM     14  N   UNL     1      34.840 -16.732 -22.211  0.00  0.00    -0.302 N 
ATOM     15  C   UNL     1      34.106 -15.552 -22.049  0.00  0.00    +0.246 C 
ATOM     16  H   UNL     1      35.145 -16.979 -23.114  0.00  0.00    +0.150 HD
BRANCH  14  17
ATOM     17  C   UNL     1      35.170 -17.607 -21.108  0.00  0.00    +0.072 C 
ATOM     18  C   UNL     1      34.668 -19.008 -21.078  0.00  0.00    +0.021 C 
ATOM     19  C   UNL     1      36.126 -18.732 -21.298  0.00  0.00    +0.021 C 
ENDBRANCH  14  17
ENDBRANCH   6  15
ENDBRANCH   1   8
BRANCH   3  20
ATOM     20  N   UNL     1      32.302 -10.662 -22.950  0.00  0.00    -0.344 N 
ATOM     21  H   UNL     1      32.111 -10.188 -22.108  0.00  0.00    +0.144 HD
ATOM     22  H   UNL     1      31.700 -11.376 -23.260  0.00  0.00    +0.144 HD
ENDBRANCH   3  20
BRANCH   4  24
ATOM     23  O   UNL     1      33.341  -7.679 -22.237  0.00  0.00    -0.286 OA
ATOM     24  C   UNL     1      33.579  -7.844 -23.443  0.00  0.00    +0.200 C 
BRANCH  24  25
ATOM     25  C   UNL     1      33.416  -6.716 -24.347  0.00  0.00    +0.040 C 
ATOM     26  C   UNL     1      32.319  -5.865 -24.208  0.00  0.00    +0.013 C 
ATOM     27  C   UNL     1      34.357  -6.483 -25.350  0.00  0.00    +0.003 C 
ATOM     28  C   UNL     1      32.162  -4.783 -25.073  0.00  0.00    +0.069 C 
ATOM     29  C   UNL     1      34.200  -5.401 -26.215  0.00  0.00    +0.001 C 
ATOM     30  C   UNL     1      33.102  -4.551 -26.078  0.00  0.00    +0.010 C 
BRANCH  28  32
ATOM     31  N   UNL     1      30.124  -3.203 -24.819  0.00  0.00    -0.191 NA
ATOM     32  C   UNL     1      31.038  -3.912 -24.933  0.00  0.00    +0.100 C 
ENDBRANCH  28  32
ENDBRANCH  24  25
ENDBRANCH   4  24
TORSDOF 7
ENDMDL
MODEL 9
REMARK VINA RESULT:     -10.5      2.365      4.195
REMARK  Name = 11338127
REMARK  7 active torsions:
REMARK  status: ('A' for Active; 'I' for Inactive)
REMARK    1  A    between atoms: N_1  and  C_8
REMARK    2  A    between atoms: C_3  and  N_20
REMARK    3  A    between atoms: C_4  and  C_24
REMARK    4  A    between atoms: C_6  and  C_15
REMARK    5  A    between atoms: N_14  and  C_17
REMARK    6  A    between atoms: C_24  and  C_25
REMARK    7  A    between atoms: C_28  and  C_32
REMARK                            x       y       z     vdW  Elec       q    Type
REMARK                         _______ _______ _______ _____ _____    ______ ____
ROOT
ATOM      1  N   UNL     1      34.630 -18.826 -21.845  0.00  0.00    -0.177 N 
ATOM      2  N   UNL     1      33.534 -19.399 -21.318  0.00  0.00    -0.171 NA
ATOM      3  C   UNL     1      35.801 -19.341 -21.374  0.00  0.00    +0.122 C 
ATOM      4  C   UNL     1      35.420 -20.293 -20.502  0.00  0.00    +0.088 C 
ATOM      5  C   UNL     1      34.040 -20.310 -20.484  0.00  0.00    +0.124 C 
ENDROOT
BRANCH   1   8
ATOM      6  C   UNL     1      34.136 -15.466 -23.248  0.00  0.00    +0.055 C 
ATOM      7  C   UNL     1      34.282 -16.504 -22.328  0.00  0.00    +0.021 C 
ATOM      8  C   UNL     1      34.485 -17.801 -22.783  0.00  0.00    +0.071 C 
ATOM      9  C   UNL     1      34.196 -15.734 -24.616  0.00  0.00    +0.004 C 
ATOM     10  C   UNL     1      34.547 -18.077 -24.143  0.00  0.00    -0.006 C 
ATOM     11  C   UNL     1      34.402 -17.039 -25.063  0.00  0.00    -0.003 C 
ATOM     12  C   UNL     1      34.766 -19.465 -24.654  0.00  0.00    +0.032 C 
BRANCH   6  15
ATOM     13  O   UNL     1      33.617 -13.833 -21.612  0.00  0.00    -0.270 OA
ATOM     14  N   UNL     1      34.043 -13.096 -23.745  0.00  0.00    -0.302 N 
ATOM     15  C   UNL     1      33.921 -14.106 -22.784  0.00  0.00    +0.246 C 
ATOM     16  H   UNL     1      34.286 -13.346 -24.666  0.00  0.00    +0.150 HD
BRANCH  14  17
ATOM     17  C   UNL     1      33.828 -11.698 -23.442  0.00  0.00    +0.072 C 
ATOM     18  C   UNL     1      34.524 -10.641 -24.224  0.00  0.00    +0.021 C 
ATOM     19  C   UNL     1      33.045 -10.839 -24.373  0.00  0.00    +0.021 C 
ENDBRANCH  14  17
ENDBRANCH   6  15
ENDBRANCH   1   8
BRANCH   3  20
ATOM     20  N   UNL     1      37.004 -18.888 -21.790  0.00  0.00    -0.344 N 
ATOM     21  H   UNL     1      37.442 -19.298 -22.571  0.00  0.00    +0.144 HD
ATOM     22  H   UNL     1      37.443 -18.146 -21.314  0.00  0.00    +0.144 HD
ENDBRANCH   3  20
BRANCH   4  24
ATOM     23  O   UNL     1      37.489 -21.371 -20.135  0.00  0.00    -0.286 OA
ATOM     24  C   UNL     1      36.341 -21.145 -19.722  0.00  0.00    +0.200 C 
BRANCH  24  25
ATOM     25  C   UNL     1      35.921 -21.746 -18.465  0.00  0.00    +0.040 C 
ATOM     26  C   UNL     1      34.613 -22.209 -18.316  0.00  0.00    +0.013 C 
ATOM     27  C   UNL     1      36.826 -21.861 -17.410  0.00  0.00    +0.003 C 
ATOM     28  C   UNL     1      34.211 -22.785 -17.112  0.00  0.00    +0.069 C 
ATOM     29  C   UNL     1      36.424 -22.437 -16.206  0.00  0.00    +0.001 C 
ATOM     30  C   UNL     1      35.116 -22.899 -16.056  0.00  0.00    +0.010 C 
BRANCH  28  32
ATOM     31  N   UNL     1      31.783 -23.643 -16.832  0.00  0.00    -0.191 NA
ATOM     32  C   UNL     1      32.872 -23.259 -16.958  0.00  0.00    +0.100 C 
ENDBRANCH  28  32
ENDBRANCH  24  25
ENDBRANCH   4  24
TORSDOF 7
ENDMDL
