MODEL 1
REMARK VINA RESULT:      -8.5      0.000      0.000
REMARK  Name = 54477
REMARK  6 active torsions:
REMARK  status: ('A' for Active; 'I' for Inactive)
REMARK    1  A    between atoms: N_2  and  C_16
REMARK    2  A    between atoms: C_3  and  C_6
REMARK    3  A    between atoms: C_7  and  O_12
REMARK    4  A    between atoms: C_8  and  O_14
REMARK    5  A    between atoms: C_16  and  C_18
REMARK    6  A    between atoms: N_17  and  C_23
REMARK                            x       y       z     vdW  Elec       q    Type
REMARK                         _______ _______ _______ _____ _____    ______ ____
ROOT
ATOM      1  O   UNL     1      33.798 -11.973 -23.934  0.00  0.00    -0.270 OA
ATOM      2  N   UNL     1      31.941 -12.853 -22.857  0.00  0.00    -0.303 N 
ATOM      3  C   UNL     1      33.133 -12.940 -23.575  0.00  0.00    +0.252 C 
ATOM      4  H   UNL     1      31.477 -13.686 -22.614  0.00  0.00    +0.150 HD
ENDROOT
BRANCH   3   6
ATOM      5 BR   UNL     1      35.604 -17.443 -22.088  0.00  0.00    -0.046 Br
ATOM      6  C   UNL     1      33.586 -14.308 -23.933  0.00  0.00    +0.122 C 
ATOM      7  C   UNL     1      34.255 -15.064 -22.991  0.00  0.00    +0.152 C 
ATOM      8  C   UNL     1      33.326 -14.786 -25.203  0.00  0.00    +0.146 C 
ATOM      9  C   UNL     1      34.680 -16.349 -23.332  0.00  0.00    +0.069 C 
ATOM     10  C   UNL     1      33.750 -16.070 -25.544  0.00  0.00    +0.038 C 
ATOM     11  C   UNL     1      34.428 -16.852 -24.608  0.00  0.00    +0.013 C 
BRANCH   7  12
ATOM     12  O   UNL     1      34.498 -14.564 -21.744  0.00  0.00    -0.471 OA
ATOM     13  C   UNL     1      33.620 -14.977 -20.701  0.00  0.00    +0.252 C 
ENDBRANCH   7  12
BRANCH   8  14
ATOM     14  O   UNL     1      32.665 -14.040 -26.134  0.00  0.00    -0.471 OA
ATOM     15  C   UNL     1      33.443 -13.500 -27.200  0.00  0.00    +0.252 C 
ENDBRANCH   8  14
ENDBRANCH   3   6
BRANCH   2  16
ATOM     16  C   UNL     1      31.362 -11.604 -22.460  0.00  0.00    +0.069 C 
BRANCH  16  18
ATOM     17  N   UNL     1      31.673  -9.678 -20.896  0.00  0.00    +0.389 N 
ATOM     18  C   UNL     1      32.014 -11.076 -21.188  0.00  0.00    -0.038 C 
ATOM     19  C   UNL     1      31.511 -11.813 -19.945  0.00  0.00    -0.021 C 
ATOM     20  C   UNL     1      31.507 -10.770 -18.832  0.00  0.00    -0.025 C 
ATOM     21  C   UNL     1      32.014  -9.494 -19.482  0.00  0.00    -0.077 C 
ATOM     22  H   UNL     1      30.688  -9.499 -21.087  0.00  0.00    -0.080 HD
BRANCH  17  23
ATOM     23  C   UNL     1      32.377  -8.722 -21.742  0.00  0.00    -0.077 C 
ATOM     24  C   UNL     1      32.825  -7.508 -20.956  0.00  0.00    -0.025 C 
ENDBRANCH  17  23
ENDBRANCH  16  18
ENDBRANCH   2  16
TORSDOF 6
ENDMDL
MODEL 2
REMARK VINA RESULT:      -8.3      8.781     11.630
REMARK  Name = 54477
REMARK  6 active torsions:
REMARK  status: ('A' for Active; 'I' for Inactive)
REMARK    1  A    between atoms: N_2  and  C_16
REMARK    2  A    between atoms: C_3  and  C_6
REMARK    3  A    between atoms: C_7  and  O_12
REMARK    4  A    between atoms: C_8  and  O_14
REMARK    5  A    between atoms: C_16  and  C_18
REMARK    6  A    between atoms: N_17  and  C_23
REMARK                            x       y       z     vdW  Elec       q    Type
REMARK                         _______ _______ _______ _____ _____    ______ ____
ROOT
ATOM      1  O   UNL     1      33.766 -23.926 -18.648  0.00  0.00    -0.270 OA
ATOM      2  N   UNL     1      32.803 -21.816 -18.586  0.00  0.00    -0.303 N 
ATOM      3  C   UNL     1      33.195 -23.033 -18.031  0.00  0.00    +0.252 C 
ATOM      4  H   UNL     1      32.349 -21.160 -18.011  0.00  0.00    +0.150 HD
ENDROOT
BRANCH   3   6
ATOM      5 BR   UNL     1      34.868 -24.287 -13.109  0.00  0.00    -0.046 Br
ATOM      6  C   UNL     1      32.860 -23.239 -16.598  0.00  0.00    +0.122 C 
ATOM      7  C   UNL     1      33.862 -23.599 -15.718  0.00  0.00    +0.152 C 
ATOM      8  C   UNL     1      31.553 -23.064 -16.187  0.00  0.00    +0.146 C 
ATOM      9  C   UNL     1      33.543 -23.792 -14.373  0.00  0.00    +0.069 C 
ATOM     10  C   UNL     1      31.234 -23.257 -14.842  0.00  0.00    +0.038 C 
ATOM     11  C   UNL     1      32.231 -23.621 -13.935  0.00  0.00    +0.013 C 
BRANCH   7  12
ATOM     12  O   UNL     1      35.144 -23.764 -16.156  0.00  0.00    -0.471 OA
ATOM     13  C   UNL     1      36.052 -22.693 -15.912  0.00  0.00    +0.252 C 
ENDBRANCH   7  12
BRANCH   8  14
ATOM     14  O   UNL     1      30.564 -22.709 -17.055  0.00  0.00    -0.471 OA
ATOM     15  C   UNL     1      29.225 -22.765 -16.568  0.00  0.00    +0.252 C 
ENDBRANCH   8  14
ENDBRANCH   3   6
BRANCH   2  16
ATOM     16  C   UNL     1      33.033 -21.480 -19.961  0.00  0.00    +0.069 C 
BRANCH  16  18
ATOM     17  N   UNL     1      35.263 -20.768 -20.840  0.00  0.00    +0.389 N 
ATOM     18  C   UNL     1      34.065 -20.368 -20.089  0.00  0.00    -0.038 C 
ATOM     19  C   UNL     1      33.532 -19.190 -20.908  0.00  0.00    -0.021 C 
ATOM     20  C   UNL     1      34.743 -18.635 -21.651  0.00  0.00    -0.025 C 
ATOM     21  C   UNL     1      35.908 -19.508 -21.220  0.00  0.00    -0.077 C 
ATOM     22  H   UNL     1      35.010 -21.337 -21.647  0.00  0.00    -0.080 HD
BRANCH  17  23
ATOM     23  C   UNL     1      36.166 -21.620 -20.075  0.00  0.00    -0.077 C 
ATOM     24  C   UNL     1      36.719 -20.898 -18.865  0.00  0.00    -0.025 C 
ENDBRANCH  17  23
ENDBRANCH  16  18
ENDBRANCH   2  16
TORSDOF 6
ENDMDL
MODEL 3
REMARK VINA RESULT:      -8.1      1.741      2.511
REMARK  Name = 54477
REMARK  6 active torsions:
REMARK  status: ('A' for Active; 'I' for Inactive)
REMARK    1  A    between atoms: N_2  and  C_16
REMARK    2  A    between atoms: C_3  and  C_6
REMARK    3  A    between atoms: C_7  and  O_12
REMARK    4  A    between atoms: C_8  and  O_14
REMARK    5  A    between atoms: C_16  and  C_18
REMARK    6  A    between atoms: N_17  and  C_23
REMARK                            x       y       z     vdW  Elec       q    Type
REMARK                         _______ _______ _______ _____ _____    ______ ____
ROOT
ATOM      1  O   UNL     1      31.830 -13.986 -21.975  0.00  0.00    -0.270 OA
ATOM      2  N   UNL     1      33.016 -12.477 -23.279  0.00  0.00    -0.303 N 
ATOM      3  C   UNL     1      32.661 -13.754 -22.847  0.00  0.00    +0.252 C 
ATOM      4  H   UNL     1      33.695 -12.390 -23.986  0.00  0.00    +0.150 HD
ENDROOT
BRANCH   3   6
ATOM      5 BR   UNL     1      35.551 -18.217 -22.277  0.00  0.00    -0.046 Br
ATOM      6  C   UNL     1      33.375 -14.887 -23.491  0.00  0.00    +0.122 C 
ATOM      7  C   UNL     1      34.001 -15.828 -22.697  0.00  0.00    +0.152 C 
ATOM      8  C   UNL     1      33.392 -14.966 -24.871  0.00  0.00    +0.146 C 
ATOM      9  C   UNL     1      34.670 -16.890 -23.306  0.00  0.00    +0.069 C 
ATOM     10  C   UNL     1      34.061 -16.029 -25.480  0.00  0.00    +0.038 C 
ATOM     11  C   UNL     1      34.700 -16.991 -24.696  0.00  0.00    +0.013 C 
BRANCH   7  12
ATOM     12  O   UNL     1      33.965 -15.721 -21.337  0.00  0.00    -0.471 OA
ATOM     13  C   UNL     1      34.892 -14.820 -20.736  0.00  0.00    +0.252 C 
ENDBRANCH   7  12
BRANCH   8  14
ATOM     14  O   UNL     1      32.775 -14.038 -25.656  0.00  0.00    -0.471 OA
ATOM     15  C   UNL     1      33.336 -13.805 -26.945  0.00  0.00    +0.252 C 
ENDBRANCH   8  14
ENDBRANCH   3   6
BRANCH   2  16
ATOM     16  C   UNL     1      32.435 -11.285 -22.735  0.00  0.00    +0.069 C 
BRANCH  16  18
ATOM     17  N   UNL     1      33.016  -8.853 -22.692  0.00  0.00    +0.389 N 
ATOM     18  C   UNL     1      32.868 -10.055 -23.523  0.00  0.00    -0.038 C 
ATOM     19  C   UNL     1      34.266 -10.227 -24.121  0.00  0.00    -0.021 C 
ATOM     20  C   UNL     1      34.888  -8.834 -24.098  0.00  0.00    -0.025 C 
ATOM     21  C   UNL     1      33.821  -7.933 -23.500  0.00  0.00    -0.077 C 
ATOM     22  H   UNL     1      33.458  -9.082 -21.802  0.00  0.00    -0.080 HD
BRANCH  17  23
ATOM     23  C   UNL     1      31.743  -8.254 -22.310  0.00  0.00    -0.077 C 
ATOM     24  C   UNL     1      30.973  -7.770 -23.521  0.00  0.00    -0.025 C 
ENDBRANCH  17  23
ENDBRANCH  16  18
ENDBRANCH   2  16
TORSDOF 6
ENDMDL
MODEL 4
REMARK VINA RESULT:      -8.0      8.507     11.383
REMARK  Name = 54477
REMARK  6 active torsions:
REMARK  status: ('A' for Active; 'I' for Inactive)
REMARK    1  A    between atoms: N_2  and  C_16
REMARK    2  A    between atoms: C_3  and  C_6
REMARK    3  A    between atoms: C_7  and  O_12
REMARK    4  A    between atoms: C_8  and  O_14
REMARK    5  A    between atoms: C_16  and  C_18
REMARK    6  A    between atoms: N_17  and  C_23
REMARK                            x       y       z     vdW  Elec       q    Type
REMARK                         _______ _______ _______ _____ _____    ______ ____
ROOT
ATOM      1  O   UNL     1      33.774 -23.877 -19.082  0.00  0.00    -0.270 OA
ATOM      2  N   UNL     1      33.604 -21.599 -18.674  0.00  0.00    -0.303 N 
ATOM      3  C   UNL     1      33.762 -22.932 -18.299  0.00  0.00    +0.252 C 
ATOM      4  H   UNL     1      33.607 -20.909 -17.973  0.00  0.00    +0.150 HD
ENDROOT
BRANCH   3   6
ATOM      5 BR   UNL     1      31.430 -24.316 -13.690  0.00  0.00    -0.046 Br
ATOM      6  C   UNL     1      33.900 -23.193 -16.843  0.00  0.00    +0.122 C 
ATOM      7  C   UNL     1      32.785 -23.562 -16.117  0.00  0.00    +0.152 C 
ATOM      8  C   UNL     1      35.144 -23.058 -16.256  0.00  0.00    +0.146 C 
ATOM      9  C   UNL     1      32.919 -23.806 -14.749  0.00  0.00    +0.069 C 
ATOM     10  C   UNL     1      35.277 -23.302 -14.889  0.00  0.00    +0.038 C 
ATOM     11  C   UNL     1      34.164 -23.676 -14.136  0.00  0.00    +0.013 C 
BRANCH   7  12
ATOM     12  O   UNL     1      31.570 -23.686 -16.726  0.00  0.00    -0.471 OA
ATOM     13  C   UNL     1      30.623 -22.647 -16.496  0.00  0.00    +0.252 C 
ENDBRANCH   7  12
BRANCH   8  14
ATOM     14  O   UNL     1      36.245 -22.694 -16.972  0.00  0.00    -0.471 OA
ATOM     15  C   UNL     1      37.188 -21.845 -16.322  0.00  0.00    +0.252 C 
ENDBRANCH   8  14
ENDBRANCH   3   6
BRANCH   2  16
ATOM     16  C   UNL     1      33.434 -21.191 -20.037  0.00  0.00    +0.069 C 
BRANCH  16  18
ATOM     17  N   UNL     1      34.954 -19.301 -20.645  0.00  0.00    +0.389 N 
ATOM     18  C   UNL     1      34.759 -20.757 -20.650  0.00  0.00    -0.038 C 
ATOM     19  C   UNL     1      35.953 -21.259 -19.834  0.00  0.00    -0.021 C 
ATOM     20  C   UNL     1      37.018 -20.175 -19.968  0.00  0.00    -0.025 C 
ATOM     21  C   UNL     1      36.392 -19.111 -20.855  0.00  0.00    -0.077 C 
ATOM     22  H   UNL     1      34.630 -18.896 -19.767  0.00  0.00    -0.080 HD
BRANCH  17  23
ATOM     23  C   UNL     1      34.171 -18.610 -21.663  0.00  0.00    -0.077 C 
ATOM     24  C   UNL     1      34.629 -18.976 -23.059  0.00  0.00    -0.025 C 
ENDBRANCH  17  23
ENDBRANCH  16  18
ENDBRANCH   2  16
TORSDOF 6
ENDMDL
MODEL 5
REMARK VINA RESULT:      -8.0      2.975      6.589
REMARK  Name = 54477
REMARK  6 active torsions:
REMARK  status: ('A' for Active; 'I' for Inactive)
REMARK    1  A    between atoms: N_2  and  C_16
REMARK    2  A    between atoms: C_3  and  C_6
REMARK    3  A    between atoms: C_7  and  O_12
REMARK    4  A    between atoms: C_8  and  O_14
REMARK    5  A    between atoms: C_16  and  C_18
REMARK    6  A    between atoms: N_17  and  C_23
REMARK                            x       y       z     vdW  Elec       q    Type
REMARK                         _______ _______ _______ _____ _____    ______ ____
ROOT
ATOM      1  O   UNL     1      33.130 -14.154 -25.333  0.00  0.00    -0.270 OA
ATOM      2  N   UNL     1      34.521 -14.506 -23.509  0.00  0.00    -0.303 N 
ATOM      3  C   UNL     1      33.596 -13.783 -24.260  0.00  0.00    +0.252 C 
ATOM      4  H   UNL     1      34.838 -14.125 -22.659  0.00  0.00    +0.150 HD
ENDROOT
BRANCH   3   6
ATOM      5 BR   UNL     1      30.909 -11.069 -20.516  0.00  0.00    -0.046 Br
ATOM      6  C   UNL     1      33.184 -12.468 -23.705  0.00  0.00    +0.122 C 
ATOM      7  C   UNL     1      32.387 -12.431 -22.578  0.00  0.00    +0.152 C 
ATOM      8  C   UNL     1      33.611 -11.315 -24.336  0.00  0.00    +0.146 C 
ATOM      9  C   UNL     1      32.003 -11.194 -22.060  0.00  0.00    +0.069 C 
ATOM     10  C   UNL     1      33.227 -10.077 -23.818  0.00  0.00    +0.038 C 
ATOM     11  C   UNL     1      32.422 -10.017 -22.680  0.00  0.00    +0.013 C 
BRANCH   7  12
ATOM     12  O   UNL     1      31.981 -13.588 -21.978  0.00  0.00    -0.471 OA
ATOM     13  C   UNL     1      32.661 -13.969 -20.784  0.00  0.00    +0.252 C 
ENDBRANCH   7  12
BRANCH   8  14
ATOM     14  O   UNL     1      34.398 -11.349 -25.449  0.00  0.00    -0.471 OA
ATOM     15  C   UNL     1      35.381 -10.324 -25.578  0.00  0.00    +0.252 C 
ENDBRANCH   8  14
ENDBRANCH   3   6
BRANCH   2  16
ATOM     16  C   UNL     1      35.033 -15.778 -23.925  0.00  0.00    +0.069 C 
BRANCH  16  18
ATOM     17  N   UNL     1      34.957 -18.233 -23.455  0.00  0.00    +0.389 N 
ATOM     18  C   UNL     1      34.458 -16.905 -23.075  0.00  0.00    -0.038 C 
ATOM     19  C   UNL     1      34.890 -16.788 -21.611  0.00  0.00    -0.021 C 
ATOM     20  C   UNL     1      35.022 -18.225 -21.114  0.00  0.00    -0.025 C 
ATOM     21  C   UNL     1      34.654 -19.092 -22.306  0.00  0.00    -0.077 C 
ATOM     22  H   UNL     1      35.953 -18.199 -23.665  0.00  0.00    -0.080 HD
BRANCH  17  23
ATOM     23  C   UNL     1      34.354 -18.748 -24.678  0.00  0.00    -0.077 C 
ATOM     24  C   UNL     1      34.896 -20.117 -25.031  0.00  0.00    -0.025 C 
ENDBRANCH  17  23
ENDBRANCH  16  18
ENDBRANCH   2  16
TORSDOF 6
ENDMDL
MODEL 6
REMARK VINA RESULT:      -7.9      4.398      7.503
REMARK  Name = 54477
REMARK  6 active torsions:
REMARK  status: ('A' for Active; 'I' for Inactive)
REMARK    1  A    between atoms: N_2  and  C_16
REMARK    2  A    between atoms: C_3  and  C_6
REMARK    3  A    between atoms: C_7  and  O_12
REMARK    4  A    between atoms: C_8  and  O_14
REMARK    5  A    between atoms: C_16  and  C_18
REMARK    6  A    between atoms: N_17  and  C_23
REMARK                            x       y       z     vdW  Elec       q    Type
REMARK                         _______ _______ _______ _____ _____    ______ ____
ROOT
ATOM      1  O   UNL     1      35.281 -16.202 -20.355  0.00  0.00    -0.270 OA
ATOM      2  N   UNL     1      35.187 -17.912 -21.920  0.00  0.00    -0.303 N 
ATOM      3  C   UNL     1      34.962 -16.614 -21.466  0.00  0.00    +0.252 C 
ATOM      4  H   UNL     1      34.895 -18.150 -22.830  0.00  0.00    +0.150 HD
ENDROOT
BRANCH   3   6
ATOM      5 BR   UNL     1      31.824 -12.341 -22.167  0.00  0.00    -0.046 Br
ATOM      6  C   UNL     1      34.267 -15.699 -22.408  0.00  0.00    +0.122 C 
ATOM      7  C   UNL     1      33.519 -14.653 -21.903  0.00  0.00    +0.152 C 
ATOM      8  C   UNL     1      34.387 -15.922 -23.766  0.00  0.00    +0.146 C 
ATOM      9  C   UNL     1      32.867 -13.796 -22.790  0.00  0.00    +0.069 C 
ATOM     10  C   UNL     1      33.736 -15.065 -24.654  0.00  0.00    +0.038 C 
ATOM     11  C   UNL     1      32.975 -14.002 -24.165  0.00  0.00    +0.013 C 
BRANCH   7  12
ATOM     12  O   UNL     1      33.419 -14.460 -20.555  0.00  0.00    -0.471 OA
ATOM     13  C   UNL     1      32.280 -15.018 -19.905  0.00  0.00    +0.252 C 
ENDBRANCH   7  12
BRANCH   8  14
ATOM     14  O   UNL     1      35.125 -16.954 -24.266  0.00  0.00    -0.471 OA
ATOM     15  C   UNL     1      34.503 -17.776 -25.251  0.00  0.00    +0.252 C 
ENDBRANCH   8  14
ENDBRANCH   3   6
BRANCH   2  16
ATOM     16  C   UNL     1      35.823 -18.916 -21.119  0.00  0.00    +0.069 C 
BRANCH  16  18
ATOM     17  N   UNL     1      35.053 -20.755 -19.611  0.00  0.00    +0.389 N 
ATOM     18  C   UNL     1      34.915 -20.124 -20.930  0.00  0.00    -0.038 C 
ATOM     19  C   UNL     1      33.436 -19.733 -20.964  0.00  0.00    -0.021 C 
ATOM     20  C   UNL     1      32.744 -20.687 -19.995  0.00  0.00    -0.025 C 
ATOM     21  C   UNL     1      33.851 -21.580 -19.460  0.00  0.00    -0.077 C 
ATOM     22  H   UNL     1      35.137 -20.050 -18.880  0.00  0.00    -0.080 HD
BRANCH  17  23
ATOM     23  C   UNL     1      36.266 -21.551 -19.475  0.00  0.00    -0.077 C 
ATOM     24  C   UNL     1      36.727 -21.620 -18.034  0.00  0.00    -0.025 C 
ENDBRANCH  17  23
ENDBRANCH  16  18
ENDBRANCH   2  16
TORSDOF 6
ENDMDL
MODEL 7
REMARK VINA RESULT:      -7.9      2.992      6.927
REMARK  Name = 54477
REMARK  6 active torsions:
REMARK  status: ('A' for Active; 'I' for Inactive)
REMARK    1  A    between atoms: N_2  and  C_16
REMARK    2  A    between atoms: C_3  and  C_6
REMARK    3  A    between atoms: C_7  and  O_12
REMARK    4  A    between atoms: C_8  and  O_14
REMARK    5  A    between atoms: C_16  and  C_18
REMARK    6  A    between atoms: N_17  and  C_23
REMARK                            x       y       z     vdW  Elec       q    Type
REMARK                         _______ _______ _______ _____ _____    ______ ____
ROOT
ATOM      1  O   UNL     1      31.930 -15.282 -21.380  0.00  0.00    -0.270 OA
ATOM      2  N   UNL     1      34.240 -15.108 -21.246  0.00  0.00    -0.303 N 
ATOM      3  C   UNL     1      32.965 -14.650 -21.571  0.00  0.00    +0.252 C 
ATOM      4  H   UNL     1      35.012 -14.529 -21.437  0.00  0.00    +0.150 HD
ENDROOT
BRANCH   3   6
ATOM      5 BR   UNL     1      34.101 -11.562 -25.786  0.00  0.00    -0.046 Br
ATOM      6  C   UNL     1      32.891 -13.312 -22.212  0.00  0.00    +0.122 C 
ATOM      7  C   UNL     1      33.440 -13.135 -23.467  0.00  0.00    +0.152 C 
ATOM      8  C   UNL     1      32.274 -12.279 -21.531  0.00  0.00    +0.146 C 
ATOM      9  C   UNL     1      33.369 -11.876 -24.066  0.00  0.00    +0.069 C 
ATOM     10  C   UNL     1      32.203 -11.021 -22.130  0.00  0.00    +0.038 C 
ATOM     11  C   UNL     1      32.751 -10.820 -23.398  0.00  0.00    +0.013 C 
BRANCH   7  12
ATOM     12  O   UNL     1      34.043 -14.175 -24.113  0.00  0.00    -0.471 OA
ATOM     13  C   UNL     1      33.288 -14.828 -25.131  0.00  0.00    +0.252 C 
ENDBRANCH   7  12
BRANCH   8  14
ATOM     14  O   UNL     1      31.732 -12.453 -20.293  0.00  0.00    -0.471 OA
ATOM     15  C   UNL     1      31.527 -11.281 -19.507  0.00  0.00    +0.252 C 
ENDBRANCH   8  14
ENDBRANCH   3   6
BRANCH   2  16
ATOM     16  C   UNL     1      34.475 -16.388 -20.646  0.00  0.00    +0.069 C 
BRANCH  16  18
ATOM     17  N   UNL     1      34.308 -18.526 -21.933  0.00  0.00    +0.389 N 
ATOM     18  C   UNL     1      35.129 -17.346 -21.634  0.00  0.00    -0.038 C 
ATOM     19  C   UNL     1      35.311 -16.704 -23.011  0.00  0.00    -0.021 C 
ATOM     20  C   UNL     1      35.136 -17.841 -24.012  0.00  0.00    -0.025 C 
ATOM     21  C   UNL     1      34.873 -19.077 -23.168  0.00  0.00    -0.077 C 
ATOM     22  H   UNL     1      33.327 -18.267 -22.033  0.00  0.00    -0.080 HD
BRANCH  17  23
ATOM     23  C   UNL     1      34.305 -19.515 -20.861  0.00  0.00    -0.077 C 
ATOM     24  C   UNL     1      32.910 -20.035 -20.589  0.00  0.00    -0.025 C 
ENDBRANCH  17  23
ENDBRANCH  16  18
ENDBRANCH   2  16
TORSDOF 6
ENDMDL
MODEL 8
REMARK VINA RESULT:      -7.8      8.544     11.365
REMARK  Name = 54477
REMARK  6 active torsions:
REMARK  status: ('A' for Active; 'I' for Inactive)
REMARK    1  A    between atoms: N_2  and  C_16
REMARK    2  A    between atoms: C_3  and  C_6
REMARK    3  A    between atoms: C_7  and  O_12
REMARK    4  A    between atoms: C_8  and  O_14
REMARK    5  A    between atoms: C_16  and  C_18
REMARK    6  A    between atoms: N_17  and  C_23
REMARK                            x       y       z     vdW  Elec       q    Type
REMARK                         _______ _______ _______ _____ _____    ______ ____
ROOT
ATOM      1  O   UNL     1      33.625 -23.892 -18.992  0.00  0.00    -0.270 OA
ATOM      2  N   UNL     1      33.185 -21.628 -18.736  0.00  0.00    -0.303 N 
ATOM      3  C   UNL     1      33.351 -22.933 -18.276  0.00  0.00    +0.252 C 
ATOM      4  H   UNL     1      32.965 -20.924 -18.085  0.00  0.00    +0.150 HD
ENDROOT
BRANCH   3   6
ATOM      5 BR   UNL     1      35.501 -24.086 -13.518  0.00  0.00    -0.046 Br
ATOM      6  C   UNL     1      33.152 -23.147 -16.820  0.00  0.00    +0.122 C 
ATOM      7  C   UNL     1      34.241 -23.457 -16.029  0.00  0.00    +0.152 C 
ATOM      8  C   UNL     1      31.879 -23.030 -16.296  0.00  0.00    +0.146 C 
ATOM      9  C   UNL     1      34.050 -23.657 -14.662  0.00  0.00    +0.069 C 
ATOM     10  C   UNL     1      31.688 -23.230 -14.928  0.00  0.00    +0.038 C 
ATOM     11  C   UNL     1      32.774 -23.544 -14.112  0.00  0.00    +0.013 C 
BRANCH   7  12
ATOM     12  O   UNL     1      35.487 -23.566 -16.577  0.00  0.00    -0.471 OA
ATOM     13  C   UNL     1      36.417 -22.528 -16.278  0.00  0.00    +0.252 C 
ENDBRANCH   7  12
BRANCH   8  14
ATOM     14  O   UNL     1      30.803 -22.724 -17.075  0.00  0.00    -0.471 OA
ATOM     15  C   UNL     1      29.517 -22.810 -16.465  0.00  0.00    +0.252 C 
ENDBRANCH   8  14
ENDBRANCH   3   6
BRANCH   2  16
ATOM     16  C   UNL     1      33.319 -21.269 -20.117  0.00  0.00    +0.069 C 
BRANCH  16  18
ATOM     17  N   UNL     1      35.050 -19.553 -20.677  0.00  0.00    +0.389 N 
ATOM     18  C   UNL     1      34.772 -20.980 -20.471  0.00  0.00    -0.038 C 
ATOM     19  C   UNL     1      35.718 -21.346 -19.325  0.00  0.00    -0.021 C 
ATOM     20  C   UNL     1      36.850 -20.325 -19.396  0.00  0.00    -0.025 C 
ATOM     21  C   UNL     1      36.507 -19.433 -20.577  0.00  0.00    -0.077 C 
ATOM     22  H   UNL     1      34.562 -18.986 -19.984  0.00  0.00    -0.080 HD
BRANCH  17  23
ATOM     23  C   UNL     1      34.560 -19.048 -21.954  0.00  0.00    -0.077 C 
ATOM     24  C   UNL     1      35.683 -18.472 -22.791  0.00  0.00    -0.025 C 
ENDBRANCH  17  23
ENDBRANCH  16  18
ENDBRANCH   2  16
TORSDOF 6
ENDMDL
MODEL 9
REMARK VINA RESULT:      -7.8      8.803     11.639
REMARK  Name = 54477
REMARK  6 active torsions:
REMARK  status: ('A' for Active; 'I' for Inactive)
REMARK    1  A    between atoms: N_2  and  C_16
REMARK    2  A    between atoms: C_3  and  C_6
REMARK    3  A    between atoms: C_7  and  O_12
REMARK    4  A    between atoms: C_8  and  O_14
REMARK    5  A    between atoms: C_16  and  C_18
REMARK    6  A    between atoms: N_17  and  C_23
REMARK                            x       y       z     vdW  Elec       q    Type
REMARK                         _______ _______ _______ _____ _____    ______ ____
ROOT
ATOM      1  O   UNL     1      33.852 -23.682 -19.430  0.00  0.00    -0.270 OA
ATOM      2  N   UNL     1      33.100 -22.186 -17.825  0.00  0.00    -0.303 N 
ATOM      3  C   UNL     1      33.903 -22.580 -18.893  0.00  0.00    +0.252 C 
ATOM      4  H   UNL     1      33.214 -21.279 -17.459  0.00  0.00    +0.150 HD
ENDROOT
BRANCH   3   6
ATOM      5 BR   UNL     1      35.037 -18.526 -22.191  0.00  0.00    -0.046 Br
ATOM      6  C   UNL     1      34.894 -21.583 -19.373  0.00  0.00    +0.122 C 
ATOM      7  C   UNL     1      34.532 -20.701 -20.373  0.00  0.00    +0.152 C 
ATOM      8  C   UNL     1      36.154 -21.567 -18.805  0.00  0.00    +0.146 C 
ATOM      9  C   UNL     1      35.466 -19.766 -20.822  0.00  0.00    +0.069 C 
ATOM     10  C   UNL     1      37.087 -20.632 -19.254  0.00  0.00    +0.038 C 
ATOM     11  C   UNL     1      36.743 -19.732 -20.263  0.00  0.00    +0.013 C 
BRANCH   7  12
ATOM     12  O   UNL     1      33.280 -20.743 -20.914  0.00  0.00    -0.471 OA
ATOM     13  C   UNL     1      32.359 -19.742 -20.488  0.00  0.00    +0.252 C 
ENDBRANCH   7  12
BRANCH   8  14
ATOM     14  O   UNL     1      36.512 -22.437 -17.819  0.00  0.00    -0.471 OA
ATOM     15  C   UNL     1      37.169 -21.887 -16.679  0.00  0.00    +0.252 C 
ENDBRANCH   8  14
ENDBRANCH   3   6
BRANCH   2  16
ATOM     16  C   UNL     1      32.116 -23.044 -17.235  0.00  0.00    +0.069 C 
BRANCH  16  18
ATOM     17  N   UNL     1      31.499 -24.187 -15.097  0.00  0.00    +0.389 N 
ATOM     18  C   UNL     1      32.285 -23.115 -15.722  0.00  0.00    -0.038 C 
ATOM     19  C   UNL     1      33.719 -23.474 -15.327  0.00  0.00    -0.021 C 
ATOM     20  C   UNL     1      33.591 -24.302 -14.053  0.00  0.00    -0.025 C 
ATOM     21  C   UNL     1      32.099 -24.372 -13.773  0.00  0.00    -0.077 C 
ATOM     22  H   UNL     1      31.530 -25.034 -15.663  0.00  0.00    -0.080 HD
BRANCH  17  23
ATOM     23  C   UNL     1      30.077 -23.879 -15.000  0.00  0.00    -0.077 C 
ATOM     24  C   UNL     1      29.256 -25.124 -14.737  0.00  0.00    -0.025 C 
ENDBRANCH  17  23
ENDBRANCH  16  18
ENDBRANCH   2  16
TORSDOF 6
ENDMDL
