MODEL 1
REMARK VINA RESULT:     -12.2      0.000      0.000
REMARK  Name = 17748441
REMARK  5 active torsions:
REMARK  status: ('A' for Active; 'I' for Inactive)
REMARK    1  A    between atoms: C_2  and  N_10
REMARK    2  A    between atoms: C_3  and  O_24
REMARK    3  A    between atoms: C_12  and  C_16
REMARK    4  A    between atoms: C_16  and  C_18
REMARK    5  A    between atoms: O_24  and  C_27
REMARK                            x       y       z     vdW  Elec       q    Type
REMARK                         _______ _______ _______ _____ _____    ______ ____
ROOT
ATOM      1  F   UNL     1      33.272 -11.321 -24.423  0.00  0.00    -0.201 F 
ATOM      2  C   UNL     1      33.392 -13.917 -21.880  0.00  0.00    +0.054 C 
ATOM      3  C   UNL     1      31.924 -11.627 -22.495  0.00  0.00    +0.173 C 
ATOM      4  C   UNL     1      33.703 -13.174 -23.018  0.00  0.00    +0.047 C 
ATOM      5  C   UNL     1      32.347 -13.514 -21.049  0.00  0.00    +0.018 C 
ATOM      6  C   UNL     1      32.968 -12.029 -23.326  0.00  0.00    +0.176 C 
ATOM      7  C   UNL     1      31.613 -12.368 -21.356  0.00  0.00    +0.041 C 
ENDROOT
BRANCH   2  10
ATOM      8  O   UNL     1      35.645 -18.618 -23.434  0.00  0.00    -0.274 OA
ATOM      9  O   UNL     1      34.232 -16.216 -23.619  0.00  0.00    -0.252 OA
ATOM     10  N   UNL     1      34.136 -15.079 -21.566  0.00  0.00    -0.268 N 
ATOM     11  N   UNL     1      35.240 -17.091 -21.718  0.00  0.00    -0.239 N 
ATOM     12  C   UNL     1      35.761 -18.268 -22.262  0.00  0.00    +0.234 C 
ATOM     13  C   UNL     1      34.499 -16.122 -22.424  0.00  0.00    +0.310 C 
ATOM     14  H   UNL     1      34.434 -15.162 -20.631  0.00  0.00    +0.156 HD
ATOM     15  H   UNL     1      35.403 -16.926 -20.761  0.00  0.00    +0.159 HD
BRANCH  12  16
ATOM     16  C   UNL     1      36.501 -19.078 -21.215  0.00  0.00    +0.112 C 
BRANCH  16  18
ATOM     17  F   UNL     1      33.222 -22.803 -18.546  0.00  0.00    -0.204 F 
ATOM     18  C   UNL     1      35.625 -20.074 -20.502  0.00  0.00    -0.013 C 
ATOM     19  C   UNL     1      34.238 -19.990 -20.617  0.00  0.00    -0.001 C 
ATOM     20  C   UNL     1      36.200 -21.080 -19.726  0.00  0.00    -0.001 C 
ATOM     21  C   UNL     1      33.426 -20.912 -19.956  0.00  0.00    +0.029 C 
ATOM     22  C   UNL     1      35.389 -22.002 -19.065  0.00  0.00    +0.029 C 
ATOM     23  C   UNL     1      34.001 -21.918 -19.180  0.00  0.00    +0.140 C 
ENDBRANCH  16  18
ENDBRANCH  12  16
ENDBRANCH   2  10
BRANCH   3  24
ATOM     24  O   UNL     1      31.208 -10.508 -22.794  0.00  0.00    -0.451 OA
BRANCH  24  27
ATOM     25  N   UNL     1      32.938  -6.805 -21.918  0.00  0.00    -0.229 NA
ATOM     26  N   UNL     1      33.004  -7.399 -19.611  0.00  0.00    -0.343 N 
ATOM     27  C   UNL     1      31.781  -9.281 -22.504  0.00  0.00    +0.150 C 
ATOM     28  C   UNL     1      32.106  -8.956 -21.192  0.00  0.00    +0.071 C 
ATOM     29  C   UNL     1      32.033  -8.370 -23.522  0.00  0.00    +0.058 C 
ATOM     30  C   UNL     1      32.678  -7.716 -20.953  0.00  0.00    +0.128 C 
ATOM     31  C   UNL     1      32.608  -7.156 -23.181  0.00  0.00    +0.103 C 
ATOM     32  H   UNL     1      33.412  -6.530 -19.396  0.00  0.00    +0.144 HD
ATOM     33  H   UNL     1      32.823  -8.049 -18.894  0.00  0.00    +0.144 HD
ENDBRANCH  24  27
ENDBRANCH   3  24
TORSDOF 5
ENDMDL
MODEL 2
REMARK VINA RESULT:     -12.1      3.510     11.195
REMARK  Name = 17748441
REMARK  5 active torsions:
REMARK  status: ('A' for Active; 'I' for Inactive)
REMARK    1  A    between atoms: C_2  and  N_10
REMARK    2  A    between atoms: C_3  and  O_24
REMARK    3  A    between atoms: C_12  and  C_16
REMARK    4  A    between atoms: C_16  and  C_18
REMARK    5  A    between atoms: O_24  and  C_27
REMARK                            x       y       z     vdW  Elec       q    Type
REMARK                         _______ _______ _______ _____ _____    ______ ____
ROOT
ATOM      1  F   UNL     1      36.804 -21.830 -19.642  0.00  0.00    -0.201 F 
ATOM      2  C   UNL     1      34.167 -19.624 -20.829  0.00  0.00    +0.054 C 
ATOM      3  C   UNL     1      34.455 -21.961 -19.333  0.00  0.00    +0.173 C 
ATOM      4  C   UNL     1      35.436 -20.156 -20.604  0.00  0.00    +0.047 C 
ATOM      5  C   UNL     1      33.041 -20.261 -20.306  0.00  0.00    +0.018 C 
ATOM      6  C   UNL     1      35.580 -21.324 -19.856  0.00  0.00    +0.176 C 
ATOM      7  C   UNL     1      33.185 -21.430 -19.559  0.00  0.00    +0.041 C 
ENDROOT
BRANCH   2  10
ATOM      8  O   UNL     1      35.147 -14.314 -21.493  0.00  0.00    -0.274 OA
ATOM      9  O   UNL     1      35.194 -16.849 -20.320  0.00  0.00    -0.252 OA
ATOM     10  N   UNL     1      34.019 -18.439 -21.588  0.00  0.00    -0.268 N 
ATOM     11  N   UNL     1      34.153 -16.260 -22.310  0.00  0.00    -0.239 N 
ATOM     12  C   UNL     1      34.484 -14.902 -22.344  0.00  0.00    +0.234 C 
ATOM     13  C   UNL     1      34.524 -17.167 -21.299  0.00  0.00    +0.310 C 
ATOM     14  H   UNL     1      33.498 -18.521 -22.420  0.00  0.00    +0.156 HD
ATOM     15  H   UNL     1      33.613 -16.611 -23.056  0.00  0.00    +0.159 HD
BRANCH  12  16
ATOM     16  C   UNL     1      33.917 -14.228 -23.578  0.00  0.00    +0.112 C 
BRANCH  16  18
ATOM     17  F   UNL     1      31.555  -9.226 -22.501  0.00  0.00    -0.204 F 
ATOM     18  C   UNL     1      33.285 -12.891 -23.291  0.00  0.00    -0.013 C 
ATOM     19  C   UNL     1      33.723 -11.753 -23.967  0.00  0.00    -0.001 C 
ATOM     20  C   UNL     1      32.262 -12.791 -22.347  0.00  0.00    -0.001 C 
ATOM     21  C   UNL     1      33.139 -10.515 -23.701  0.00  0.00    +0.029 C 
ATOM     22  C   UNL     1      31.679 -11.553 -22.080  0.00  0.00    +0.029 C 
ATOM     23  C   UNL     1      32.116 -10.415 -22.757  0.00  0.00    +0.140 C 
ENDBRANCH  16  18
ENDBRANCH  12  16
ENDBRANCH   2  10
BRANCH   3  24
ATOM     24  O   UNL     1      34.595 -23.103 -18.605  0.00  0.00    -0.451 OA
BRANCH  24  27
ATOM     25  N   UNL     1      32.944 -23.170 -14.766  0.00  0.00    -0.229 NA
ATOM     26  N   UNL     1      35.137 -23.103 -13.838  0.00  0.00    -0.343 N 
ATOM     27  C   UNL     1      34.048 -23.126 -17.333  0.00  0.00    +0.150 C 
ATOM     28  C   UNL     1      34.876 -23.103 -16.216  0.00  0.00    +0.071 C 
ATOM     29  C   UNL     1      32.669 -23.171 -17.167  0.00  0.00    +0.058 C 
ATOM     30  C   UNL     1      34.280 -23.126 -14.966  0.00  0.00    +0.128 C 
ATOM     31  C   UNL     1      32.171 -23.192 -15.874  0.00  0.00    +0.103 C 
ATOM     32  H   UNL     1      34.757 -23.118 -12.930  0.00  0.00    +0.144 HD
ATOM     33  H   UNL     1      36.114 -23.070 -13.962  0.00  0.00    +0.144 HD
ENDBRANCH  24  27
ENDBRANCH   3  24
TORSDOF 5
ENDMDL
MODEL 3
REMARK VINA RESULT:     -12.0      1.382      2.155
REMARK  Name = 17748441
REMARK  5 active torsions:
REMARK  status: ('A' for Active; 'I' for Inactive)
REMARK    1  A    between atoms: C_2  and  N_10
REMARK    2  A    between atoms: C_3  and  O_24
REMARK    3  A    between atoms: C_12  and  C_16
REMARK    4  A    between atoms: C_16  and  C_18
REMARK    5  A    between atoms: O_24  and  C_27
REMARK                            x       y       z     vdW  Elec       q    Type
REMARK                         _______ _______ _______ _____ _____    ______ ____
ROOT
ATOM      1  F   UNL     1      30.340 -11.374 -21.213  0.00  0.00    -0.201 F 
ATOM      2  C   UNL     1      33.266 -13.131 -22.468  0.00  0.00    +0.054 C 
ATOM      3  C   UNL     1      31.925 -10.715 -22.850  0.00  0.00    +0.173 C 
ATOM      4  C   UNL     1      32.115 -12.849 -21.733  0.00  0.00    +0.047 C 
ATOM      5  C   UNL     1      33.746 -12.206 -23.395  0.00  0.00    +0.018 C 
ATOM      6  C   UNL     1      31.445 -11.640 -21.924  0.00  0.00    +0.176 C 
ATOM      7  C   UNL     1      33.075 -10.998 -23.586  0.00  0.00    +0.041 C 
ENDROOT
BRANCH   2  10
ATOM      8  O   UNL     1      34.703 -18.049 -24.298  0.00  0.00    -0.274 OA
ATOM      9  O   UNL     1      33.514 -15.521 -24.270  0.00  0.00    -0.252 OA
ATOM     10  N   UNL     1      33.946 -14.357 -22.276  0.00  0.00    -0.268 N 
ATOM     11  N   UNL     1      34.801 -16.470 -22.585  0.00  0.00    -0.239 N 
ATOM     12  C   UNL     1      35.087 -17.698 -23.186  0.00  0.00    +0.234 C 
ATOM     13  C   UNL     1      34.027 -15.440 -23.156  0.00  0.00    +0.310 C 
ATOM     14  H   UNL     1      34.419 -14.458 -21.417  0.00  0.00    +0.156 HD
ATOM     15  H   UNL     1      35.170 -16.310 -21.685  0.00  0.00    +0.159 HD
BRANCH  12  16
ATOM     16  C   UNL     1      35.946 -18.565 -22.284  0.00  0.00    +0.112 C 
BRANCH  16  18
ATOM     17  F   UNL     1      32.944 -21.897 -18.873  0.00  0.00    -0.204 F 
ATOM     18  C   UNL     1      35.144 -19.455 -21.372  0.00  0.00    -0.013 C 
ATOM     19  C   UNL     1      35.793 -20.352 -20.525  0.00  0.00    -0.001 C 
ATOM     20  C   UNL     1      33.750 -19.383 -21.375  0.00  0.00    -0.001 C 
ATOM     21  C   UNL     1      35.050 -21.177 -19.680  0.00  0.00    +0.029 C 
ATOM     22  C   UNL     1      33.007 -20.209 -20.532  0.00  0.00    +0.029 C 
ATOM     23  C   UNL     1      33.657 -21.105 -19.683  0.00  0.00    +0.140 C 
ENDBRANCH  16  18
ENDBRANCH  12  16
ENDBRANCH   2  10
BRANCH   3  24
ATOM     24  O   UNL     1      31.270  -9.537 -23.038  0.00  0.00    -0.451 OA
BRANCH  24  27
ATOM     25  N   UNL     1      32.318  -6.320 -20.584  0.00  0.00    -0.229 NA
ATOM     26  N   UNL     1      31.350  -4.820 -22.162  0.00  0.00    -0.343 N 
ATOM     27  C   UNL     1      31.617  -8.471 -22.225  0.00  0.00    +0.150 C 
ATOM     28  C   UNL     1      31.306  -7.171 -22.607  0.00  0.00    +0.071 C 
ATOM     29  C   UNL     1      32.279  -8.696 -21.024  0.00  0.00    +0.058 C 
ATOM     30  C   UNL     1      31.675  -6.139 -21.759  0.00  0.00    +0.128 C 
ATOM     31  C   UNL     1      32.604  -7.597 -20.245  0.00  0.00    +0.103 C 
ATOM     32  H   UNL     1      31.593  -4.057 -21.590  0.00  0.00    +0.144 HD
ATOM     33  H   UNL     1      30.881  -4.667 -23.015  0.00  0.00    +0.144 HD
ENDBRANCH  24  27
ENDBRANCH   3  24
TORSDOF 5
ENDMDL
MODEL 4
REMARK VINA RESULT:     -11.9      1.940      2.360
REMARK  Name = 17748441
REMARK  5 active torsions:
REMARK  status: ('A' for Active; 'I' for Inactive)
REMARK    1  A    between atoms: C_2  and  N_10
REMARK    2  A    between atoms: C_3  and  O_24
REMARK    3  A    between atoms: C_12  and  C_16
REMARK    4  A    between atoms: C_16  and  C_18
REMARK    5  A    between atoms: O_24  and  C_27
REMARK                            x       y       z     vdW  Elec       q    Type
REMARK                         _______ _______ _______ _____ _____    ______ ____
ROOT
ATOM      1  F   UNL     1      31.236 -11.068 -19.259  0.00  0.00    -0.201 F 
ATOM      2  C   UNL     1      32.398 -13.437 -21.762  0.00  0.00    +0.054 C 
ATOM      3  C   UNL     1      31.642 -10.758 -21.576  0.00  0.00    +0.173 C 
ATOM      4  C   UNL     1      31.997 -12.909 -20.535  0.00  0.00    +0.047 C 
ATOM      5  C   UNL     1      32.421 -12.624 -22.896  0.00  0.00    +0.018 C 
ATOM      6  C   UNL     1      31.619 -11.570 -20.442  0.00  0.00    +0.176 C 
ATOM      7  C   UNL     1      32.042 -11.285 -22.803  0.00  0.00    +0.041 C 
ENDROOT
BRANCH   2  10
ATOM      8  O   UNL     1      35.788 -17.472 -20.414  0.00  0.00    -0.274 OA
ATOM      9  O   UNL     1      34.694 -14.903 -20.499  0.00  0.00    -0.252 OA
ATOM     10  N   UNL     1      32.781 -14.795 -21.858  0.00  0.00    -0.268 N 
ATOM     11  N   UNL     1      33.897 -16.789 -21.596  0.00  0.00    -0.239 N 
ATOM     12  C   UNL     1      34.848 -17.718 -21.164  0.00  0.00    +0.234 C 
ATOM     13  C   UNL     1      33.867 -15.425 -21.243  0.00  0.00    +0.310 C 
ATOM     14  H   UNL     1      32.214 -15.365 -22.428  0.00  0.00    +0.156 HD
ATOM     15  H   UNL     1      33.190 -17.115 -22.200  0.00  0.00    +0.159 HD
BRANCH  12  16
ATOM     16  C   UNL     1      34.575 -19.094 -21.742  0.00  0.00    +0.112 C 
BRANCH  16  18
ATOM     17  F   UNL     1      34.192 -23.127 -17.826  0.00  0.00    -0.204 F 
ATOM     18  C   UNL     1      34.473 -20.171 -20.695  0.00  0.00    -0.013 C 
ATOM     19  C   UNL     1      35.628 -20.777 -20.203  0.00  0.00    -0.001 C 
ATOM     20  C   UNL     1      33.222 -20.565 -20.218  0.00  0.00    -0.001 C 
ATOM     21  C   UNL     1      35.534 -21.775 -19.233  0.00  0.00    +0.029 C 
ATOM     22  C   UNL     1      33.127 -21.563 -19.249  0.00  0.00    +0.029 C 
ATOM     23  C   UNL     1      34.283 -22.169 -18.756  0.00  0.00    +0.140 C 
ENDBRANCH  16  18
ENDBRANCH  12  16
ENDBRANCH   2  10
BRANCH   3  24
ATOM     24  O   UNL     1      31.271  -9.451 -21.485  0.00  0.00    -0.451 OA
BRANCH  24  27
ATOM     25  N   UNL     1      33.065  -6.738 -24.110  0.00  0.00    -0.229 NA
ATOM     26  N   UNL     1      35.208  -7.399 -23.305  0.00  0.00    -0.343 N 
ATOM     27  C   UNL     1      31.866  -8.552 -22.354  0.00  0.00    +0.150 C 
ATOM     28  C   UNL     1      33.250  -8.428 -22.392  0.00  0.00    +0.071 C 
ATOM     29  C   UNL     1      31.081  -7.771 -23.194  0.00  0.00    +0.058 C 
ATOM     30  C   UNL     1      33.796  -7.514 -23.279  0.00  0.00    +0.128 C 
ATOM     31  C   UNL     1      31.723  -6.886 -24.046  0.00  0.00    +0.103 C 
ATOM     32  H   UNL     1      35.639  -6.763 -23.920  0.00  0.00    +0.144 HD
ATOM     33  H   UNL     1      35.758  -7.956 -22.708  0.00  0.00    +0.144 HD
ENDBRANCH  24  27
ENDBRANCH   3  24
TORSDOF 5
ENDMDL
MODEL 5
REMARK VINA RESULT:     -11.9      2.865     10.901
REMARK  Name = 17748441
REMARK  5 active torsions:
REMARK  status: ('A' for Active; 'I' for Inactive)
REMARK    1  A    between atoms: C_2  and  N_10
REMARK    2  A    between atoms: C_3  and  O_24
REMARK    3  A    between atoms: C_12  and  C_16
REMARK    4  A    between atoms: C_16  and  C_18
REMARK    5  A    between atoms: O_24  and  C_27
REMARK                            x       y       z     vdW  Elec       q    Type
REMARK                         _______ _______ _______ _____ _____    ______ ____
ROOT
ATOM      1  F   UNL     1      34.925 -18.220 -24.882  0.00  0.00    -0.201 F 
ATOM      2  C   UNL     1      34.562 -15.139 -22.983  0.00  0.00    +0.054 C 
ATOM      3  C   UNL     1      35.114 -17.839 -22.548  0.00  0.00    +0.173 C 
ATOM      4  C   UNL     1      34.606 -16.025 -24.060  0.00  0.00    +0.047 C 
ATOM      5  C   UNL     1      34.794 -15.605 -21.688  0.00  0.00    +0.018 C 
ATOM      6  C   UNL     1      34.883 -17.375 -23.842  0.00  0.00    +0.176 C 
ATOM      7  C   UNL     1      35.069 -16.954 -21.471  0.00  0.00    +0.041 C 
ENDROOT
BRANCH   2  10
ATOM      8  O   UNL     1      31.259 -10.860 -22.374  0.00  0.00    -0.274 OA
ATOM      9  O   UNL     1      32.195 -13.483 -22.163  0.00  0.00    -0.252 OA
ATOM     10  N   UNL     1      34.282 -13.770 -23.203  0.00  0.00    -0.268 N 
ATOM     11  N   UNL     1      33.262 -11.709 -23.215  0.00  0.00    -0.239 N 
ATOM     12  C   UNL     1      32.315 -10.708 -22.981  0.00  0.00    +0.234 C 
ATOM     13  C   UNL     1      33.155 -13.050 -22.795  0.00  0.00    +0.310 C 
ATOM     14  H   UNL     1      34.962 -13.265 -23.705  0.00  0.00    +0.156 HD
ATOM     15  H   UNL     1      34.071 -11.456 -23.717  0.00  0.00    +0.159 HD
BRANCH  12  16
ATOM     16  C   UNL     1      32.756  -9.384 -23.576  0.00  0.00    +0.112 C 
BRANCH  16  18
ATOM     17  F   UNL     1      30.428  -4.918 -21.049  0.00  0.00    -0.204 F 
ATOM     18  C   UNL     1      32.134  -8.190 -22.901  0.00  0.00    -0.013 C 
ATOM     19  C   UNL     1      32.546  -7.820 -21.622  0.00  0.00    -0.001 C 
ATOM     20  C   UNL     1      31.146  -7.454 -23.555  0.00  0.00    -0.001 C 
ATOM     21  C   UNL     1      31.970  -6.714 -20.996  0.00  0.00    +0.029 C 
ATOM     22  C   UNL     1      30.569  -6.350 -22.930  0.00  0.00    +0.029 C 
ATOM     23  C   UNL     1      30.981  -5.978 -21.650  0.00  0.00    +0.140 C 
ENDBRANCH  16  18
ENDBRANCH  12  16
ENDBRANCH   2  10
BRANCH   3  24
ATOM     24  O   UNL     1      35.382 -19.157 -22.335  0.00  0.00    -0.451 OA
BRANCH  24  27
ATOM     25  N   UNL     1      33.182 -21.130 -19.379  0.00  0.00    -0.229 NA
ATOM     26  N   UNL     1      35.187 -22.143 -18.584  0.00  0.00    -0.343 N 
ATOM     27  C   UNL     1      34.653 -19.811 -21.355  0.00  0.00    +0.150 C 
ATOM     28  C   UNL     1      35.294 -20.655 -20.455  0.00  0.00    +0.071 C 
ATOM     29  C   UNL     1      33.278 -19.626 -21.268  0.00  0.00    +0.058 C 
ATOM     30  C   UNL     1      34.520 -21.286 -19.494  0.00  0.00    +0.128 C 
ATOM     31  C   UNL     1      32.594 -20.303 -20.271  0.00  0.00    +0.103 C 
ATOM     32  H   UNL     1      34.677 -22.611 -17.884  0.00  0.00    +0.144 HD
ATOM     33  H   UNL     1      36.162 -22.269 -18.651  0.00  0.00    +0.144 HD
ENDBRANCH  24  27
ENDBRANCH   3  24
TORSDOF 5
ENDMDL
MODEL 6
REMARK VINA RESULT:     -11.7      4.111     10.669
REMARK  Name = 17748441
REMARK  5 active torsions:
REMARK  status: ('A' for Active; 'I' for Inactive)
REMARK    1  A    between atoms: C_2  and  N_10
REMARK    2  A    between atoms: C_3  and  O_24
REMARK    3  A    between atoms: C_12  and  C_16
REMARK    4  A    between atoms: C_16  and  C_18
REMARK    5  A    between atoms: O_24  and  C_27
REMARK                            x       y       z     vdW  Elec       q    Type
REMARK                         _______ _______ _______ _____ _____    ______ ____
ROOT
ATOM      1  F   UNL     1      36.654 -22.070 -19.020  0.00  0.00    -0.201 F 
ATOM      2  C   UNL     1      34.345 -19.833 -20.721  0.00  0.00    +0.054 C 
ATOM      3  C   UNL     1      34.294 -22.193 -19.234  0.00  0.00    +0.173 C 
ATOM      4  C   UNL     1      35.534 -20.375 -20.232  0.00  0.00    +0.047 C 
ATOM      5  C   UNL     1      33.131 -20.472 -20.466  0.00  0.00    +0.018 C 
ATOM      6  C   UNL     1      35.508 -21.555 -19.488  0.00  0.00    +0.176 C 
ATOM      7  C   UNL     1      33.106 -21.652 -19.723  0.00  0.00    +0.041 C 
ENDROOT
BRANCH   2  10
ATOM      8  O   UNL     1      34.830 -17.307 -25.514  0.00  0.00    -0.274 OA
ATOM      9  O   UNL     1      34.713 -19.401 -23.669  0.00  0.00    -0.252 OA
ATOM     10  N   UNL     1      34.370 -18.636 -21.475  0.00  0.00    -0.268 N 
ATOM     11  N   UNL     1      34.507 -17.134 -23.211  0.00  0.00    -0.239 N 
ATOM     12  C   UNL     1      34.651 -16.629 -24.506  0.00  0.00    +0.234 C 
ATOM     13  C   UNL     1      34.546 -18.497 -22.855  0.00  0.00    +0.310 C 
ATOM     14  H   UNL     1      34.249 -17.802 -20.966  0.00  0.00    +0.156 HD
ATOM     15  H   UNL     1      34.369 -16.482 -22.486  0.00  0.00    +0.159 HD
BRANCH  12  16
ATOM     16  C   UNL     1      34.558 -15.115 -24.521  0.00  0.00    +0.112 C 
BRANCH  16  18
ATOM     17  F   UNL     1      32.035 -12.995 -19.950  0.00  0.00    -0.204 F 
ATOM     18  C   UNL     1      33.884 -14.548 -23.299  0.00  0.00    -0.013 C 
ATOM     19  C   UNL     1      34.381 -14.840 -22.030  0.00  0.00    -0.001 C 
ATOM     20  C   UNL     1      32.762 -13.731 -23.437  0.00  0.00    -0.001 C 
ATOM     21  C   UNL     1      33.756 -14.315 -20.898  0.00  0.00    +0.029 C 
ATOM     22  C   UNL     1      32.137 -13.207 -22.306  0.00  0.00    +0.029 C 
ATOM     23  C   UNL     1      32.634 -13.498 -21.036  0.00  0.00    +0.140 C 
ENDBRANCH  16  18
ENDBRANCH  12  16
ENDBRANCH   2  10
BRANCH   3  24
ATOM     24  O   UNL     1      34.270 -23.345 -18.510  0.00  0.00    -0.451 OA
BRANCH  24  27
ATOM     25  N   UNL     1      32.902 -23.131 -14.566  0.00  0.00    -0.229 NA
ATOM     26  N   UNL     1      35.159 -23.076 -13.803  0.00  0.00    -0.343 N 
ATOM     27  C   UNL     1      33.817 -23.275 -17.203  0.00  0.00    +0.150 C 
ATOM     28  C   UNL     1      34.725 -23.211 -16.152  0.00  0.00    +0.071 C 
ATOM     29  C   UNL     1      32.453 -23.267 -16.937  0.00  0.00    +0.058 C 
ATOM     30  C   UNL     1      34.221 -23.141 -14.863  0.00  0.00    +0.128 C 
ATOM     31  C   UNL     1      32.050 -23.195 -15.613  0.00  0.00    +0.103 C 
ATOM     32  H   UNL     1      34.846 -23.025 -12.871  0.00  0.00    +0.144 HD
ATOM     33  H   UNL     1      36.124 -23.082 -13.998  0.00  0.00    +0.144 HD
ENDBRANCH  24  27
ENDBRANCH   3  24
TORSDOF 5
ENDMDL
MODEL 7
REMARK VINA RESULT:     -11.7      5.395     12.641
REMARK  Name = 17748441
REMARK  5 active torsions:
REMARK  status: ('A' for Active; 'I' for Inactive)
REMARK    1  A    between atoms: C_2  and  N_10
REMARK    2  A    between atoms: C_3  and  O_24
REMARK    3  A    between atoms: C_12  and  C_16
REMARK    4  A    between atoms: C_16  and  C_18
REMARK    5  A    between atoms: O_24  and  C_27
REMARK                            x       y       z     vdW  Elec       q    Type
REMARK                         _______ _______ _______ _____ _____    ______ ____
ROOT
ATOM      1  F   UNL     1      37.916 -22.054 -16.031  0.00  0.00    -0.201 F 
ATOM      2  C   UNL     1      35.280 -21.788 -18.523  0.00  0.00    +0.054 C 
ATOM      3  C   UNL     1      35.733 -22.984 -16.044  0.00  0.00    +0.173 C 
ATOM      4  C   UNL     1      36.508 -21.622 -17.882  0.00  0.00    +0.047 C 
ATOM      5  C   UNL     1      34.279 -22.553 -17.924  0.00  0.00    +0.018 C 
ATOM      6  C   UNL     1      36.734 -22.219 -16.642  0.00  0.00    +0.176 C 
ATOM      7  C   UNL     1      34.506 -23.151 -16.684  0.00  0.00    +0.041 C 
ENDROOT
BRANCH   2  10
ATOM      8  O   UNL     1      36.751 -18.233 -22.368  0.00  0.00    -0.274 OA
ATOM      9  O   UNL     1      36.834 -19.667 -19.973  0.00  0.00    -0.252 OA
ATOM     10  N   UNL     1      35.050 -21.183 -19.781  0.00  0.00    -0.268 N 
ATOM     11  N   UNL     1      35.243 -19.862 -21.654  0.00  0.00    -0.239 N 
ATOM     12  C   UNL     1      35.743 -18.911 -22.547  0.00  0.00    +0.234 C 
ATOM     13  C   UNL     1      35.813 -20.194 -20.409  0.00  0.00    +0.310 C 
ATOM     14  H   UNL     1      34.256 -21.496 -20.272  0.00  0.00    +0.156 HD
ATOM     15  H   UNL     1      34.422 -20.340 -21.916  0.00  0.00    +0.159 HD
BRANCH  12  16
ATOM     16  C   UNL     1      34.876 -18.812 -23.788  0.00  0.00    +0.112 C 
BRANCH  16  18
ATOM     17  F   UNL     1      33.167 -13.561 -24.907  0.00  0.00    -0.204 F 
ATOM     18  C   UNL     1      34.420 -17.409 -24.087  0.00  0.00    -0.013 C 
ATOM     19  C   UNL     1      34.292 -16.482 -23.054  0.00  0.00    -0.001 C 
ATOM     20  C   UNL     1      34.123 -17.036 -25.399  0.00  0.00    -0.001 C 
ATOM     21  C   UNL     1      33.869 -15.182 -23.330  0.00  0.00    +0.029 C 
ATOM     22  C   UNL     1      33.700 -15.736 -25.675  0.00  0.00    +0.029 C 
ATOM     23  C   UNL     1      33.573 -14.808 -24.642  0.00  0.00    +0.140 C 
ENDBRANCH  16  18
ENDBRANCH  12  16
ENDBRANCH   2  10
BRANCH   3  24
ATOM     24  O   UNL     1      35.954 -23.569 -14.834  0.00  0.00    -0.451 OA
BRANCH  24  27
ATOM     25  N   UNL     1      38.163 -27.117 -14.768  0.00  0.00    -0.229 NA
ATOM     26  N   UNL     1      40.014 -25.929 -13.851  0.00  0.00    -0.343 N 
ATOM     27  C   UNL     1      36.686 -24.744 -14.812  0.00  0.00    +0.150 C 
ATOM     28  C   UNL     1      37.993 -24.744 -14.338  0.00  0.00    +0.071 C 
ATOM     29  C   UNL     1      36.117 -25.929 -15.264  0.00  0.00    +0.058 C 
ATOM     30  C   UNL     1      38.683 -25.946 -14.337  0.00  0.00    +0.128 C 
ATOM     31  C   UNL     1      36.890 -27.078 -15.221  0.00  0.00    +0.103 C 
ATOM     32  H   UNL     1      40.541 -26.760 -13.831  0.00  0.00    +0.144 HD
ATOM     33  H   UNL     1      40.411 -25.086 -13.532  0.00  0.00    +0.144 HD
ENDBRANCH  24  27
ENDBRANCH   3  24
TORSDOF 5
ENDMDL
MODEL 8
REMARK VINA RESULT:     -11.6      2.929     10.991
REMARK  Name = 17748441
REMARK  5 active torsions:
REMARK  status: ('A' for Active; 'I' for Inactive)
REMARK    1  A    between atoms: C_2  and  N_10
REMARK    2  A    between atoms: C_3  and  O_24
REMARK    3  A    between atoms: C_12  and  C_16
REMARK    4  A    between atoms: C_16  and  C_18
REMARK    5  A    between atoms: O_24  and  C_27
REMARK                            x       y       z     vdW  Elec       q    Type
REMARK                         _______ _______ _______ _____ _____    ______ ____
ROOT
ATOM      1  F   UNL     1      37.402 -19.054 -21.002  0.00  0.00    -0.201 F 
ATOM      2  C   UNL     1      34.209 -17.335 -21.295  0.00  0.00    +0.054 C 
ATOM      3  C   UNL     1      35.193 -19.908 -20.854  0.00  0.00    +0.173 C 
ATOM      4  C   UNL     1      35.586 -17.559 -21.259  0.00  0.00    +0.047 C 
ATOM      5  C   UNL     1      33.325 -18.399 -21.111  0.00  0.00    +0.018 C 
ATOM      6  C   UNL     1      36.078 -18.846 -21.038  0.00  0.00    +0.176 C 
ATOM      7  C   UNL     1      33.817 -19.685 -20.891  0.00  0.00    +0.041 C 
ENDROOT
BRANCH   2  10
ATOM      8  O   UNL     1      33.340 -13.149 -24.658  0.00  0.00    -0.274 OA
ATOM      9  O   UNL     1      34.182 -15.667 -23.792  0.00  0.00    -0.252 OA
ATOM     10  N   UNL     1      33.710 -16.031 -21.520  0.00  0.00    -0.268 N 
ATOM     11  N   UNL     1      33.127 -14.040 -22.513  0.00  0.00    -0.239 N 
ATOM     12  C   UNL     1      32.974 -13.052 -23.490  0.00  0.00    +0.234 C 
ATOM     13  C   UNL     1      33.725 -15.301 -22.712  0.00  0.00    +0.310 C 
ATOM     14  H   UNL     1      33.303 -15.584 -20.742  0.00  0.00    +0.156 HD
ATOM     15  H   UNL     1      32.790 -13.838 -21.610  0.00  0.00    +0.159 HD
BRANCH  12  16
ATOM     16  C   UNL     1      32.289 -11.822 -22.925  0.00  0.00    +0.112 C 
BRANCH  16  18
ATOM     17  F   UNL     1      35.112  -7.046 -23.913  0.00  0.00    -0.204 F 
ATOM     18  C   UNL     1      33.043 -10.545 -23.190  0.00  0.00    -0.013 C 
ATOM     19  C   UNL     1      34.139 -10.549 -24.051  0.00  0.00    -0.001 C 
ATOM     20  C   UNL     1      32.646  -9.359 -22.572  0.00  0.00    -0.001 C 
ATOM     21  C   UNL     1      34.838  -9.367 -24.296  0.00  0.00    +0.029 C 
ATOM     22  C   UNL     1      33.345  -8.178 -22.815  0.00  0.00    +0.029 C 
ATOM     23  C   UNL     1      34.441  -8.181 -23.678  0.00  0.00    +0.140 C 
ENDBRANCH  16  18
ENDBRANCH  12  16
ENDBRANCH   2  10
BRANCH   3  24
ATOM     24  O   UNL     1      35.673 -21.164 -20.640  0.00  0.00    -0.451 OA
BRANCH  24  27
ATOM     25  N   UNL     1      35.275 -22.766 -16.800  0.00  0.00    -0.229 NA
ATOM     26  N   UNL     1      37.445 -21.948 -16.250  0.00  0.00    -0.343 N 
ATOM     27  C   UNL     1      35.542 -21.695 -19.368  0.00  0.00    +0.150 C 
ATOM     28  C   UNL     1      36.569 -21.553 -18.442  0.00  0.00    +0.071 C 
ATOM     29  C   UNL     1      34.382 -22.372 -19.011  0.00  0.00    +0.058 C 
ATOM     30  C   UNL     1      36.388 -22.102 -17.182  0.00  0.00    +0.128 C 
ATOM     31  C   UNL     1      34.298 -22.885 -17.726  0.00  0.00    +0.103 C 
ATOM     32  H   UNL     1      37.359 -22.322 -15.344  0.00  0.00    +0.144 HD
ATOM     33  H   UNL     1      38.264 -21.467 -16.509  0.00  0.00    +0.144 HD
ENDBRANCH  24  27
ENDBRANCH   3  24
TORSDOF 5
ENDMDL
MODEL 9
REMARK VINA RESULT:     -11.1      2.776     10.621
REMARK  Name = 17748441
REMARK  5 active torsions:
REMARK  status: ('A' for Active; 'I' for Inactive)
REMARK    1  A    between atoms: C_2  and  N_10
REMARK    2  A    between atoms: C_3  and  O_24
REMARK    3  A    between atoms: C_12  and  C_16
REMARK    4  A    between atoms: C_16  and  C_18
REMARK    5  A    between atoms: O_24  and  C_27
REMARK                            x       y       z     vdW  Elec       q    Type
REMARK                         _______ _______ _______ _____ _____    ______ ____
ROOT
ATOM      1  F   UNL     1      34.879 -17.689 -24.925  0.00  0.00    -0.201 F 
ATOM      2  C   UNL     1      33.736 -14.927 -22.854  0.00  0.00    +0.054 C 
ATOM      3  C   UNL     1      34.960 -17.417 -22.569  0.00  0.00    +0.173 C 
ATOM      4  C   UNL     1      34.007 -15.703 -23.980  0.00  0.00    +0.047 C 
ATOM      5  C   UNL     1      34.076 -15.396 -21.585  0.00  0.00    +0.018 C 
ATOM      6  C   UNL     1      34.619 -16.948 -23.838  0.00  0.00    +0.176 C 
ATOM      7  C   UNL     1      34.688 -16.641 -21.443  0.00  0.00    +0.041 C 
ENDROOT
BRANCH   2  10
ATOM      8  O   UNL     1      31.135 -10.689 -20.647  0.00  0.00    -0.274 OA
ATOM      9  O   UNL     1      32.436 -13.156 -20.807  0.00  0.00    -0.252 OA
ATOM     10  N   UNL     1      33.114 -13.664 -22.997  0.00  0.00    -0.268 N 
ATOM     11  N   UNL     1      32.016 -11.691 -22.560  0.00  0.00    -0.239 N 
ATOM     12  C   UNL     1      31.360 -10.679 -21.854  0.00  0.00    +0.234 C 
ATOM     13  C   UNL     1      32.522 -12.881 -22.001  0.00  0.00    +0.310 C 
ATOM     14  H   UNL     1      33.096 -13.292 -23.910  0.00  0.00    +0.156 HD
ATOM     15  H   UNL     1      32.135 -11.561 -23.529  0.00  0.00    +0.159 HD
BRANCH  12  16
ATOM     16  C   UNL     1      30.950  -9.543 -22.773  0.00  0.00    +0.112 C 
BRANCH  16  18
ATOM     17  F   UNL     1      35.295  -6.411 -24.524  0.00  0.00    -0.204 F 
ATOM     18  C   UNL     1      32.112  -8.706 -23.240  0.00  0.00    -0.013 C 
ATOM     19  C   UNL     1      31.900  -7.393 -23.659  0.00  0.00    -0.001 C 
ATOM     20  C   UNL     1      33.399  -9.244 -23.256  0.00  0.00    -0.001 C 
ATOM     21  C   UNL     1      32.976  -6.617 -24.092  0.00  0.00    +0.029 C 
ATOM     22  C   UNL     1      34.474  -8.470 -23.690  0.00  0.00    +0.029 C 
ATOM     23  C   UNL     1      34.263  -7.155 -24.108  0.00  0.00    +0.140 C 
ENDBRANCH  16  18
ENDBRANCH  12  16
ENDBRANCH   2  10
BRANCH   3  24
ATOM     24  O   UNL     1      35.555 -18.633 -22.430  0.00  0.00    -0.451 OA
BRANCH  24  27
ATOM     25  N   UNL     1      34.016 -21.228 -19.538  0.00  0.00    -0.229 NA
ATOM     26  N   UNL     1      36.233 -21.690 -18.794  0.00  0.00    -0.343 N 
ATOM     27  C   UNL     1      35.046 -19.493 -21.472  0.00  0.00    +0.150 C 
ATOM     28  C   UNL     1      35.904 -20.164 -20.608  0.00  0.00    +0.071 C 
ATOM     29  C   UNL     1      33.674 -19.689 -21.369  0.00  0.00    +0.058 C 
ATOM     30  C   UNL     1      35.344 -21.013 -19.667  0.00  0.00    +0.128 C 
ATOM     31  C   UNL     1      33.213 -20.559 -20.394  0.00  0.00    +0.103 C 
ATOM     32  H   UNL     1      35.879 -22.303 -18.110  0.00  0.00    +0.144 HD
ATOM     33  H   UNL     1      37.204 -21.547 -18.872  0.00  0.00    +0.144 HD
ENDBRANCH  24  27
ENDBRANCH   3  24
TORSDOF 5
ENDMDL
