MODEL 1
REMARK VINA RESULT:      -8.5      0.000      0.000
REMARK  Name = 8251
REMARK  10 active torsions:
REMARK  status: ('A' for Active; 'I' for Inactive)
REMARK    1  A    between atoms: O_1  and  C_2
REMARK    2  A    between atoms: O_1  and  C_13
REMARK    3  A    between atoms: C_2  and  N_3
REMARK    4  A    between atoms: C_6  and  C_10
REMARK    5  A    between atoms: N_9  and  C_10
REMARK    6  A    between atoms: N_9  and  O_11
REMARK    7  A    between atoms: C_13  and  N_14
REMARK    8  A    between atoms: C_17  and  C_21
REMARK    9  A    between atoms: N_20  and  C_21
REMARK   10  A    between atoms: N_20  and  O_22
REMARK                            x       y       z     vdW  Elec       q    Type
REMARK                         _______ _______ _______ _____ _____    ______ ____
ROOT
ATOM      1  O   UNL     1      34.281 -23.801 -17.297  0.00  0.00    -0.314 OA
ENDROOT
BRANCH   1   2
ATOM      2  C   UNL     1      33.245 -22.977 -17.825  0.00  0.00    +0.242 C 
BRANCH   2   3
ATOM      3  N   UNL     1      33.753 -22.023 -18.807  0.00  0.00    -0.278 N 
ATOM      4  C   UNL     1      32.884 -21.228 -19.446  0.00  0.00    +0.119 C 
ATOM      5  C   UNL     1      35.073 -21.973 -19.036  0.00  0.00    +0.063 C 
ATOM      6  C   UNL     1      34.704 -20.239 -20.643  0.00  0.00    -0.004 C 
ATOM      7  C   UNL     1      33.338 -20.313 -20.385  0.00  0.00    -0.007 C 
ATOM      8  C   UNL     1      35.584 -21.076 -19.964  0.00  0.00    +0.013 C 
BRANCH   6   9
ATOM      9  C   UNL     1      35.209 -19.288 -21.619  0.00  0.00    +0.147 C 
BRANCH   9  10
ATOM     10  N   UNL     1      36.017 -18.314 -21.308  0.00  0.00    -0.083 NA
BRANCH  10  11
ATOM     11  O   UNL     1      35.299 -17.309 -20.656  0.00  0.00    -0.295 OA
ATOM     12  H   UNL     1      35.150 -17.362 -19.733  0.00  0.00    +0.238 HD
ENDBRANCH  10  11
ENDBRANCH   9  10
ENDBRANCH   6   9
ENDBRANCH   2   3
ENDBRANCH   1   2
BRANCH   1  13
ATOM     13  C   UNL     1      34.426 -23.717 -15.881  0.00  0.00    +0.242 C 
BRANCH  13  14
ATOM     14  N   UNL     1      35.767 -24.145 -15.436  0.00  0.00    -0.278 N 
ATOM     15  C   UNL     1      36.773 -23.280 -15.549  0.00  0.00    +0.119 C 
ATOM     16  C   UNL     1      35.903 -25.375 -14.941  0.00  0.00    +0.063 C 
ATOM     17  C   UNL     1      38.232 -24.932 -14.616  0.00  0.00    -0.004 C 
ATOM     18  C   UNL     1      38.045 -23.655 -15.138  0.00  0.00    -0.007 C 
ATOM     19  C   UNL     1      37.152 -25.804 -14.516  0.00  0.00    +0.013 C 
BRANCH  17  20
ATOM     20  C   UNL     1      39.552 -25.353 -14.177  0.00  0.00    +0.147 C 
BRANCH  20  21
ATOM     21  N   UNL     1      40.625 -25.182 -14.894  0.00  0.00    -0.083 NA
BRANCH  21  22
ATOM     22  O   UNL     1      40.561 -26.002 -16.023  0.00  0.00    -0.295 OA
ATOM     23  H   UNL     1      40.129 -26.832 -15.976  0.00  0.00    +0.238 HD
ENDBRANCH  21  22
ENDBRANCH  20  21
ENDBRANCH  17  20
ENDBRANCH  13  14
ENDBRANCH   1  13
TORSDOF 10
ENDMDL
MODEL 2
REMARK VINA RESULT:      -8.5      0.102      7.660
REMARK  Name = 8251
REMARK  10 active torsions:
REMARK  status: ('A' for Active; 'I' for Inactive)
REMARK    1  A    between atoms: O_1  and  C_2
REMARK    2  A    between atoms: O_1  and  C_13
REMARK    3  A    between atoms: C_2  and  N_3
REMARK    4  A    between atoms: C_6  and  C_10
REMARK    5  A    between atoms: N_9  and  C_10
REMARK    6  A    between atoms: N_9  and  O_11
REMARK    7  A    between atoms: C_13  and  N_14
REMARK    8  A    between atoms: C_17  and  C_21
REMARK    9  A    between atoms: N_20  and  C_21
REMARK   10  A    between atoms: N_20  and  O_22
REMARK                            x       y       z     vdW  Elec       q    Type
REMARK                         _______ _______ _______ _____ _____    ______ ____
ROOT
ATOM      1  O   UNL     1      34.247 -23.860 -17.283  0.00  0.00    -0.314 OA
ENDROOT
BRANCH   1   2
ATOM      2  C   UNL     1      34.425 -23.685 -15.880  0.00  0.00    +0.242 C 
BRANCH   2   3
ATOM      3  N   UNL     1      35.748 -24.120 -15.439  0.00  0.00    -0.278 N 
ATOM      4  C   UNL     1      35.893 -25.363 -14.958  0.00  0.00    +0.119 C 
ATOM      5  C   UNL     1      36.774 -23.263 -15.531  0.00  0.00    +0.063 C 
ATOM      6  C   UNL     1      38.221 -24.934 -14.616  0.00  0.00    -0.004 C 
ATOM      7  C   UNL     1      37.137 -25.803 -14.532  0.00  0.00    -0.007 C 
ATOM      8  C   UNL     1      38.041 -23.650 -15.119  0.00  0.00    +0.013 C 
BRANCH   6   9
ATOM      9  C   UNL     1      39.538 -25.368 -14.179  0.00  0.00    +0.147 C 
BRANCH   9  10
ATOM     10  N   UNL     1      40.616 -25.179 -14.884  0.00  0.00    -0.083 NA
BRANCH  10  11
ATOM     11  O   UNL     1      40.594 -26.021 -15.999  0.00  0.00    -0.295 OA
ATOM     12  H   UNL     1      40.522 -26.948 -15.885  0.00  0.00    +0.238 HD
ENDBRANCH  10  11
ENDBRANCH   9  10
ENDBRANCH   6   9
ENDBRANCH   2   3
ENDBRANCH   1   2
BRANCH   1  13
ATOM     13  C   UNL     1      33.231 -23.034 -17.847  0.00  0.00    +0.242 C 
BRANCH  13  14
ATOM     14  N   UNL     1      33.785 -22.046 -18.794  0.00  0.00    -0.278 N 
ATOM     15  C   UNL     1      32.934 -21.273 -19.466  0.00  0.00    +0.119 C 
ATOM     16  C   UNL     1      35.109 -21.975 -18.927  0.00  0.00    +0.063 C 
ATOM     17  C   UNL     1      34.803 -20.228 -20.533  0.00  0.00    -0.004 C 
ATOM     18  C   UNL     1      33.426 -20.334 -20.363  0.00  0.00    -0.007 C 
ATOM     19  C   UNL     1      35.657 -21.056 -19.811  0.00  0.00    +0.013 C 
BRANCH  17  20
ATOM     20  C   UNL     1      35.349 -19.254 -21.465  0.00  0.00    +0.147 C 
BRANCH  20  21
ATOM     21  N   UNL     1      36.054 -18.228 -21.084  0.00  0.00    -0.083 NA
BRANCH  21  22
ATOM     22  O   UNL     1      35.198 -17.220 -20.634  0.00  0.00    -0.295 OA
ATOM     23  H   UNL     1      34.490 -16.931 -21.175  0.00  0.00    +0.238 HD
ENDBRANCH  21  22
ENDBRANCH  20  21
ENDBRANCH  17  20
ENDBRANCH  13  14
ENDBRANCH   1  13
TORSDOF 10
ENDMDL
MODEL 3
REMARK VINA RESULT:      -8.4      4.841      8.839
REMARK  Name = 8251
REMARK  10 active torsions:
REMARK  status: ('A' for Active; 'I' for Inactive)
REMARK    1  A    between atoms: O_1  and  C_2
REMARK    2  A    between atoms: O_1  and  C_13
REMARK    3  A    between atoms: C_2  and  N_3
REMARK    4  A    between atoms: C_6  and  C_10
REMARK    5  A    between atoms: N_9  and  C_10
REMARK    6  A    between atoms: N_9  and  O_11
REMARK    7  A    between atoms: C_13  and  N_14
REMARK    8  A    between atoms: C_17  and  C_21
REMARK    9  A    between atoms: N_20  and  C_21
REMARK   10  A    between atoms: N_20  and  O_22
REMARK                            x       y       z     vdW  Elec       q    Type
REMARK                         _______ _______ _______ _____ _____    ______ ____
ROOT
ATOM      1  O   UNL     1      33.627 -24.507 -14.209  0.00  0.00    -0.314 OA
ENDROOT
BRANCH   1   2
ATOM      2  C   UNL     1      34.463 -24.139 -13.115  0.00  0.00    +0.242 C 
BRANCH   2   3
ATOM      3  N   UNL     1      35.852 -24.534 -13.332  0.00  0.00    -0.278 N 
ATOM      4  C   UNL     1      36.397 -24.344 -14.541  0.00  0.00    +0.119 C 
ATOM      5  C   UNL     1      36.537 -25.072 -12.313  0.00  0.00    +0.063 C 
ATOM      6  C   UNL     1      38.450 -25.271 -13.737  0.00  0.00    -0.004 C 
ATOM      7  C   UNL     1      37.714 -24.709 -14.776  0.00  0.00    -0.007 C 
ATOM      8  C   UNL     1      37.859 -25.457 -12.491  0.00  0.00    +0.013 C 
BRANCH   6   9
ATOM      9  C   UNL     1      39.834 -25.662 -13.952  0.00  0.00    +0.147 C 
BRANCH   9  10
ATOM     10  N   UNL     1      40.582 -25.136 -14.880  0.00  0.00    -0.083 NA
BRANCH  10  11
ATOM     11  O   UNL     1      40.619 -25.992 -15.984  0.00  0.00    -0.295 OA
ATOM     12  H   UNL     1      40.848 -25.657 -16.828  0.00  0.00    +0.238 HD
ENDBRANCH  10  11
ENDBRANCH   9  10
ENDBRANCH   6   9
ENDBRANCH   2   3
ENDBRANCH   1   2
BRANCH   1  13
ATOM     13  C   UNL     1      32.352 -25.015 -13.821  0.00  0.00    +0.242 C 
BRANCH  13  14
ATOM     14  N   UNL     1      31.260 -24.446 -14.636  0.00  0.00    -0.278 N 
ATOM     15  C   UNL     1      30.052 -25.000 -14.544  0.00  0.00    +0.119 C 
ATOM     16  C   UNL     1      31.536 -23.406 -15.421  0.00  0.00    +0.063 C 
ATOM     17  C   UNL     1      29.252 -23.400 -16.132  0.00  0.00    -0.004 C 
ATOM     18  C   UNL     1      29.006 -24.486 -15.297  0.00  0.00    -0.007 C 
ATOM     19  C   UNL     1      30.529 -22.852 -16.198  0.00  0.00    +0.013 C 
BRANCH  17  20
ATOM     20  C   UNL     1      28.176 -22.839 -16.933  0.00  0.00    +0.147 C 
BRANCH  20  21
ATOM     21  N   UNL     1      27.592 -21.712 -16.644  0.00  0.00    -0.083 NA
BRANCH  21  22
ATOM     22  O   UNL     1      26.795 -21.315 -17.721  0.00  0.00    -0.295 OA
ATOM     23  H   UNL     1      25.950 -21.701 -17.846  0.00  0.00    +0.238 HD
ENDBRANCH  21  22
ENDBRANCH  20  21
ENDBRANCH  17  20
ENDBRANCH  13  14
ENDBRANCH   1  13
TORSDOF 10
ENDMDL
MODEL 4
REMARK VINA RESULT:      -8.3      4.872      5.519
REMARK  Name = 8251
REMARK  10 active torsions:
REMARK  status: ('A' for Active; 'I' for Inactive)
REMARK    1  A    between atoms: O_1  and  C_2
REMARK    2  A    between atoms: O_1  and  C_13
REMARK    3  A    between atoms: C_2  and  N_3
REMARK    4  A    between atoms: C_6  and  C_10
REMARK    5  A    between atoms: N_9  and  C_10
REMARK    6  A    between atoms: N_9  and  O_11
REMARK    7  A    between atoms: C_13  and  N_14
REMARK    8  A    between atoms: C_17  and  C_21
REMARK    9  A    between atoms: N_20  and  C_21
REMARK   10  A    between atoms: N_20  and  O_22
REMARK                            x       y       z     vdW  Elec       q    Type
REMARK                         _______ _______ _______ _____ _____    ______ ____
ROOT
ATOM      1  O   UNL     1      33.556 -24.479 -14.151  0.00  0.00    -0.314 OA
ENDROOT
BRANCH   1   2
ATOM      2  C   UNL     1      32.284 -25.028 -13.817  0.00  0.00    +0.242 C 
BRANCH   2   3
ATOM      3  N   UNL     1      31.213 -24.466 -14.636  0.00  0.00    -0.278 N 
ATOM      4  C   UNL     1      31.483 -23.408 -15.414  0.00  0.00    +0.119 C 
ATOM      5  C   UNL     1      29.998 -25.028 -14.586  0.00  0.00    +0.063 C 
ATOM      6  C   UNL     1      29.213 -23.416 -16.171  0.00  0.00    -0.004 C 
ATOM      7  C   UNL     1      30.486 -22.854 -16.204  0.00  0.00    -0.007 C 
ATOM      8  C   UNL     1      28.962 -24.514 -15.354  0.00  0.00    +0.013 C 
BRANCH   6   9
ATOM      9  C   UNL     1      28.149 -22.858 -16.989  0.00  0.00    +0.147 C 
BRANCH   9  10
ATOM     10  N   UNL     1      27.170 -22.156 -16.495  0.00  0.00    -0.083 NA
BRANCH  10  11
ATOM     11  O   UNL     1      26.719 -21.250 -17.457  0.00  0.00    -0.295 OA
ATOM     12  H   UNL     1      26.029 -20.650 -17.250  0.00  0.00    +0.238 HD
ENDBRANCH  10  11
ENDBRANCH   9  10
ENDBRANCH   6   9
ENDBRANCH   2   3
ENDBRANCH   1   2
BRANCH   1  13
ATOM     13  C   UNL     1      34.385 -24.206 -13.023  0.00  0.00    +0.242 C 
BRANCH  13  14
ATOM     14  N   UNL     1      35.798 -24.550 -13.280  0.00  0.00    -0.278 N 
ATOM     15  C   UNL     1      36.333 -24.185 -14.444  0.00  0.00    +0.119 C 
ATOM     16  C   UNL     1      36.467 -25.208 -12.335  0.00  0.00    +0.063 C 
ATOM     17  C   UNL     1      38.395 -25.182 -13.752  0.00  0.00    -0.004 C 
ATOM     18  C   UNL     1      37.659 -24.494 -14.713  0.00  0.00    -0.007 C 
ATOM     19  C   UNL     1      37.796 -25.546 -12.550  0.00  0.00    +0.013 C 
BRANCH  17  20
ATOM     20  C   UNL     1      39.786 -25.520 -14.005  0.00  0.00    +0.147 C 
BRANCH  20  21
ATOM     21  N   UNL     1      40.147 -26.521 -14.755  0.00  0.00    -0.083 NA
BRANCH  21  22
ATOM     22  O   UNL     1      40.557 -26.040 -16.001  0.00  0.00    -0.295 OA
ATOM     23  H   UNL     1      41.227 -25.387 -16.054  0.00  0.00    +0.238 HD
ENDBRANCH  21  22
ENDBRANCH  20  21
ENDBRANCH  17  20
ENDBRANCH  13  14
ENDBRANCH   1  13
TORSDOF 10
ENDMDL
MODEL 5
REMARK VINA RESULT:      -8.3      2.322      8.118
REMARK  Name = 8251
REMARK  10 active torsions:
REMARK  status: ('A' for Active; 'I' for Inactive)
REMARK    1  A    between atoms: O_1  and  C_2
REMARK    2  A    between atoms: O_1  and  C_13
REMARK    3  A    between atoms: C_2  and  N_3
REMARK    4  A    between atoms: C_6  and  C_10
REMARK    5  A    between atoms: N_9  and  C_10
REMARK    6  A    between atoms: N_9  and  O_11
REMARK    7  A    between atoms: C_13  and  N_14
REMARK    8  A    between atoms: C_17  and  C_21
REMARK    9  A    between atoms: N_20  and  C_21
REMARK   10  A    between atoms: N_20  and  O_22
REMARK                            x       y       z     vdW  Elec       q    Type
REMARK                         _______ _______ _______ _____ _____    ______ ____
ROOT
ATOM      1  O   UNL     1      34.601 -22.833 -17.784  0.00  0.00    -0.314 OA
ENDROOT
BRANCH   1   2
ATOM      2  C   UNL     1      33.981 -23.296 -16.587  0.00  0.00    +0.242 C 
BRANCH   2   3
ATOM      3  N   UNL     1      34.948 -23.483 -15.508  0.00  0.00    -0.278 N 
ATOM      4  C   UNL     1      36.201 -23.038 -15.679  0.00  0.00    +0.119 C 
ATOM      5  C   UNL     1      34.551 -24.092 -14.382  0.00  0.00    +0.063 C 
ATOM      6  C   UNL     1      36.756 -23.831 -13.491  0.00  0.00    -0.004 C 
ATOM      7  C   UNL     1      37.141 -23.202 -14.672  0.00  0.00    -0.007 C 
ATOM      8  C   UNL     1      35.449 -24.283 -13.341  0.00  0.00    +0.013 C 
BRANCH   6   9
ATOM      9  C   UNL     1      37.718 -24.015 -12.417  0.00  0.00    +0.147 C 
BRANCH   9  10
ATOM     10  N   UNL     1      38.278 -23.020 -11.790  0.00  0.00    -0.083 NA
BRANCH  10  11
ATOM     11  O   UNL     1      37.306 -22.319 -11.073  0.00  0.00    -0.295 OA
ATOM     12  H   UNL     1      37.097 -21.436 -11.306  0.00  0.00    +0.238 HD
ENDBRANCH  10  11
ENDBRANCH   9  10
ENDBRANCH   6   9
ENDBRANCH   2   3
ENDBRANCH   1   2
BRANCH   1  13
ATOM     13  C   UNL     1      33.681 -22.399 -18.783  0.00  0.00    +0.242 C 
BRANCH  13  14
ATOM     14  N   UNL     1      34.234 -21.303 -19.604  0.00  0.00    -0.278 N 
ATOM     15  C   UNL     1      33.382 -20.482 -20.215  0.00  0.00    +0.119 C 
ATOM     16  C   UNL     1      35.559 -21.190 -19.692  0.00  0.00    +0.063 C 
ATOM     17  C   UNL     1      35.252 -19.290 -21.113  0.00  0.00    -0.004 C 
ATOM     18  C   UNL     1      33.874 -19.443 -20.993  0.00  0.00    -0.007 C 
ATOM     19  C   UNL     1      36.107 -20.171 -20.458  0.00  0.00    +0.013 C 
BRANCH  17  20
ATOM     20  C   UNL     1      35.797 -18.210 -21.920  0.00  0.00    +0.147 C 
BRANCH  20  21
ATOM     21  N   UNL     1      35.085 -17.195 -22.319  0.00  0.00    -0.083 NA
BRANCH  21  22
ATOM     22  O   UNL     1      35.770 -16.521 -23.333  0.00  0.00    -0.295 OA
ATOM     23  H   UNL     1      35.994 -15.618 -23.227  0.00  0.00    +0.238 HD
ENDBRANCH  21  22
ENDBRANCH  20  21
ENDBRANCH  17  20
ENDBRANCH  13  14
ENDBRANCH   1  13
TORSDOF 10
ENDMDL
MODEL 6
REMARK VINA RESULT:      -8.2      2.300      2.591
REMARK  Name = 8251
REMARK  10 active torsions:
REMARK  status: ('A' for Active; 'I' for Inactive)
REMARK    1  A    between atoms: O_1  and  C_2
REMARK    2  A    between atoms: O_1  and  C_13
REMARK    3  A    between atoms: C_2  and  N_3
REMARK    4  A    between atoms: C_6  and  C_10
REMARK    5  A    between atoms: N_9  and  C_10
REMARK    6  A    between atoms: N_9  and  O_11
REMARK    7  A    between atoms: C_13  and  N_14
REMARK    8  A    between atoms: C_17  and  C_21
REMARK    9  A    between atoms: N_20  and  C_21
REMARK   10  A    between atoms: N_20  and  O_22
REMARK                            x       y       z     vdW  Elec       q    Type
REMARK                         _______ _______ _______ _____ _____    ______ ____
ROOT
ATOM      1  O   UNL     1      34.668 -22.741 -17.752  0.00  0.00    -0.314 OA
ENDROOT
BRANCH   1   2
ATOM      2  C   UNL     1      33.750 -22.422 -18.795  0.00  0.00    +0.242 C 
BRANCH   2   3
ATOM      3  N   UNL     1      34.243 -21.341 -19.645  0.00  0.00    -0.278 N 
ATOM      4  C   UNL     1      35.566 -21.174 -19.776  0.00  0.00    +0.119 C 
ATOM      5  C   UNL     1      33.355 -20.554 -20.269  0.00  0.00    +0.063 C 
ATOM      6  C   UNL     1      35.164 -19.322 -21.236  0.00  0.00    -0.004 C 
ATOM      7  C   UNL     1      36.062 -20.156 -20.577  0.00  0.00    -0.007 C 
ATOM      8  C   UNL     1      33.795 -19.519 -21.082  0.00  0.00    +0.013 C 
BRANCH   6   9
ATOM      9  C   UNL     1      35.654 -18.248 -22.084  0.00  0.00    +0.147 C 
BRANCH   9  10
ATOM     10  N   UNL     1      34.943 -17.197 -22.379  0.00  0.00    -0.083 NA
BRANCH  10  11
ATOM     11  O   UNL     1      35.692 -16.347 -23.196  0.00  0.00    -0.295 OA
ATOM     12  H   UNL     1      36.626 -16.331 -23.125  0.00  0.00    +0.238 HD
ENDBRANCH  10  11
ENDBRANCH   9  10
ENDBRANCH   6   9
ENDBRANCH   2   3
ENDBRANCH   1   2
BRANCH   1  13
ATOM     13  C   UNL     1      34.051 -23.246 -16.570  0.00  0.00    +0.242 C 
BRANCH  13  14
ATOM     14  N   UNL     1      35.029 -23.455 -15.483  0.00  0.00    -0.278 N 
ATOM     15  C   UNL     1      36.311 -23.199 -15.732  0.00  0.00    +0.119 C 
ATOM     16  C   UNL     1      34.578 -23.889 -14.307  0.00  0.00    +0.063 C 
ATOM     17  C   UNL     1      36.824 -23.840 -13.485  0.00  0.00    -0.004 C 
ATOM     18  C   UNL     1      37.252 -23.386 -14.729  0.00  0.00    -0.007 C 
ATOM     19  C   UNL     1      35.474 -24.096 -13.268  0.00  0.00    +0.013 C 
BRANCH  17  20
ATOM     20  C   UNL     1      37.786 -24.045 -12.414  0.00  0.00    +0.147 C 
BRANCH  20  21
ATOM     21  N   UNL     1      38.340 -23.064 -11.762  0.00  0.00    -0.083 NA
BRANCH  21  22
ATOM     22  O   UNL     1      37.348 -22.320 -11.116  0.00  0.00    -0.295 OA
ATOM     23  H   UNL     1      36.444 -22.484 -11.302  0.00  0.00    +0.238 HD
ENDBRANCH  21  22
ENDBRANCH  20  21
ENDBRANCH  17  20
ENDBRANCH  13  14
ENDBRANCH   1  13
TORSDOF 10
ENDMDL
MODEL 7
REMARK VINA RESULT:      -7.9      4.368      7.666
REMARK  Name = 8251
REMARK  10 active torsions:
REMARK  status: ('A' for Active; 'I' for Inactive)
REMARK    1  A    between atoms: O_1  and  C_2
REMARK    2  A    between atoms: O_1  and  C_13
REMARK    3  A    between atoms: C_2  and  N_3
REMARK    4  A    between atoms: C_6  and  C_10
REMARK    5  A    between atoms: N_9  and  C_10
REMARK    6  A    between atoms: N_9  and  O_11
REMARK    7  A    between atoms: C_13  and  N_14
REMARK    8  A    between atoms: C_17  and  C_21
REMARK    9  A    between atoms: N_20  and  C_21
REMARK   10  A    between atoms: N_20  and  O_22
REMARK                            x       y       z     vdW  Elec       q    Type
REMARK                         _______ _______ _______ _____ _____    ______ ____
ROOT
ATOM      1  O   UNL     1      34.359 -17.547 -21.751  0.00  0.00    -0.314 OA
ENDROOT
BRANCH   1   2
ATOM      2  C   UNL     1      34.961 -16.306 -22.110  0.00  0.00    +0.242 C 
BRANCH   2   3
ATOM      3  N   UNL     1      34.359 -15.734 -23.311  0.00  0.00    -0.278 N 
ATOM      4  C   UNL     1      34.393 -16.439 -24.450  0.00  0.00    +0.119 C 
ATOM      5  C   UNL     1      33.790 -14.523 -23.234  0.00  0.00    +0.063 C 
ATOM      6  C   UNL     1      33.232 -14.665 -25.556  0.00  0.00    -0.004 C 
ATOM      7  C   UNL     1      33.829 -15.921 -25.606  0.00  0.00    -0.007 C 
ATOM      8  C   UNL     1      33.211 -13.955 -24.360  0.00  0.00    +0.013 C 
BRANCH   6   9
ATOM      9  C   UNL     1      32.630 -14.096 -26.752  0.00  0.00    +0.147 C 
BRANCH   9  10
ATOM     10  N   UNL     1      33.130 -13.068 -27.376  0.00  0.00    -0.083 NA
BRANCH  10  11
ATOM     11  O   UNL     1      34.263 -13.467 -28.090  0.00  0.00    -0.295 OA
ATOM     12  H   UNL     1      34.168 -13.920 -28.905  0.00  0.00    +0.238 HD
ENDBRANCH  10  11
ENDBRANCH   9  10
ENDBRANCH   6   9
ENDBRANCH   2   3
ENDBRANCH   1   2
BRANCH   1  13
ATOM     13  C   UNL     1      35.251 -18.658 -21.788  0.00  0.00    +0.242 C 
BRANCH  13  14
ATOM     14  N   UNL     1      34.839 -19.729 -20.859  0.00  0.00    -0.278 N 
ATOM     15  C   UNL     1      33.537 -19.941 -20.680  0.00  0.00    +0.119 C 
ATOM     16  C   UNL     1      35.791 -20.432 -20.246  0.00  0.00    +0.063 C 
ATOM     17  C   UNL     1      34.082 -21.699 -19.151  0.00  0.00    -0.004 C 
ATOM     18  C   UNL     1      33.120 -20.942 -19.813  0.00  0.00    -0.007 C 
ATOM     19  C   UNL     1      35.433 -21.443 -19.366  0.00  0.00    +0.013 C 
BRANCH  17  20
ATOM     20  C   UNL     1      33.677 -22.754 -18.237  0.00  0.00    +0.147 C 
BRANCH  20  21
ATOM     21  N   UNL     1      33.701 -24.016 -18.557  0.00  0.00    -0.083 NA
BRANCH  21  22
ATOM     22  O   UNL     1      34.009 -24.142 -19.915  0.00  0.00    -0.295 OA
ATOM     23  H   UNL     1      33.322 -24.246 -20.543  0.00  0.00    +0.238 HD
ENDBRANCH  21  22
ENDBRANCH  20  21
ENDBRANCH  17  20
ENDBRANCH  13  14
ENDBRANCH   1  13
TORSDOF 10
ENDMDL
MODEL 8
REMARK VINA RESULT:      -7.9      4.398      7.687
REMARK  Name = 8251
REMARK  10 active torsions:
REMARK  status: ('A' for Active; 'I' for Inactive)
REMARK    1  A    between atoms: O_1  and  C_2
REMARK    2  A    between atoms: O_1  and  C_13
REMARK    3  A    between atoms: C_2  and  N_3
REMARK    4  A    between atoms: C_6  and  C_10
REMARK    5  A    between atoms: N_9  and  C_10
REMARK    6  A    between atoms: N_9  and  O_11
REMARK    7  A    between atoms: C_13  and  N_14
REMARK    8  A    between atoms: C_17  and  C_21
REMARK    9  A    between atoms: N_20  and  C_21
REMARK   10  A    between atoms: N_20  and  O_22
REMARK                            x       y       z     vdW  Elec       q    Type
REMARK                         _______ _______ _______ _____ _____    ______ ____
ROOT
ATOM      1  O   UNL     1      35.310 -17.200 -21.631  0.00  0.00    -0.314 OA
ENDROOT
BRANCH   1   2
ATOM      2  C   UNL     1      34.911 -16.480 -22.796  0.00  0.00    +0.242 C 
BRANCH   2   3
ATOM      3  N   UNL     1      34.030 -15.361 -22.472  0.00  0.00    -0.278 N 
ATOM      4  C   UNL     1      33.565 -14.596 -23.469  0.00  0.00    +0.119 C 
ATOM      5  C   UNL     1      33.714 -15.138 -21.189  0.00  0.00    +0.063 C 
ATOM      6  C   UNL     1      32.381 -13.270 -21.868  0.00  0.00    -0.004 C 
ATOM      7  C   UNL     1      32.726 -13.527 -23.192  0.00  0.00    -0.007 C 
ATOM      8  C   UNL     1      32.880 -14.081 -20.853  0.00  0.00    +0.013 C 
BRANCH   6   9
ATOM      9  C   UNL     1      31.502 -12.158 -21.546  0.00  0.00    +0.147 C 
BRANCH   9  10
ATOM     10  N   UNL     1      31.547 -11.016 -22.172  0.00  0.00    -0.083 NA
BRANCH  10  11
ATOM     11  O   UNL     1      31.832  -9.999 -21.258  0.00  0.00    -0.295 OA
ATOM     12  H   UNL     1      32.559  -9.427 -21.406  0.00  0.00    +0.238 HD
ENDBRANCH  10  11
ENDBRANCH   9  10
ENDBRANCH   6   9
ENDBRANCH   2   3
ENDBRANCH   1   2
BRANCH   1  13
ATOM     13  C   UNL     1      35.798 -18.512 -21.898  0.00  0.00    +0.242 C 
BRANCH  13  14
ATOM     14  N   UNL     1      35.144 -19.528 -21.049  0.00  0.00    -0.278 N 
ATOM     15  C   UNL     1      33.814 -19.535 -20.987  0.00  0.00    +0.119 C 
ATOM     16  C   UNL     1      35.918 -20.389 -20.389  0.00  0.00    +0.063 C 
ATOM     17  C   UNL     1      33.942 -21.397 -19.491  0.00  0.00    -0.004 C 
ATOM     18  C   UNL     1      33.172 -20.479 -20.198  0.00  0.00    -0.007 C 
ATOM     19  C   UNL     1      35.330 -21.354 -19.584  0.00  0.00    +0.013 C 
BRANCH  17  20
ATOM     20  C   UNL     1      33.298 -22.398 -18.656  0.00  0.00    +0.147 C 
BRANCH  20  21
ATOM     21  N   UNL     1      33.767 -23.604 -18.508  0.00  0.00    -0.083 NA
BRANCH  21  22
ATOM     22  O   UNL     1      34.251 -23.754 -17.205  0.00  0.00    -0.295 OA
ATOM     23  H   UNL     1      34.655 -23.030 -16.769  0.00  0.00    +0.238 HD
ENDBRANCH  21  22
ENDBRANCH  20  21
ENDBRANCH  17  20
ENDBRANCH  13  14
ENDBRANCH   1  13
TORSDOF 10
ENDMDL
MODEL 9
REMARK VINA RESULT:      -7.9      4.574     10.856
REMARK  Name = 8251
REMARK  10 active torsions:
REMARK  status: ('A' for Active; 'I' for Inactive)
REMARK    1  A    between atoms: O_1  and  C_2
REMARK    2  A    between atoms: O_1  and  C_13
REMARK    3  A    between atoms: C_2  and  N_3
REMARK    4  A    between atoms: C_6  and  C_10
REMARK    5  A    between atoms: N_9  and  C_10
REMARK    6  A    between atoms: N_9  and  O_11
REMARK    7  A    between atoms: C_13  and  N_14
REMARK    8  A    between atoms: C_17  and  C_21
REMARK    9  A    between atoms: N_20  and  C_21
REMARK   10  A    between atoms: N_20  and  O_22
REMARK                            x       y       z     vdW  Elec       q    Type
REMARK                         _______ _______ _______ _____ _____    ______ ____
ROOT
ATOM      1  O   UNL     1      34.395 -17.421 -22.611  0.00  0.00    -0.314 OA
ENDROOT
BRANCH   1   2
ATOM      2  C   UNL     1      35.436 -18.205 -22.032  0.00  0.00    +0.242 C 
BRANCH   2   3
ATOM      3  N   UNL     1      34.910 -19.283 -21.199  0.00  0.00    -0.278 N 
ATOM      4  C   UNL     1      35.772 -20.085 -20.560  0.00  0.00    +0.119 C 
ATOM      5  C   UNL     1      33.582 -19.433 -21.099  0.00  0.00    +0.063 C 
ATOM      6  C   UNL     1      33.926 -21.297 -19.640  0.00  0.00    -0.004 C 
ATOM      7  C   UNL     1      35.301 -21.117 -19.762  0.00  0.00    -0.007 C 
ATOM      8  C   UNL     1      33.054 -20.449 -20.315  0.00  0.00    +0.013 C 
BRANCH   6   9
ATOM      9  C   UNL     1      33.403 -22.369 -18.809  0.00  0.00    +0.147 C 
BRANCH   9  10
ATOM     10  N   UNL     1      34.013 -23.510 -18.656  0.00  0.00    -0.083 NA
BRANCH  10  11
ATOM     11  O   UNL     1      33.935 -24.239 -19.845  0.00  0.00    -0.295 OA
ATOM     12  H   UNL     1      34.029 -23.803 -20.669  0.00  0.00    +0.238 HD
ENDBRANCH  10  11
ENDBRANCH   9  10
ENDBRANCH   6   9
ENDBRANCH   2   3
ENDBRANCH   1   2
BRANCH   1  13
ATOM     13  C   UNL     1      34.845 -16.210 -23.212  0.00  0.00    +0.242 C 
BRANCH  13  14
ATOM     14  N   UNL     1      33.974 -15.067 -22.872  0.00  0.00    -0.278 N 
ATOM     15  C   UNL     1      33.229 -15.149 -21.771  0.00  0.00    +0.119 C 
ATOM     16  C   UNL     1      33.978 -14.010 -23.683  0.00  0.00    +0.063 C 
ATOM     17  C   UNL     1      32.373 -12.966 -22.247  0.00  0.00    -0.004 C 
ATOM     18  C   UNL     1      32.400 -14.090 -21.427  0.00  0.00    -0.007 C 
ATOM     19  C   UNL     1      33.168 -12.922 -23.389  0.00  0.00    +0.013 C 
BRANCH  17  20
ATOM     20  C   UNL     1      31.516 -11.841 -21.912  0.00  0.00    +0.147 C 
BRANCH  20  21
ATOM     21  N   UNL     1      31.228 -11.510 -20.687  0.00  0.00    -0.083 NA
BRANCH  21  22
ATOM     22  O   UNL     1      31.737 -10.236 -20.420  0.00  0.00    -0.295 OA
ATOM     23  H   UNL     1      31.341  -9.702 -19.760  0.00  0.00    +0.238 HD
ENDBRANCH  21  22
ENDBRANCH  20  21
ENDBRANCH  17  20
ENDBRANCH  13  14
ENDBRANCH   1  13
TORSDOF 10
ENDMDL
