MODEL 1
REMARK VINA RESULT:      -9.9      0.000      0.000
REMARK  Name = 25262965
REMARK  4 active torsions:
REMARK  status: ('A' for Active; 'I' for Inactive)
REMARK    1  A    between atoms: C_23  and  C_25
REMARK    2  A    between atoms: C_28  and  C_33
REMARK    3  A    between atoms: C_29  and  O_31
REMARK    4  A    between atoms: C_33  and  O_34
REMARK                            x       y       z     vdW  Elec       q    Type
REMARK                         _______ _______ _______ _____ _____    ______ ____
ROOT
ATOM      1  O   UNL     1      37.713 -24.865 -13.030  0.00  0.00    -0.350 OA
ATOM      2  O   UNL     1      28.748 -25.213 -14.748  0.00  0.00    -0.350 OA
ATOM      3  N   UNL     1      35.862 -24.116 -15.011  0.00  0.00    -0.282 N 
ATOM      4  N   UNL     1      31.216 -24.058 -15.438  0.00  0.00    -0.230 N 
ATOM      5  N   UNL     1      33.528 -24.097 -15.208  0.00  0.00    -0.315 NA
ATOM      6  N   UNL     1      32.481 -22.885 -17.007  0.00  0.00    -0.265 NA
ATOM      7  N   UNL     1      33.732 -21.720 -18.570  0.00  0.00    -0.342 NA
ATOM      8  C   UNL     1      36.071 -25.547 -14.709  0.00  0.00    +0.105 C 
ATOM      9  C   UNL     1      31.036 -24.648 -14.098  0.00  0.00    +0.114 C 
ATOM     10  C   UNL     1      36.263 -23.173 -13.954  0.00  0.00    +0.125 C 
ATOM     11  C   UNL     1      37.484 -25.738 -14.134  0.00  0.00    +0.162 C 
ATOM     12  C   UNL     1      34.713 -23.692 -15.698  0.00  0.00    +0.194 C 
ATOM     13  C   UNL     1      29.983 -23.641 -16.124  0.00  0.00    +0.135 C 
ATOM     14  C   UNL     1      29.952 -25.731 -14.180  0.00  0.00    +0.163 C 
ATOM     15  C   UNL     1      37.661 -23.505 -13.457  0.00  0.00    +0.164 C 
ATOM     16  C   UNL     1      32.468 -23.662 -15.903  0.00  0.00    +0.213 C 
ATOM     17  C   UNL     1      28.969 -24.779 -16.090  0.00  0.00    +0.164 C 
ATOM     18  C   UNL     1      35.948 -26.426 -15.958  0.00  0.00    +0.024 C 
ATOM     19  C   UNL     1      34.847 -22.889 -16.828  0.00  0.00    +0.199 C 
ATOM     20  C   UNL     1      30.662 -23.572 -13.072  0.00  0.00    +0.025 C 
ATOM     21  C   UNL     1      33.672 -22.492 -17.477  0.00  0.00    +0.138 C 
ATOM     22  C   UNL     1      36.091 -22.474 -17.325  0.00  0.00    +0.002 C 
ATOM     23  C   UNL     1      34.943 -21.330 -19.036  0.00  0.00    +0.143 C 
ATOM     24  C   UNL     1      36.144 -21.677 -18.455  0.00  0.00    +0.030 C 
ENDROOT
BRANCH  23  25
ATOM     25  C   UNL     1      34.900 -20.498 -20.214  0.00  0.00    +0.030 C 
ATOM     26  C   UNL     1      36.065 -19.891 -20.683  0.00  0.00    +0.004 C 
ATOM     27  C   UNL     1      33.693 -20.301 -20.885  0.00  0.00    +0.006 C 
ATOM     28  C   UNL     1      36.023 -19.087 -21.822  0.00  0.00    +0.041 C 
ATOM     29  C   UNL     1      34.816 -18.890 -22.492  0.00  0.00    +0.137 C 
ATOM     30  C   UNL     1      33.650 -19.497 -22.023  0.00  0.00    +0.037 C 
BRANCH  29  31
ATOM     31  O   UNL     1      34.757 -18.107 -23.606  0.00  0.00    -0.472 OA
ATOM     32  C   UNL     1      34.413 -18.751 -24.832  0.00  0.00    +0.252 C 
ENDBRANCH  29  31
BRANCH  28  33
ATOM     33  C   UNL     1      37.280 -18.445 -22.310  0.00  0.00    +0.167 C 
BRANCH  33  34
ATOM     34  O   UNL     1      38.385 -18.959 -21.578  0.00  0.00    -0.377 OA
ATOM     35  H   UNL     1      38.998 -18.237 -21.370  0.00  0.00    +0.211 HD
ENDBRANCH  33  34
ENDBRANCH  28  33
ENDBRANCH  23  25
TORSDOF 4
ENDMDL
MODEL 2
REMARK VINA RESULT:      -8.6      1.261      4.874
REMARK  Name = 25262965
REMARK  4 active torsions:
REMARK  status: ('A' for Active; 'I' for Inactive)
REMARK    1  A    between atoms: C_23  and  C_25
REMARK    2  A    between atoms: C_28  and  C_33
REMARK    3  A    between atoms: C_29  and  O_31
REMARK    4  A    between atoms: C_33  and  O_34
REMARK                            x       y       z     vdW  Elec       q    Type
REMARK                         _______ _______ _______ _____ _____    ______ ____
ROOT
ATOM      1  O   UNL     1      29.717 -25.416 -13.897  0.00  0.00    -0.350 OA
ATOM      2  O   UNL     1      38.806 -25.534 -12.996  0.00  0.00    -0.350 OA
ATOM      3  N   UNL     1      32.012 -24.218 -14.995  0.00  0.00    -0.282 N 
ATOM      4  N   UNL     1      36.628 -24.786 -14.607  0.00  0.00    -0.230 N 
ATOM      5  N   UNL     1      34.326 -24.515 -14.785  0.00  0.00    -0.315 NA
ATOM      6  N   UNL     1      35.822 -23.477 -16.361  0.00  0.00    -0.265 NA
ATOM      7  N   UNL     1      35.029 -22.174 -18.104  0.00  0.00    -0.342 NA
ATOM      8  C   UNL     1      31.667 -23.975 -13.579  0.00  0.00    +0.105 C 
ATOM      9  C   UNL     1      36.462 -25.858 -13.608  0.00  0.00    +0.114 C 
ATOM     10  C   UNL     1      31.426 -25.425 -15.600  0.00  0.00    +0.125 C 
ATOM     11  C   UNL     1      30.151 -24.154 -13.394  0.00  0.00    +0.162 C 
ATOM     12  C   UNL     1      33.310 -23.960 -15.467  0.00  0.00    +0.194 C 
ATOM     13  C   UNL     1      38.005 -24.543 -15.061  0.00  0.00    +0.135 C 
ATOM     14  C   UNL     1      37.478 -25.640 -12.479  0.00  0.00    +0.163 C 
ATOM     15  C   UNL     1      29.935 -25.488 -15.305  0.00  0.00    +0.164 C 
ATOM     16  C   UNL     1      35.539 -24.235 -15.281  0.00  0.00    +0.213 C 
ATOM     17  C   UNL     1      38.925 -24.400 -13.854  0.00  0.00    +0.164 C 
ATOM     18  C   UNL     1      32.032 -22.556 -13.129  0.00  0.00    +0.024 C 
ATOM     19  C   UNL     1      33.482 -23.161 -16.594  0.00  0.00    +0.199 C 
ATOM     20  C   UNL     1      36.641 -27.237 -14.251  0.00  0.00    +0.025 C 
ATOM     21  C   UNL     1      34.794 -22.935 -17.026  0.00  0.00    +0.138 C 
ATOM     22  C   UNL     1      32.410 -22.590 -17.296  0.00  0.00    +0.002 C 
ATOM     23  C   UNL     1      33.981 -21.630 -18.768  0.00  0.00    +0.143 C 
ATOM     24  C   UNL     1      32.662 -21.806 -18.408  0.00  0.00    +0.030 C 
ENDROOT
BRANCH  23  25
ATOM     25  C   UNL     1      34.338 -20.833 -19.916  0.00  0.00    +0.030 C 
ATOM     26  C   UNL     1      35.667 -20.463 -20.123  0.00  0.00    +0.004 C 
ATOM     27  C   UNL     1      33.354 -20.430 -20.819  0.00  0.00    +0.006 C 
ATOM     28  C   UNL     1      36.012 -19.691 -21.233  0.00  0.00    +0.041 C 
ATOM     29  C   UNL     1      35.028 -19.289 -22.135  0.00  0.00    +0.137 C 
ATOM     30  C   UNL     1      33.698 -19.658 -21.928  0.00  0.00    +0.037 C 
BRANCH  29  31
ATOM     31  O   UNL     1      35.347 -18.535 -23.224  0.00  0.00    -0.472 OA
ATOM     32  C   UNL     1      34.572 -18.740 -24.404  0.00  0.00    +0.252 C 
ENDBRANCH  29  31
BRANCH  28  33
ATOM     33  C   UNL     1      37.440 -19.305 -21.439  0.00  0.00    +0.167 C 
BRANCH  33  34
ATOM     34  O   UNL     1      37.503 -18.184 -22.310  0.00  0.00    -0.377 OA
ATOM     35  H   UNL     1      37.230 -18.453 -23.202  0.00  0.00    +0.211 HD
ENDBRANCH  33  34
ENDBRANCH  28  33
ENDBRANCH  23  25
TORSDOF 4
ENDMDL
