MODEL 1
REMARK VINA RESULT:     -10.4      0.000      0.000
REMARK  Name = 3964
REMARK  0 active torsions:
REMARK  status: ('A' for Active; 'I' for Inactive)
REMARK                            x       y       z     vdW  Elec       q    Type
REMARK                         _______ _______ _______ _____ _____    ______ ____
ROOT
ATOM      1 CL   UNL     1      33.404 -22.208 -19.758  0.00  0.00    -0.082 Cl
ATOM      2  O   UNL     1      36.873 -22.825 -15.053  0.00  0.00    -0.451 OA
ATOM      3  N   UNL     1      32.928 -23.925 -14.680  0.00  0.00    -0.288 N 
ATOM      4  N   UNL     1      30.081 -23.817 -14.753  0.00  0.00    +0.388 N 
ATOM      5  N   UNL     1      34.981 -24.863 -14.232  0.00  0.00    -0.384 NA
ATOM      6  C   UNL     1      32.250 -22.633 -14.784  0.00  0.00    +0.070 C 
ATOM      7  C   UNL     1      32.143 -24.986 -14.053  0.00  0.00    +0.070 C 
ATOM      8  C   UNL     1      30.886 -22.808 -15.454  0.00  0.00    -0.056 C 
ATOM      9  C   UNL     1      30.782 -25.110 -14.739  0.00  0.00    -0.056 C 
ATOM     10  C   UNL     1      34.251 -24.078 -14.980  0.00  0.00    +0.186 C 
ATOM     11  C   UNL     1      28.766 -23.951 -15.377  0.00  0.00    -0.101 C 
ATOM     12  C   UNL     1      34.767 -23.317 -16.155  0.00  0.00    +0.079 C 
ATOM     13  C   UNL     1      36.028 -22.715 -16.130  0.00  0.00    +0.149 C 
ATOM     14  C   UNL     1      36.346 -25.108 -14.449  0.00  0.00    +0.167 C 
ATOM     15  C   UNL     1      33.958 -23.159 -17.288  0.00  0.00    +0.018 C 
ATOM     16  C   UNL     1      37.267 -24.118 -14.808  0.00  0.00    +0.171 C 
ATOM     17  C   UNL     1      36.465 -21.934 -17.203  0.00  0.00    +0.038 C 
ATOM     18  C   UNL     1      34.404 -22.396 -18.368  0.00  0.00    +0.058 C 
ATOM     19  C   UNL     1      35.653 -21.780 -18.324  0.00  0.00    +0.015 C 
ATOM     20  C   UNL     1      36.828 -26.400 -14.204  0.00  0.00    +0.031 C 
ATOM     21  C   UNL     1      38.633 -24.399 -14.907  0.00  0.00    +0.019 C 
ATOM     22  C   UNL     1      38.188 -26.694 -14.322  0.00  0.00    -0.019 C 
ATOM     23  C   UNL     1      39.091 -25.693 -14.669  0.00  0.00    +0.055 C 
ATOM     24  H   UNL     1      29.947 -23.512 -13.789  0.00  0.00    -0.080 HD
ENDROOT
TORSDOF 0
ENDMDL
MODEL 2
REMARK VINA RESULT:      -9.2      1.974      5.794
REMARK  Name = 3964
REMARK  0 active torsions:
REMARK  status: ('A' for Active; 'I' for Inactive)
REMARK                            x       y       z     vdW  Elec       q    Type
REMARK                         _______ _______ _______ _____ _____    ______ ____
ROOT
ATOM      1 CL   UNL     1      37.194 -21.112 -17.778  0.00  0.00    -0.082 Cl
ATOM      2  O   UNL     1      32.113 -24.023 -17.273  0.00  0.00    -0.451 OA
ATOM      3  N   UNL     1      34.906 -24.516 -14.296  0.00  0.00    -0.288 N 
ATOM      4  N   UNL     1      37.373 -25.062 -12.978  0.00  0.00    +0.388 N 
ATOM      5  N   UNL     1      32.667 -24.001 -14.427  0.00  0.00    -0.384 NA
ATOM      6  C   UNL     1      35.965 -25.238 -15.001  0.00  0.00    +0.070 C 
ATOM      7  C   UNL     1      34.943 -24.633 -12.839  0.00  0.00    +0.070 C 
ATOM      8  C   UNL     1      37.332 -24.854 -14.432  0.00  0.00    -0.056 C 
ATOM      9  C   UNL     1      36.332 -24.261 -12.316  0.00  0.00    -0.056 C 
ATOM     10  C   UNL     1      33.862 -23.933 -14.953  0.00  0.00    +0.186 C 
ATOM     11  C   UNL     1      38.694 -24.728 -12.447  0.00  0.00    -0.101 C 
ATOM     12  C   UNL     1      34.174 -23.257 -16.246  0.00  0.00    +0.079 C 
ATOM     13  C   UNL     1      33.308 -23.350 -17.338  0.00  0.00    +0.149 C 
ATOM     14  C   UNL     1      31.522 -23.430 -15.003  0.00  0.00    +0.167 C 
ATOM     15  C   UNL     1      35.379 -22.556 -16.388  0.00  0.00    +0.018 C 
ATOM     16  C   UNL     1      31.234 -23.472 -16.371  0.00  0.00    +0.171 C 
ATOM     17  C   UNL     1      33.652 -22.785 -18.569  0.00  0.00    +0.038 C 
ATOM     18  C   UNL     1      35.712 -21.974 -17.613  0.00  0.00    +0.058 C 
ATOM     19  C   UNL     1      34.853 -22.092 -18.703  0.00  0.00    +0.015 C 
ATOM     20  C   UNL     1      30.570 -22.862 -14.146  0.00  0.00    +0.031 C 
ATOM     21  C   UNL     1      30.027 -22.980 -16.875  0.00  0.00    +0.019 C 
ATOM     22  C   UNL     1      29.371 -22.348 -14.644  0.00  0.00    -0.019 C 
ATOM     23  C   UNL     1      29.097 -22.411 -16.008  0.00  0.00    +0.055 C 
ATOM     24  H   UNL     1      37.193 -26.048 -12.786  0.00  0.00    -0.080 HD
ENDROOT
TORSDOF 0
ENDMDL
