MODEL 1
REMARK VINA RESULT:      -8.2      0.000      0.000
REMARK  Name = 16129580
REMARK  7 active torsions:
REMARK  status: ('A' for Active; 'I' for Inactive)
REMARK    1  A    between atoms: S_1  and  C_4
REMARK    2  A    between atoms: S_1  and  C_12
REMARK    3  A    between atoms: C_9  and  O_10
REMARK    4  A    between atoms: C_12  and  C_15
REMARK    5  A    between atoms: C_12  and  C_16
REMARK    6  A    between atoms: C_16  and  C_18
REMARK    7  A    between atoms: C_18  and  O_19
REMARK                            x       y       z     vdW  Elec       q    Type
REMARK                         _______ _______ _______ _____ _____    ______ ____
ROOT
ATOM      1  S   UNL     1      35.503 -18.531 -22.583  0.00  0.00    +0.013 S 
ATOM      2  O   UNL     1      36.823 -18.245 -22.059  0.00  0.00    -0.168 OA
ATOM      3  O   UNL     1      35.337 -19.093 -23.908  0.00  0.00    -0.168 OA
ENDROOT
BRANCH   1   4
ATOM      4  C   UNL     1      34.697 -19.591 -21.426  0.00  0.00    +0.106 C 
ATOM      5  C   UNL     1      35.462 -20.400 -20.600  0.00  0.00    +0.021 C 
ATOM      6  C   UNL     1      33.314 -19.598 -21.360  0.00  0.00    +0.021 C 
ATOM      7  C   UNL     1      34.826 -21.238 -19.685  0.00  0.00    +0.038 C 
ATOM      8  C   UNL     1      32.677 -20.436 -20.444  0.00  0.00    +0.038 C 
ATOM      9  C   UNL     1      33.433 -21.256 -19.607  0.00  0.00    +0.139 C 
BRANCH   9  10
ATOM     10  O   UNL     1      32.812 -22.073 -18.713  0.00  0.00    -0.471 OA
ATOM     11  C   UNL     1      33.641 -22.947 -17.947  0.00  0.00    +0.252 C 
ENDBRANCH   9  10
ENDBRANCH   1   4
BRANCH   1  12
ATOM     12  C   UNL     1      34.543 -17.034 -22.520  0.00  0.00    +0.211 C 
BRANCH  12  15
ATOM     13  F   UNL     1      33.292 -16.379 -20.621  0.00  0.00    -0.196 F 
ATOM     14  F   UNL     1      35.091 -15.243 -21.074  0.00  0.00    -0.196 F 
ATOM     15  C   UNL     1      34.555 -16.489 -21.097  0.00  0.00    +0.341 C 
ENDBRANCH  12  15
BRANCH  12  16
ATOM     16  C   UNL     1      35.076 -16.037 -23.553  0.00  0.00    +0.139 C 
BRANCH  16  18
ATOM     17  O   UNL     1      33.254 -15.281 -24.980  0.00  0.00    -0.250 OA
ATOM     18  C   UNL     1      34.245 -15.978 -24.815  0.00  0.00    +0.316 C 
BRANCH  18  19
ATOM     19  O   UNL     1      34.708 -16.839 -25.760  0.00  0.00    -0.480 OA
ATOM     20  H   UNL     1      35.500 -17.316 -25.610  0.00  0.00    +0.295 HD
ENDBRANCH  18  19
ENDBRANCH  16  18
ENDBRANCH  12  16
ENDBRANCH   1  12
TORSDOF 7
ENDMDL
MODEL 2
REMARK VINA RESULT:      -7.9      1.221      1.608
REMARK  Name = 16129580
REMARK  7 active torsions:
REMARK  status: ('A' for Active; 'I' for Inactive)
REMARK    1  A    between atoms: S_1  and  C_4
REMARK    2  A    between atoms: S_1  and  C_12
REMARK    3  A    between atoms: C_9  and  O_10
REMARK    4  A    between atoms: C_12  and  C_15
REMARK    5  A    between atoms: C_12  and  C_16
REMARK    6  A    between atoms: C_16  and  C_18
REMARK    7  A    between atoms: C_18  and  O_19
REMARK                            x       y       z     vdW  Elec       q    Type
REMARK                         _______ _______ _______ _____ _____    ______ ____
ROOT
ATOM      1  S   UNL     1      35.516 -17.861 -21.430  0.00  0.00    +0.013 S 
ATOM      2  O   UNL     1      35.647 -16.914 -20.342  0.00  0.00    -0.168 OA
ATOM      3  O   UNL     1      36.669 -18.253 -22.215  0.00  0.00    -0.168 OA
ENDROOT
BRANCH   1   4
ATOM      4  C   UNL     1      34.772 -19.318 -20.770  0.00  0.00    +0.106 C 
ATOM      5  C   UNL     1      35.579 -20.304 -20.222  0.00  0.00    +0.021 C 
ATOM      6  C   UNL     1      33.394 -19.456 -20.810  0.00  0.00    +0.021 C 
ATOM      7  C   UNL     1      34.992 -21.456 -19.701  0.00  0.00    +0.038 C 
ATOM      8  C   UNL     1      32.807 -20.608 -20.287  0.00  0.00    +0.038 C 
ATOM      9  C   UNL     1      33.606 -21.608 -19.733  0.00  0.00    +0.139 C 
BRANCH   9  10
ATOM     10  O   UNL     1      33.033 -22.732 -19.224  0.00  0.00    -0.471 OA
ATOM     11  C   UNL     1      33.361 -23.076 -17.878  0.00  0.00    +0.252 C 
ENDBRANCH   9  10
ENDBRANCH   1   4
BRANCH   1  12
ATOM     12  C   UNL     1      34.291 -17.242 -22.562  0.00  0.00    +0.211 C 
BRANCH  12  15
ATOM     13  F   UNL     1      32.753 -16.226 -21.078  0.00  0.00    -0.196 F 
ATOM     14  F   UNL     1      33.087 -15.251 -22.993  0.00  0.00    -0.196 F 
ATOM     15  C   UNL     1      33.700 -15.952 -22.008  0.00  0.00    +0.341 C 
ENDBRANCH  12  15
BRANCH  12  16
ATOM     16  C   UNL     1      34.914 -17.071 -23.951  0.00  0.00    +0.139 C 
BRANCH  16  18
ATOM     17  O   UNL     1      34.452 -19.201 -25.036  0.00  0.00    -0.250 OA
ATOM     18  C   UNL     1      34.315 -17.986 -24.995  0.00  0.00    +0.316 C 
BRANCH  18  19
ATOM     19  O   UNL     1      33.623 -17.289 -25.934  0.00  0.00    -0.480 OA
ATOM     20  H   UNL     1      34.070 -16.932 -26.676  0.00  0.00    +0.295 HD
ENDBRANCH  18  19
ENDBRANCH  16  18
ENDBRANCH  12  16
ENDBRANCH   1  12
TORSDOF 7
ENDMDL
MODEL 3
REMARK VINA RESULT:      -7.8      7.127     10.425
REMARK  Name = 16129580
REMARK  7 active torsions:
REMARK  status: ('A' for Active; 'I' for Inactive)
REMARK    1  A    between atoms: S_1  and  C_4
REMARK    2  A    between atoms: S_1  and  C_12
REMARK    3  A    between atoms: C_9  and  O_10
REMARK    4  A    between atoms: C_12  and  C_15
REMARK    5  A    between atoms: C_12  and  C_16
REMARK    6  A    between atoms: C_16  and  C_18
REMARK    7  A    between atoms: C_18  and  O_19
REMARK                            x       y       z     vdW  Elec       q    Type
REMARK                         _______ _______ _______ _____ _____    ______ ____
ROOT
ATOM      1  S   UNL     1      36.190 -24.273 -14.296  0.00  0.00    +0.013 S 
ATOM      2  O   UNL     1      35.500 -23.548 -13.249  0.00  0.00    -0.168 OA
ATOM      3  O   UNL     1      35.725 -25.577 -14.725  0.00  0.00    -0.168 OA
ENDROOT
BRANCH   1   4
ATOM      4  C   UNL     1      36.260 -23.217 -15.708  0.00  0.00    +0.106 C 
ATOM      5  C   UNL     1      37.366 -22.399 -15.888  0.00  0.00    +0.021 C 
ATOM      6  C   UNL     1      35.211 -23.220 -16.612  0.00  0.00    +0.021 C 
ATOM      7  C   UNL     1      37.422 -21.563 -17.003  0.00  0.00    +0.038 C 
ATOM      8  C   UNL     1      35.268 -22.385 -17.728  0.00  0.00    +0.038 C 
ATOM      9  C   UNL     1      36.373 -21.556 -17.923  0.00  0.00    +0.139 C 
BRANCH   9  10
ATOM     10  O   UNL     1      36.429 -20.742 -19.012  0.00  0.00    -0.471 OA
ATOM     11  C   UNL     1      35.388 -20.877 -19.979  0.00  0.00    +0.252 C 
ENDBRANCH   9  10
ENDBRANCH   1   4
BRANCH   1  12
ATOM     12  C   UNL     1      37.895 -24.450 -13.820  0.00  0.00    +0.211 C 
BRANCH  12  15
ATOM     13  F   UNL     1      38.936 -23.865 -11.778  0.00  0.00    -0.196 F 
ATOM     14  F   UNL     1      38.328 -25.938 -12.031  0.00  0.00    -0.196 F 
ATOM     15  C   UNL     1      37.978 -24.658 -12.313  0.00  0.00    +0.341 C 
ENDBRANCH  12  15
BRANCH  12  16
ATOM     16  C   UNL     1      38.538 -25.587 -14.622  0.00  0.00    +0.139 C 
BRANCH  16  18
ATOM     17  O   UNL     1      40.778 -24.722 -14.219  0.00  0.00    -0.250 OA
ATOM     18  C   UNL     1      40.003 -25.359 -14.919  0.00  0.00    +0.316 C 
BRANCH  18  19
ATOM     19  O   UNL     1      40.367 -25.918 -16.103  0.00  0.00    -0.480 OA
ATOM     20  H   UNL     1      39.710 -26.194 -16.712  0.00  0.00    +0.295 HD
ENDBRANCH  18  19
ENDBRANCH  16  18
ENDBRANCH  12  16
ENDBRANCH   1  12
TORSDOF 7
ENDMDL
MODEL 4
REMARK VINA RESULT:      -7.7      6.630     10.513
REMARK  Name = 16129580
REMARK  7 active torsions:
REMARK  status: ('A' for Active; 'I' for Inactive)
REMARK    1  A    between atoms: S_1  and  C_4
REMARK    2  A    between atoms: S_1  and  C_12
REMARK    3  A    between atoms: C_9  and  O_10
REMARK    4  A    between atoms: C_12  and  C_15
REMARK    5  A    between atoms: C_12  and  C_16
REMARK    6  A    between atoms: C_16  and  C_18
REMARK    7  A    between atoms: C_18  and  O_19
REMARK                            x       y       z     vdW  Elec       q    Type
REMARK                         _______ _______ _______ _____ _____    ______ ____
ROOT
ATOM      1  S   UNL     1      37.239 -23.551 -14.613  0.00  0.00    +0.013 S 
ATOM      2  O   UNL     1      38.448 -23.935 -15.313  0.00  0.00    -0.168 OA
ATOM      3  O   UNL     1      37.249 -22.462 -13.658  0.00  0.00    -0.168 OA
ENDROOT
BRANCH   1   4
ATOM      4  C   UNL     1      36.012 -23.209 -15.834  0.00  0.00    +0.106 C 
ATOM      5  C   UNL     1      34.737 -23.730 -15.679  0.00  0.00    +0.021 C 
ATOM      6  C   UNL     1      36.342 -22.426 -16.928  0.00  0.00    +0.021 C 
ATOM      7  C   UNL     1      33.767 -23.460 -16.644  0.00  0.00    +0.038 C 
ATOM      8  C   UNL     1      35.372 -22.155 -17.892  0.00  0.00    +0.038 C 
ATOM      9  C   UNL     1      34.084 -22.672 -17.751  0.00  0.00    +0.139 C 
BRANCH   9  10
ATOM     10  O   UNL     1      33.137 -22.408 -18.691  0.00  0.00    -0.471 OA
ATOM     11  C   UNL     1      33.433 -21.386 -19.642  0.00  0.00    +0.252 C 
ENDBRANCH   9  10
ENDBRANCH   1   4
BRANCH   1  12
ATOM     12  C   UNL     1      36.603 -24.985 -13.772  0.00  0.00    +0.211 C 
BRANCH  12  15
ATOM     13  F   UNL     1      36.628 -26.541 -15.554  0.00  0.00    -0.196 F 
ATOM     14  F   UNL     1      37.032 -27.302 -13.557  0.00  0.00    -0.196 F 
ATOM     15  C   UNL     1      37.223 -26.239 -14.376  0.00  0.00    +0.341 C 
ENDBRANCH  12  15
BRANCH  12  16
ATOM     16  C   UNL     1      36.856 -24.853 -12.266  0.00  0.00    +0.139 C 
BRANCH  16  18
ATOM     17  O   UNL     1      35.276 -25.138 -10.436  0.00  0.00    -0.250 OA
ATOM     18  C   UNL     1      35.602 -24.571 -11.470  0.00  0.00    +0.316 C 
BRANCH  18  19
ATOM     19  O   UNL     1      34.834 -23.620 -12.064  0.00  0.00    -0.480 OA
ATOM     20  H   UNL     1      35.153 -23.166 -12.819  0.00  0.00    +0.295 HD
ENDBRANCH  18  19
ENDBRANCH  16  18
ENDBRANCH  12  16
ENDBRANCH   1  12
TORSDOF 7
ENDMDL
MODEL 5
REMARK VINA RESULT:      -7.5      8.970     10.841
REMARK  Name = 16129580
REMARK  7 active torsions:
REMARK  status: ('A' for Active; 'I' for Inactive)
REMARK    1  A    between atoms: S_1  and  C_4
REMARK    2  A    between atoms: S_1  and  C_12
REMARK    3  A    between atoms: C_9  and  O_10
REMARK    4  A    between atoms: C_12  and  C_15
REMARK    5  A    between atoms: C_12  and  C_16
REMARK    6  A    between atoms: C_16  and  C_18
REMARK    7  A    between atoms: C_18  and  O_19
REMARK                            x       y       z     vdW  Elec       q    Type
REMARK                         _______ _______ _______ _____ _____    ______ ____
ROOT
ATOM      1  S   UNL     1      35.825 -24.787 -15.166  0.00  0.00    +0.013 S 
ATOM      2  O   UNL     1      35.731 -26.147 -15.657  0.00  0.00    -0.168 OA
ATOM      3  O   UNL     1      36.629 -23.802 -15.861  0.00  0.00    -0.168 OA
ENDROOT
BRANCH   1   4
ATOM      4  C   UNL     1      34.180 -24.164 -15.030  0.00  0.00    +0.106 C 
ATOM      5  C   UNL     1      33.523 -24.246 -13.811  0.00  0.00    +0.021 C 
ATOM      6  C   UNL     1      33.570 -23.605 -16.140  0.00  0.00    +0.021 C 
ATOM      7  C   UNL     1      32.222 -23.754 -13.703  0.00  0.00    +0.038 C 
ATOM      8  C   UNL     1      32.270 -23.112 -16.031  0.00  0.00    +0.038 C 
ATOM      9  C   UNL     1      31.596 -23.187 -14.813  0.00  0.00    +0.139 C 
BRANCH   9  10
ATOM     10  O   UNL     1      30.327 -22.707 -14.706  0.00  0.00    -0.471 OA
ATOM     11  C   UNL     1      29.452 -22.932 -15.810  0.00  0.00    +0.252 C 
ENDBRANCH   9  10
ENDBRANCH   1   4
BRANCH   1  12
ATOM     12  C   UNL     1      36.393 -24.841 -13.481  0.00  0.00    +0.211 C 
BRANCH  12  15
ATOM     13  F   UNL     1      37.259 -26.518 -12.054  0.00  0.00    -0.196 F 
ATOM     14  F   UNL     1      38.631 -25.612 -13.478  0.00  0.00    -0.196 F 
ATOM     15  C   UNL     1      37.348 -26.016 -13.309  0.00  0.00    +0.341 C 
ENDBRANCH  12  15
BRANCH  12  16
ATOM     16  C   UNL     1      37.022 -23.494 -13.107  0.00  0.00    +0.139 C 
BRANCH  16  18
ATOM     17  O   UNL     1      36.778 -23.741 -10.698  0.00  0.00    -0.250 OA
ATOM     18  C   UNL     1      37.457 -23.415 -11.661  0.00  0.00    +0.316 C 
BRANCH  18  19
ATOM     19  O   UNL     1      38.705 -22.891 -11.541  0.00  0.00    -0.480 OA
ATOM     20  H   UNL     1      39.407 -23.421 -11.219  0.00  0.00    +0.295 HD
ENDBRANCH  18  19
ENDBRANCH  16  18
ENDBRANCH  12  16
ENDBRANCH   1  12
TORSDOF 7
ENDMDL
MODEL 6
REMARK VINA RESULT:      -7.5      6.852      9.651
REMARK  Name = 16129580
REMARK  7 active torsions:
REMARK  status: ('A' for Active; 'I' for Inactive)
REMARK    1  A    between atoms: S_1  and  C_4
REMARK    2  A    between atoms: S_1  and  C_12
REMARK    3  A    between atoms: C_9  and  O_10
REMARK    4  A    between atoms: C_12  and  C_15
REMARK    5  A    between atoms: C_12  and  C_16
REMARK    6  A    between atoms: C_16  and  C_18
REMARK    7  A    between atoms: C_18  and  O_19
REMARK                            x       y       z     vdW  Elec       q    Type
REMARK                         _______ _______ _______ _____ _____    ______ ____
ROOT
ATOM      1  S   UNL     1      31.509 -23.950 -14.533  0.00  0.00    +0.013 S 
ATOM      2  O   UNL     1      31.684 -25.358 -14.239  0.00  0.00    -0.168 OA
ATOM      3  O   UNL     1      31.401 -22.978 -13.464  0.00  0.00    -0.168 OA
ENDROOT
BRANCH   1   4
ATOM      4  C   UNL     1      32.835 -23.467 -15.592  0.00  0.00    +0.106 C 
ATOM      5  C   UNL     1      32.582 -23.247 -16.938  0.00  0.00    +0.021 C 
ATOM      6  C   UNL     1      34.106 -23.314 -15.063  0.00  0.00    +0.021 C 
ATOM      7  C   UNL     1      33.630 -22.866 -17.775  0.00  0.00    +0.038 C 
ATOM      8  C   UNL     1      35.153 -22.931 -15.901  0.00  0.00    +0.038 C 
ATOM      9  C   UNL     1      34.916 -22.708 -17.257  0.00  0.00    +0.139 C 
BRANCH   9  10
ATOM     10  O   UNL     1      35.937 -22.334 -18.075  0.00  0.00    -0.471 OA
ATOM     11  C   UNL     1      35.587 -21.705 -19.307  0.00  0.00    +0.252 C 
ENDBRANCH   9  10
ENDBRANCH   1   4
BRANCH   1  12
ATOM     12  C   UNL     1      30.067 -23.770 -15.559  0.00  0.00    +0.211 C 
BRANCH  12  15
ATOM     13  F   UNL     1      28.561 -25.152 -16.752  0.00  0.00    -0.196 F 
ATOM     14  F   UNL     1      28.513 -25.262 -14.580  0.00  0.00    -0.196 F 
ATOM     15  C   UNL     1      29.339 -25.106 -15.643  0.00  0.00    +0.341 C 
ENDBRANCH  12  15
BRANCH  12  16
ATOM     16  C   UNL     1      29.187 -22.638 -15.016  0.00  0.00    +0.139 C 
BRANCH  16  18
ATOM     17  O   UNL     1      26.822 -22.472 -15.569  0.00  0.00    -0.250 OA
ATOM     18  C   UNL     1      27.993 -22.333 -15.893  0.00  0.00    +0.316 C 
BRANCH  18  19
ATOM     19  O   UNL     1      28.373 -21.914 -17.128  0.00  0.00    -0.480 OA
ATOM     20  H   UNL     1      28.901 -21.146 -17.221  0.00  0.00    +0.295 HD
ENDBRANCH  18  19
ENDBRANCH  16  18
ENDBRANCH  12  16
ENDBRANCH   1  12
TORSDOF 7
ENDMDL
MODEL 7
REMARK VINA RESULT:      -7.5      2.044      2.529
REMARK  Name = 16129580
REMARK  7 active torsions:
REMARK  status: ('A' for Active; 'I' for Inactive)
REMARK    1  A    between atoms: S_1  and  C_4
REMARK    2  A    between atoms: S_1  and  C_12
REMARK    3  A    between atoms: C_9  and  O_10
REMARK    4  A    between atoms: C_12  and  C_15
REMARK    5  A    between atoms: C_12  and  C_16
REMARK    6  A    between atoms: C_16  and  C_18
REMARK    7  A    between atoms: C_18  and  O_19
REMARK                            x       y       z     vdW  Elec       q    Type
REMARK                         _______ _______ _______ _____ _____    ______ ____
ROOT
ATOM      1  S   UNL     1      35.762 -17.943 -21.926  0.00  0.00    +0.013 S 
ATOM      2  O   UNL     1      35.412 -16.695 -21.279  0.00  0.00    -0.168 OA
ATOM      3  O   UNL     1      37.146 -18.351 -22.050  0.00  0.00    -0.168 OA
ENDROOT
BRANCH   1   4
ATOM      4  C   UNL     1      34.876 -19.227 -21.101  0.00  0.00    +0.106 C 
ATOM      5  C   UNL     1      33.496 -19.145 -21.003  0.00  0.00    +0.021 C 
ATOM      6  C   UNL     1      35.574 -20.297 -20.565  0.00  0.00    +0.021 C 
ATOM      7  C   UNL     1      32.796 -20.159 -20.350  0.00  0.00    +0.038 C 
ATOM      8  C   UNL     1      34.873 -21.313 -19.914  0.00  0.00    +0.038 C 
ATOM      9  C   UNL     1      33.484 -21.243 -19.806  0.00  0.00    +0.139 C 
BRANCH   9  10
ATOM     10  O   UNL     1      32.800 -22.234 -19.171  0.00  0.00    -0.471 OA
ATOM     11  C   UNL     1      33.451 -22.871 -18.072  0.00  0.00    +0.252 C 
ENDBRANCH   9  10
ENDBRANCH   1   4
BRANCH   1  12
ATOM     12  C   UNL     1      35.063 -17.937 -23.562  0.00  0.00    +0.211 C 
BRANCH  12  15
ATOM     13  F   UNL     1      35.424 -20.184 -24.213  0.00  0.00    -0.196 F 
ATOM     14  F   UNL     1      33.596 -19.226 -24.899  0.00  0.00    -0.196 F 
ATOM     15  C   UNL     1      34.457 -19.304 -23.856  0.00  0.00    +0.341 C 
ENDBRANCH  12  15
BRANCH  12  16
ATOM     16  C   UNL     1      34.053 -16.792 -23.686  0.00  0.00    +0.139 C 
BRANCH  16  18
ATOM     17  O   UNL     1      33.399 -15.147 -25.358  0.00  0.00    -0.250 OA
ATOM     18  C   UNL     1      34.098 -16.095 -25.027  0.00  0.00    +0.316 C 
BRANCH  18  19
ATOM     19  O   UNL     1      34.996 -16.677 -25.865  0.00  0.00    -0.480 OA
ATOM     20  H   UNL     1      34.923 -17.588 -26.069  0.00  0.00    +0.295 HD
ENDBRANCH  18  19
ENDBRANCH  16  18
ENDBRANCH  12  16
ENDBRANCH   1  12
TORSDOF 7
ENDMDL
MODEL 8
REMARK VINA RESULT:      -7.4      2.294      6.136
REMARK  Name = 16129580
REMARK  7 active torsions:
REMARK  status: ('A' for Active; 'I' for Inactive)
REMARK    1  A    between atoms: S_1  and  C_4
REMARK    2  A    between atoms: S_1  and  C_12
REMARK    3  A    between atoms: C_9  and  O_10
REMARK    4  A    between atoms: C_12  and  C_15
REMARK    5  A    between atoms: C_12  and  C_16
REMARK    6  A    between atoms: C_16  and  C_18
REMARK    7  A    between atoms: C_18  and  O_19
REMARK                            x       y       z     vdW  Elec       q    Type
REMARK                         _______ _______ _______ _____ _____    ______ ____
ROOT
ATOM      1  S   UNL     1      35.565 -18.718 -22.117  0.00  0.00    +0.013 S 
ATOM      2  O   UNL     1      35.114 -19.278 -23.374  0.00  0.00    -0.168 OA
ATOM      3  O   UNL     1      36.979 -18.582 -21.831  0.00  0.00    -0.168 OA
ENDROOT
BRANCH   1   4
ATOM      4  C   UNL     1      34.809 -17.134 -21.947  0.00  0.00    +0.106 C 
ATOM      5  C   UNL     1      34.238 -16.531 -23.058  0.00  0.00    +0.021 C 
ATOM      6  C   UNL     1      34.798 -16.515 -20.707  0.00  0.00    +0.021 C 
ATOM      7  C   UNL     1      33.641 -15.279 -22.924  0.00  0.00    +0.038 C 
ATOM      8  C   UNL     1      34.199 -15.263 -20.573  0.00  0.00    +0.038 C 
ATOM      9  C   UNL     1      33.621 -14.644 -21.682  0.00  0.00    +0.139 C 
BRANCH   9  10
ATOM     10  O   UNL     1      33.037 -13.422 -21.551  0.00  0.00    -0.471 OA
ATOM     11  C   UNL     1      32.284 -12.940 -22.663  0.00  0.00    +0.252 C 
ENDBRANCH   9  10
ENDBRANCH   1   4
BRANCH   1  12
ATOM     12  C   UNL     1      34.848 -19.669 -20.795  0.00  0.00    +0.211 C 
BRANCH  12  15
ATOM     13  F   UNL     1      32.616 -18.942 -20.492  0.00  0.00    -0.196 F 
ATOM     14  F   UNL     1      32.967 -21.088 -20.572  0.00  0.00    -0.196 F 
ATOM     15  C   UNL     1      33.370 -19.899 -21.085  0.00  0.00    +0.341 C 
ENDBRANCH  12  15
BRANCH  12  16
ATOM     16  C   UNL     1      35.636 -20.970 -20.610  0.00  0.00    +0.139 C 
BRANCH  16  18
ATOM     17  O   UNL     1      36.765 -20.685 -18.472  0.00  0.00    -0.250 OA
ATOM     18  C   UNL     1      35.951 -21.280 -19.164  0.00  0.00    +0.316 C 
BRANCH  18  19
ATOM     19  O   UNL     1      35.242 -22.349 -18.715  0.00  0.00    -0.480 OA
ATOM     20  H   UNL     1      35.581 -22.876 -18.019  0.00  0.00    +0.295 HD
ENDBRANCH  18  19
ENDBRANCH  16  18
ENDBRANCH  12  16
ENDBRANCH   1  12
TORSDOF 7
ENDMDL
MODEL 9
REMARK VINA RESULT:      -7.3      2.386      3.142
REMARK  Name = 16129580
REMARK  7 active torsions:
REMARK  status: ('A' for Active; 'I' for Inactive)
REMARK    1  A    between atoms: S_1  and  C_4
REMARK    2  A    between atoms: S_1  and  C_12
REMARK    3  A    between atoms: C_9  and  O_10
REMARK    4  A    between atoms: C_12  and  C_15
REMARK    5  A    between atoms: C_12  and  C_16
REMARK    6  A    between atoms: C_16  and  C_18
REMARK    7  A    between atoms: C_18  and  O_19
REMARK                            x       y       z     vdW  Elec       q    Type
REMARK                         _______ _______ _______ _____ _____    ______ ____
ROOT
ATOM      1  S   UNL     1      33.811 -15.840 -21.286  0.00  0.00    +0.013 S 
ATOM      2  O   UNL     1      32.487 -15.730 -20.708  0.00  0.00    -0.168 OA
ATOM      3  O   UNL     1      34.881 -14.961 -20.860  0.00  0.00    -0.168 OA
ENDROOT
BRANCH   1   4
ATOM      4  C   UNL     1      34.342 -17.508 -21.070  0.00  0.00    +0.106 C 
ATOM      5  C   UNL     1      33.394 -18.510 -20.935  0.00  0.00    +0.021 C 
ATOM      6  C   UNL     1      35.698 -17.790 -21.037  0.00  0.00    +0.021 C 
ATOM      7  C   UNL     1      33.813 -19.829 -20.763  0.00  0.00    +0.038 C 
ATOM      8  C   UNL     1      36.117 -19.110 -20.867  0.00  0.00    +0.038 C 
ATOM      9  C   UNL     1      35.175 -20.129 -20.729  0.00  0.00    +0.139 C 
BRANCH   9  10
ATOM     10  O   UNL     1      35.584 -21.416 -20.563  0.00  0.00    -0.471 OA
ATOM     11  C   UNL     1      35.417 -21.989 -19.266  0.00  0.00    +0.252 C 
ENDBRANCH   9  10
ENDBRANCH   1   4
BRANCH   1  12
ATOM     12  C   UNL     1      33.663 -15.673 -23.052  0.00  0.00    +0.211 C 
BRANCH  12  15
ATOM     13  F   UNL     1      32.695 -14.205 -24.635  0.00  0.00    -0.196 F 
ATOM     14  F   UNL     1      34.287 -13.415 -23.382  0.00  0.00    -0.196 F 
ATOM     15  C   UNL     1      33.223 -14.254 -23.388  0.00  0.00    +0.341 C 
ENDBRANCH  12  15
BRANCH  12  16
ATOM     16  C   UNL     1      34.985 -16.068 -23.718  0.00  0.00    +0.139 C 
BRANCH  16  18
ATOM     17  O   UNL     1      34.914 -18.368 -24.513  0.00  0.00    -0.250 OA
ATOM     18  C   UNL     1      34.835 -17.169 -24.744  0.00  0.00    +0.316 C 
BRANCH  18  19
ATOM     19  O   UNL     1      34.638 -16.669 -25.991  0.00  0.00    -0.480 OA
ATOM     20  H   UNL     1      35.272 -16.093 -26.370  0.00  0.00    +0.295 HD
ENDBRANCH  18  19
ENDBRANCH  16  18
ENDBRANCH  12  16
ENDBRANCH   1  12
TORSDOF 7
ENDMDL
