MODEL 1
REMARK VINA RESULT:      -8.7      0.000      0.000
REMARK  Name = 5494440
REMARK  14 active torsions:
REMARK  status: ('A' for Active; 'I' for Inactive)
REMARK    1  A    between atoms: C_3  and  C_10
REMARK    2  A    between atoms: C_7  and  C_24
REMARK    3  A    between atoms: N_9  and  C_12
REMARK    4  A    between atoms: C_12  and  C_13
REMARK    5  A    between atoms: C_13  and  C_14
REMARK    6  A    between atoms: C_14  and  C_15
REMARK    7  A    between atoms: C_15  and  N_16
REMARK    8  A    between atoms: N_16  and  C_19
REMARK    9  A    between atoms: C_24  and  N_25
REMARK   10  A    between atoms: C_24  and  C_37
REMARK   11  A    between atoms: N_25  and  S_27
REMARK   12  A    between atoms: S_27  and  C_30
REMARK   13  A    between atoms: C_30  and  C_31
REMARK   14  A    between atoms: C_37  and  C_38
REMARK                            x       y       z     vdW  Elec       q    Type
REMARK                         _______ _______ _______ _____ _____    ______ ____
ROOT
ATOM      1  O   UNL     1      32.012 -11.293 -22.228  0.00  0.00    -0.273 OA
ATOM      2  N   UNL     1      33.616 -10.703 -23.788  0.00  0.00    -0.272 N 
ATOM      3  C   UNL     1      33.769  -9.320 -23.355  0.00  0.00    +0.152 C 
ATOM      4  C   UNL     1      35.056  -8.846 -24.019  0.00  0.00    +0.031 C 
ATOM      5  C   UNL     1      34.554 -11.025 -24.861  0.00  0.00    +0.094 C 
ATOM      6  C   UNL     1      35.130  -9.685 -25.292  0.00  0.00    +0.024 C 
ATOM      7  C   UNL     1      32.792 -11.602 -23.131  0.00  0.00    +0.242 C 
ENDROOT
BRANCH   3  10
ATOM      8  O   UNL     1      31.510  -9.128 -24.104  0.00  0.00    -0.273 OA
ATOM      9  N   UNL     1      32.835  -7.217 -24.016  0.00  0.00    -0.303 N 
ATOM     10  C   UNL     1      32.574  -8.567 -23.856  0.00  0.00    +0.241 C 
ATOM     11  H   UNL     1      33.731  -6.882 -23.785  0.00  0.00    +0.149 HD
BRANCH   9  12
ATOM     12  C   UNL     1      31.856  -6.275 -24.509  0.00  0.00    +0.090 C 
BRANCH  12  13
ATOM     13  C   UNL     1      31.637  -5.108 -23.552  0.00  0.00    +0.023 C 
BRANCH  13  14
ATOM     14  C   UNL     1      30.735  -5.481 -22.368  0.00  0.00    +0.028 C 
BRANCH  14  15
ATOM     15  C   UNL     1      31.530  -5.968 -21.162  0.00  0.00    +0.129 C 
BRANCH  15  16
ATOM     16  N   UNL     1      31.494  -7.430 -21.101  0.00  0.00    -0.240 NA
BRANCH  16  19
ATOM     17  N   UNL     1      32.212  -9.294 -19.766  0.00  0.00    -0.370 N 
ATOM     18  N   UNL     1      33.268  -7.280 -19.617  0.00  0.00    -0.370 N 
ATOM     19  C   UNL     1      32.260  -7.996 -20.220  0.00  0.00    +0.189 C 
ATOM     20  H   UNL     1      31.533  -9.914 -20.118  0.00  0.00    +0.159 HD
ATOM     21  H   UNL     1      32.855  -9.603 -19.088  0.00  0.00    +0.159 HD
ATOM     22  H   UNL     1      33.411  -6.335 -19.853  0.00  0.00    +0.159 HD
ATOM     23  H   UNL     1      33.847  -7.714 -18.948  0.00  0.00    +0.159 HD
ENDBRANCH  16  19
ENDBRANCH  15  16
ENDBRANCH  14  15
ENDBRANCH  13  14
ENDBRANCH  12  13
ENDBRANCH   9  12
ENDBRANCH   3  10
BRANCH   7  24
ATOM     24  C   UNL     1      32.886 -13.032 -23.599  0.00  0.00    +0.151 C 
BRANCH  24  25
ATOM     25  N   UNL     1      32.011 -13.757 -22.661  0.00  0.00    -0.176 NA
ATOM     26  H   UNL     1      31.357 -13.075 -22.277  0.00  0.00    +0.149 HD
BRANCH  25  27
ATOM     27  S   UNL     1      32.707 -14.582 -21.338  0.00  0.00    +0.045 S 
ATOM     28  O   UNL     1      32.189 -15.934 -21.276  0.00  0.00    -0.157 OA
ATOM     29  O   UNL     1      32.660 -13.714 -20.177  0.00  0.00    -0.157 OA
BRANCH  27  30
ATOM     30  C   UNL     1      34.403 -14.670 -21.866  0.00  0.00    +0.195 C 
BRANCH  30  31
ATOM     31  C   UNL     1      34.731 -16.111 -22.111  0.00  0.00    +0.003 C 
ATOM     32  C   UNL     1      35.015 -16.953 -21.036  0.00  0.00    -0.003 C 
ATOM     33  C   UNL     1      34.753 -16.609 -23.414  0.00  0.00    -0.003 C 
ATOM     34  C   UNL     1      35.321 -18.295 -21.264  0.00  0.00    -0.000 C 
ATOM     35  C   UNL     1      35.059 -17.951 -23.642  0.00  0.00    -0.000 C 
ATOM     36  C   UNL     1      35.343 -18.794 -22.566  0.00  0.00    -0.000 C 
ENDBRANCH  30  31
ENDBRANCH  27  30
ENDBRANCH  25  27
ENDBRANCH  24  25
BRANCH  24  37
ATOM     37  C   UNL     1      32.394 -13.153 -25.034  0.00  0.00    +0.027 C 
BRANCH  37  38
ATOM     38  C   UNL     1      33.343 -13.927 -25.971  0.00  0.00    +0.002 C 
ATOM     39  C   UNL     1      33.469 -13.273 -27.347  0.00  0.00    +0.000 C 
ATOM     40  C   UNL     1      32.850 -15.369 -26.128  0.00  0.00    +0.000 C 
ENDBRANCH  37  38
ENDBRANCH  24  37
ENDBRANCH   7  24
TORSDOF 14
ENDMDL
MODEL 2
REMARK VINA RESULT:      -8.7      2.173      8.518
REMARK  Name = 5494440
REMARK  14 active torsions:
REMARK  status: ('A' for Active; 'I' for Inactive)
REMARK    1  A    between atoms: C_3  and  C_10
REMARK    2  A    between atoms: C_7  and  C_24
REMARK    3  A    between atoms: N_9  and  C_12
REMARK    4  A    between atoms: C_12  and  C_13
REMARK    5  A    between atoms: C_13  and  C_14
REMARK    6  A    between atoms: C_14  and  C_15
REMARK    7  A    between atoms: C_15  and  N_16
REMARK    8  A    between atoms: N_16  and  C_19
REMARK    9  A    between atoms: C_24  and  N_25
REMARK   10  A    between atoms: C_24  and  C_37
REMARK   11  A    between atoms: N_25  and  S_27
REMARK   12  A    between atoms: S_27  and  C_30
REMARK   13  A    between atoms: C_30  and  C_31
REMARK   14  A    between atoms: C_37  and  C_38
REMARK                            x       y       z     vdW  Elec       q    Type
REMARK                         _______ _______ _______ _____ _____    ______ ____
ROOT
ATOM      1  O   UNL     1      32.593 -13.239 -22.580  0.00  0.00    -0.273 OA
ATOM      2  N   UNL     1      33.046 -13.190 -24.848  0.00  0.00    -0.272 N 
ATOM      3  C   UNL     1      32.759 -14.596 -25.106  0.00  0.00    +0.152 C 
ATOM      4  C   UNL     1      32.640 -14.695 -26.622  0.00  0.00    +0.031 C 
ATOM      5  C   UNL     1      33.369 -12.484 -26.085  0.00  0.00    +0.094 C 
ATOM      6  C   UNL     1      33.552 -13.579 -27.125  0.00  0.00    +0.024 C 
ATOM      7  C   UNL     1      32.865 -12.609 -23.603  0.00  0.00    +0.242 C 
ENDROOT
BRANCH   3  10
ATOM      8  O   UNL     1      34.724 -14.909 -23.787  0.00  0.00    -0.273 OA
ATOM      9  N   UNL     1      33.976 -16.657 -25.129  0.00  0.00    -0.303 N 
ATOM     10  C   UNL     1      33.923 -15.385 -24.586  0.00  0.00    +0.241 C 
ATOM     11  H   UNL     1      33.273 -16.927 -25.764  0.00  0.00    +0.149 HD
BRANCH   9  12
ATOM     12  C   UNL     1      35.014 -17.610 -24.809  0.00  0.00    +0.090 C 
BRANCH  12  13
ATOM     13  C   UNL     1      34.619 -18.541 -23.667  0.00  0.00    +0.023 C 
BRANCH  13  14
ATOM     14  C   UNL     1      35.562 -18.426 -22.462  0.00  0.00    +0.028 C 
BRANCH  14  15
ATOM     15  C   UNL     1      34.811 -18.174 -21.160  0.00  0.00    +0.129 C 
BRANCH  15  16
ATOM     16  N   UNL     1      35.203 -16.878 -20.603  0.00  0.00    -0.240 NA
BRANCH  16  19
ATOM     17  N   UNL     1      34.678 -14.536 -20.734  0.00  0.00    -0.370 N 
ATOM     18  N   UNL     1      33.099 -16.111 -21.203  0.00  0.00    -0.370 N 
ATOM     19  C   UNL     1      34.402 -15.882 -20.826  0.00  0.00    +0.189 C 
ATOM     20  H   UNL     1      35.578 -14.236 -20.471  0.00  0.00    +0.159 HD
ATOM     21  H   UNL     1      33.976 -13.875 -20.930  0.00  0.00    +0.159 HD
ATOM     22  H   UNL     1      32.771 -17.034 -21.306  0.00  0.00    +0.159 HD
ATOM     23  H   UNL     1      32.494 -15.352 -21.370  0.00  0.00    +0.159 HD
ENDBRANCH  16  19
ENDBRANCH  15  16
ENDBRANCH  14  15
ENDBRANCH  13  14
ENDBRANCH  12  13
ENDBRANCH   9  12
ENDBRANCH   3  10
BRANCH   7  24
ATOM     24  C   UNL     1      33.038 -11.113 -23.553  0.00  0.00    +0.151 C 
BRANCH  24  25
ATOM     25  N   UNL     1      32.636 -10.768 -22.178  0.00  0.00    -0.176 NA
ATOM     26  H   UNL     1      31.815 -11.333 -21.959  0.00  0.00    +0.149 HD
BRANCH  25  27
ATOM     27  S   UNL     1      32.243  -9.149 -21.805  0.00  0.00    +0.045 S 
ATOM     28  O   UNL     1      33.444  -8.337 -21.822  0.00  0.00    -0.157 OA
ATOM     29  O   UNL     1      31.359  -9.142 -20.656  0.00  0.00    -0.157 OA
BRANCH  27  30
ATOM     30  C   UNL     1      31.268  -8.715 -23.227  0.00  0.00    +0.195 C 
BRANCH  30  31
ATOM     31  C   UNL     1      31.342  -7.228 -23.395  0.00  0.00    +0.003 C 
ATOM     32  C   UNL     1      30.850  -6.389 -22.396  0.00  0.00    -0.003 C 
ATOM     33  C   UNL     1      31.903  -6.684 -24.551  0.00  0.00    -0.003 C 
ATOM     34  C   UNL     1      30.920  -5.004 -22.552  0.00  0.00    -0.000 C 
ATOM     35  C   UNL     1      31.972  -5.299 -24.708  0.00  0.00    -0.000 C 
ATOM     36  C   UNL     1      31.479  -4.459 -23.707  0.00  0.00    -0.000 C 
ENDBRANCH  30  31
ENDBRANCH  27  30
ENDBRANCH  25  27
ENDBRANCH  24  25
BRANCH  24  37
ATOM     37  C   UNL     1      34.488 -10.738 -23.825  0.00  0.00    +0.027 C 
BRANCH  37  38
ATOM     38  C   UNL     1      34.678  -9.702 -24.951  0.00  0.00    +0.002 C 
ATOM     39  C   UNL     1      35.766 -10.111 -25.944  0.00  0.00    +0.000 C 
ATOM     40  C   UNL     1      35.020  -8.337 -24.345  0.00  0.00    +0.000 C 
ENDBRANCH  37  38
ENDBRANCH  24  37
ENDBRANCH   7  24
TORSDOF 14
ENDMDL
MODEL 3
REMARK VINA RESULT:      -8.6      2.615      4.259
REMARK  Name = 5494440
REMARK  14 active torsions:
REMARK  status: ('A' for Active; 'I' for Inactive)
REMARK    1  A    between atoms: C_3  and  C_10
REMARK    2  A    between atoms: C_7  and  C_24
REMARK    3  A    between atoms: N_9  and  C_12
REMARK    4  A    between atoms: C_12  and  C_13
REMARK    5  A    between atoms: C_13  and  C_14
REMARK    6  A    between atoms: C_14  and  C_15
REMARK    7  A    between atoms: C_15  and  N_16
REMARK    8  A    between atoms: N_16  and  C_19
REMARK    9  A    between atoms: C_24  and  N_25
REMARK   10  A    between atoms: C_24  and  C_37
REMARK   11  A    between atoms: N_25  and  S_27
REMARK   12  A    between atoms: S_27  and  C_30
REMARK   13  A    between atoms: C_30  and  C_31
REMARK   14  A    between atoms: C_37  and  C_38
REMARK                            x       y       z     vdW  Elec       q    Type
REMARK                         _______ _______ _______ _____ _____    ______ ____
ROOT
ATOM      1  O   UNL     1      35.106 -13.954 -22.283  0.00  0.00    -0.273 OA
ATOM      2  N   UNL     1      33.846 -14.140 -24.215  0.00  0.00    -0.272 N 
ATOM      3  C   UNL     1      34.129 -12.806 -24.728  0.00  0.00    +0.152 C 
ATOM      4  C   UNL     1      33.688 -12.851 -26.187  0.00  0.00    +0.031 C 
ATOM      5  C   UNL     1      33.033 -14.905 -25.158  0.00  0.00    +0.094 C 
ATOM      6  C   UNL     1      32.569 -13.888 -26.188  0.00  0.00    +0.024 C 
ATOM      7  C   UNL     1      34.426 -14.631 -23.056  0.00  0.00    +0.242 C 
ENDROOT
BRANCH   3  10
ATOM      8  O   UNL     1      32.538 -12.220 -23.048  0.00  0.00    -0.273 OA
ATOM      9  N   UNL     1      33.510 -10.530 -24.318  0.00  0.00    -0.303 N 
ATOM     10  C   UNL     1      33.306 -11.842 -23.927  0.00  0.00    +0.241 C 
ATOM     11  H   UNL     1      34.154 -10.350 -25.040  0.00  0.00    +0.149 HD
BRANCH   9  12
ATOM     12  C   UNL     1      32.820  -9.410 -23.719  0.00  0.00    +0.090 C 
BRANCH  12  13
ATOM     13  C   UNL     1      33.780  -8.361 -23.169  0.00  0.00    +0.023 C 
BRANCH  13  14
ATOM     14  C   UNL     1      33.056  -7.248 -22.400  0.00  0.00    +0.028 C 
BRANCH  14  15
ATOM     15  C   UNL     1      31.907  -7.780 -21.552  0.00  0.00    +0.129 C 
BRANCH  15  16
ATOM     16  N   UNL     1      32.429  -8.342 -20.305  0.00  0.00    -0.240 NA
BRANCH  16  19
ATOM     17  N   UNL     1      31.345 -10.436 -20.767  0.00  0.00    -0.370 N 
ATOM     18  N   UNL     1      32.211 -10.005 -18.704  0.00  0.00    -0.370 N 
ATOM     19  C   UNL     1      32.009  -9.525 -19.977  0.00  0.00    +0.189 C 
ATOM     20  H   UNL     1      31.137 -10.215 -21.705  0.00  0.00    +0.159 HD
ATOM     21  H   UNL     1      31.078 -11.307 -20.396  0.00  0.00    +0.159 HD
ATOM     22  H   UNL     1      32.675  -9.449 -18.036  0.00  0.00    +0.159 HD
ATOM     23  H   UNL     1      31.889 -10.903 -18.460  0.00  0.00    +0.159 HD
ENDBRANCH  16  19
ENDBRANCH  15  16
ENDBRANCH  14  15
ENDBRANCH  13  14
ENDBRANCH  12  13
ENDBRANCH   9  12
ENDBRANCH   3  10
BRANCH   7  24
ATOM     24  C   UNL     1      34.164 -16.086 -22.764  0.00  0.00    +0.151 C 
BRANCH  24  25
ATOM     25  N   UNL     1      35.476 -16.720 -22.982  0.00  0.00    -0.176 NA
ATOM     26  H   UNL     1      35.486 -17.058 -23.945  0.00  0.00    +0.149 HD
BRANCH  25  27
ATOM     27  S   UNL     1      35.947 -18.027 -21.989  0.00  0.00    +0.045 S 
ATOM     28  O   UNL     1      35.690 -17.703 -20.599  0.00  0.00    -0.157 OA
ATOM     29  O   UNL     1      37.255 -18.482 -22.416  0.00  0.00    -0.157 OA
BRANCH  27  30
ATOM     30  C   UNL     1      34.766 -19.258 -22.491  0.00  0.00    +0.195 C 
BRANCH  30  31
ATOM     31  C   UNL     1      34.437 -20.091 -21.290  0.00  0.00    +0.003 C 
ATOM     32  C   UNL     1      35.431 -20.854 -20.678  0.00  0.00    -0.003 C 
ATOM     33  C   UNL     1      33.136 -20.104 -20.785  0.00  0.00    -0.003 C 
ATOM     34  C   UNL     1      35.124 -21.630 -19.559  0.00  0.00    -0.000 C 
ATOM     35  C   UNL     1      32.830 -20.881 -19.668  0.00  0.00    -0.000 C 
ATOM     36  C   UNL     1      33.824 -21.644 -19.055  0.00  0.00    -0.000 C 
ENDBRANCH  30  31
ENDBRANCH  27  30
ENDBRANCH  25  27
ENDBRANCH  24  25
BRANCH  24  37
ATOM     37  C   UNL     1      33.687 -16.261 -21.329  0.00  0.00    +0.027 C 
BRANCH  37  38
ATOM     38  C   UNL     1      32.333 -15.590 -21.021  0.00  0.00    +0.002 C 
ATOM     39  C   UNL     1      32.481 -14.361 -20.125  0.00  0.00    +0.000 C 
ATOM     40  C   UNL     1      31.394 -16.602 -20.358  0.00  0.00    +0.000 C 
ENDBRANCH  37  38
ENDBRANCH  24  37
ENDBRANCH   7  24
TORSDOF 14
ENDMDL
MODEL 4
REMARK VINA RESULT:      -8.5      3.876      9.588
REMARK  Name = 5494440
REMARK  14 active torsions:
REMARK  status: ('A' for Active; 'I' for Inactive)
REMARK    1  A    between atoms: C_3  and  C_10
REMARK    2  A    between atoms: C_7  and  C_24
REMARK    3  A    between atoms: N_9  and  C_12
REMARK    4  A    between atoms: C_12  and  C_13
REMARK    5  A    between atoms: C_13  and  C_14
REMARK    6  A    between atoms: C_14  and  C_15
REMARK    7  A    between atoms: C_15  and  N_16
REMARK    8  A    between atoms: N_16  and  C_19
REMARK    9  A    between atoms: C_24  and  N_25
REMARK   10  A    between atoms: C_24  and  C_37
REMARK   11  A    between atoms: N_25  and  S_27
REMARK   12  A    between atoms: S_27  and  C_30
REMARK   13  A    between atoms: C_30  and  C_31
REMARK   14  A    between atoms: C_37  and  C_38
REMARK                            x       y       z     vdW  Elec       q    Type
REMARK                         _______ _______ _______ _____ _____    ______ ____
ROOT
ATOM      1  O   UNL     1      35.169 -14.742 -23.864  0.00  0.00    -0.273 OA
ATOM      2  N   UNL     1      33.843 -14.880 -21.972  0.00  0.00    -0.272 N 
ATOM      3  C   UNL     1      34.675 -15.838 -21.255  0.00  0.00    +0.152 C 
ATOM      4  C   UNL     1      34.171 -15.789 -19.817  0.00  0.00    +0.031 C 
ATOM      5  C   UNL     1      32.711 -14.451 -21.155  0.00  0.00    +0.094 C 
ATOM      6  C   UNL     1      32.702 -15.403 -19.969  0.00  0.00    +0.024 C 
ATOM      7  C   UNL     1      34.205 -14.353 -23.202  0.00  0.00    +0.242 C 
ENDROOT
BRANCH   3  10
ATOM      8  O   UNL     1      34.227 -17.306 -23.083  0.00  0.00    -0.273 OA
ATOM      9  N   UNL     1      34.479 -18.204 -20.951  0.00  0.00    -0.303 N 
ATOM     10  C   UNL     1      34.442 -17.180 -21.881  0.00  0.00    +0.241 C 
ATOM     11  H   UNL     1      34.661 -17.978 -20.010  0.00  0.00    +0.149 HD
BRANCH   9  12
ATOM     12  C   UNL     1      34.262 -19.591 -21.294  0.00  0.00    +0.090 C 
BRANCH  12  13
ATOM     13  C   UNL     1      33.002 -20.160 -20.650  0.00  0.00    +0.023 C 
BRANCH  13  14
ATOM     14  C   UNL     1      33.315 -21.157 -19.527  0.00  0.00    +0.028 C 
BRANCH  14  15
ATOM     15  C   UNL     1      34.602 -21.933 -19.781  0.00  0.00    +0.129 C 
BRANCH  15  16
ATOM     16  N   UNL     1      35.203 -22.331 -18.506  0.00  0.00    -0.240 NA
BRANCH  16  19
ATOM     17  N   UNL     1      37.052 -21.917 -17.029  0.00  0.00    -0.370 N 
ATOM     18  N   UNL     1      36.774 -20.678 -18.921  0.00  0.00    -0.370 N 
ATOM     19  C   UNL     1      36.278 -21.701 -18.147  0.00  0.00    +0.189 C 
ATOM     20  H   UNL     1      36.805 -22.624 -16.389  0.00  0.00    +0.159 HD
ATOM     21  H   UNL     1      37.851 -21.365 -16.868  0.00  0.00    +0.159 HD
ATOM     22  H   UNL     1      36.312 -20.421 -19.752  0.00  0.00    +0.159 HD
ATOM     23  H   UNL     1      37.590 -20.202 -18.644  0.00  0.00    +0.159 HD
ENDBRANCH  16  19
ENDBRANCH  15  16
ENDBRANCH  14  15
ENDBRANCH  13  14
ENDBRANCH  12  13
ENDBRANCH   9  12
ENDBRANCH   3  10
BRANCH   7  24
ATOM     24  C   UNL     1      33.321 -13.247 -23.720  0.00  0.00    +0.151 C 
BRANCH  24  25
ATOM     25  N   UNL     1      34.281 -12.204 -24.124  0.00  0.00    -0.176 NA
ATOM     26  H   UNL     1      35.064 -12.252 -23.471  0.00  0.00    +0.149 HD
BRANCH  25  27
ATOM     27  S   UNL     1      33.771 -10.575 -24.173  0.00  0.00    +0.045 S 
ATOM     28  O   UNL     1      33.098 -10.311 -25.429  0.00  0.00    -0.157 OA
ATOM     29  O   UNL     1      34.865  -9.736 -23.726  0.00  0.00    -0.157 OA
BRANCH  27  30
ATOM     30  C   UNL     1      32.544 -10.580 -22.885  0.00  0.00    +0.195 C 
BRANCH  30  31
ATOM     31  C   UNL     1      32.195  -9.155 -22.582  0.00  0.00    +0.003 C 
ATOM     32  C   UNL     1      32.617  -8.573 -21.387  0.00  0.00    -0.003 C 
ATOM     33  C   UNL     1      31.447  -8.411 -23.495  0.00  0.00    -0.003 C 
ATOM     34  C   UNL     1      32.292  -7.246 -21.105  0.00  0.00    -0.000 C 
ATOM     35  C   UNL     1      31.122  -7.084 -23.213  0.00  0.00    -0.000 C 
ATOM     36  C   UNL     1      31.544  -6.502 -22.017  0.00  0.00    -0.000 C 
ENDBRANCH  30  31
ENDBRANCH  27  30
ENDBRANCH  25  27
ENDBRANCH  24  25
BRANCH  24  37
ATOM     37  C   UNL     1      32.496 -13.738 -24.900  0.00  0.00    +0.027 C 
BRANCH  37  38
ATOM     38  C   UNL     1      33.329 -14.219 -26.105  0.00  0.00    +0.002 C 
ATOM     39  C   UNL     1      33.185 -13.302 -27.320  0.00  0.00    +0.000 C 
ATOM     40  C   UNL     1      32.915 -15.644 -26.483  0.00  0.00    +0.000 C 
ENDBRANCH  37  38
ENDBRANCH  24  37
ENDBRANCH   7  24
TORSDOF 14
ENDMDL
MODEL 5
REMARK VINA RESULT:      -8.5      1.918      3.096
REMARK  Name = 5494440
REMARK  14 active torsions:
REMARK  status: ('A' for Active; 'I' for Inactive)
REMARK    1  A    between atoms: C_3  and  C_10
REMARK    2  A    between atoms: C_7  and  C_24
REMARK    3  A    between atoms: N_9  and  C_12
REMARK    4  A    between atoms: C_12  and  C_13
REMARK    5  A    between atoms: C_13  and  C_14
REMARK    6  A    between atoms: C_14  and  C_15
REMARK    7  A    between atoms: C_15  and  N_16
REMARK    8  A    between atoms: N_16  and  C_19
REMARK    9  A    between atoms: C_24  and  N_25
REMARK   10  A    between atoms: C_24  and  C_37
REMARK   11  A    between atoms: N_25  and  S_27
REMARK   12  A    between atoms: S_27  and  C_30
REMARK   13  A    between atoms: C_30  and  C_31
REMARK   14  A    between atoms: C_37  and  C_38
REMARK                            x       y       z     vdW  Elec       q    Type
REMARK                         _______ _______ _______ _____ _____    ______ ____
ROOT
ATOM      1  O   UNL     1      33.140 -11.640 -24.089  0.00  0.00    -0.273 OA
ATOM      2  N   UNL     1      32.393 -11.930 -21.918  0.00  0.00    -0.272 N 
ATOM      3  C   UNL     1      31.483 -10.791 -21.902  0.00  0.00    +0.152 C 
ATOM      4  C   UNL     1      30.604 -11.016 -20.677  0.00  0.00    +0.031 C 
ATOM      5  C   UNL     1      32.316 -12.683 -20.669  0.00  0.00    +0.094 C 
ATOM      6  C   UNL     1      31.508 -11.801 -19.730  0.00  0.00    +0.024 C 
ATOM      7  C   UNL     1      33.098 -12.303 -23.051  0.00  0.00    +0.242 C 
ENDROOT
BRANCH   3  10
ATOM      8  O   UNL     1      32.446  -8.972 -20.694  0.00  0.00    -0.273 OA
ATOM      9  N   UNL     1      32.894  -9.177 -22.968  0.00  0.00    -0.303 N 
ATOM     10  C   UNL     1      32.323  -9.557 -21.766  0.00  0.00    +0.241 C 
ATOM     11  H   UNL     1      32.721  -9.729 -23.765  0.00  0.00    +0.149 HD
BRANCH   9  12
ATOM     12  C   UNL     1      33.730  -8.007 -23.111  0.00  0.00    +0.090 C 
BRANCH  12  13
ATOM     13  C   UNL     1      33.514  -7.296 -24.443  0.00  0.00    +0.023 C 
BRANCH  13  14
ATOM     14  C   UNL     1      32.711  -5.997 -24.291  0.00  0.00    +0.028 C 
BRANCH  14  15
ATOM     15  C   UNL     1      31.207  -6.242 -24.292  0.00  0.00    +0.129 C 
BRANCH  15  16
ATOM     16  N   UNL     1      30.759  -6.591 -22.943  0.00  0.00    -0.240 NA
BRANCH  16  19
ATOM     17  N   UNL     1      30.323  -4.436 -21.975  0.00  0.00    -0.370 N 
ATOM     18  N   UNL     1      31.716  -5.914 -20.943  0.00  0.00    -0.370 N 
ATOM     19  C   UNL     1      30.902  -5.683 -22.028  0.00  0.00    +0.189 C 
ATOM     20  H   UNL     1      29.716  -4.144 -22.694  0.00  0.00    +0.159 HD
ATOM     21  H   UNL     1      30.515  -3.835 -21.220  0.00  0.00    +0.159 HD
ATOM     22  H   UNL     1      32.193  -6.772 -20.859  0.00  0.00    +0.159 HD
ATOM     23  H   UNL     1      31.822  -5.222 -20.251  0.00  0.00    +0.159 HD
ENDBRANCH  16  19
ENDBRANCH  15  16
ENDBRANCH  14  15
ENDBRANCH  13  14
ENDBRANCH  12  13
ENDBRANCH   9  12
ENDBRANCH   3  10
BRANCH   7  24
ATOM     24  C   UNL     1      33.854 -13.603 -22.947  0.00  0.00    +0.151 C 
BRANCH  24  25
ATOM     25  N   UNL     1      32.858 -14.534 -22.388  0.00  0.00    -0.176 NA
ATOM     26  H   UNL     1      32.169 -13.969 -21.892  0.00  0.00    +0.149 HD
BRANCH  25  27
ATOM     27  S   UNL     1      33.370 -15.757 -21.313  0.00  0.00    +0.045 S 
ATOM     28  O   UNL     1      32.221 -16.332 -20.642  0.00  0.00    -0.157 OA
ATOM     29  O   UNL     1      34.502 -15.260 -20.554  0.00  0.00    -0.157 OA
BRANCH  27  30
ATOM     30  C   UNL     1      33.991 -16.963 -22.464  0.00  0.00    +0.195 C 
BRANCH  30  31
ATOM     31  C   UNL     1      34.456 -18.149 -21.676  0.00  0.00    +0.003 C 
ATOM     32  C   UNL     1      33.530 -19.077 -21.201  0.00  0.00    -0.003 C 
ATOM     33  C   UNL     1      35.816 -18.323 -21.417  0.00  0.00    -0.003 C 
ATOM     34  C   UNL     1      33.965 -20.182 -20.467  0.00  0.00    -0.000 C 
ATOM     35  C   UNL     1      36.250 -19.427 -20.683  0.00  0.00    -0.000 C 
ATOM     36  C   UNL     1      35.324 -20.357 -20.208  0.00  0.00    -0.000 C 
ENDBRANCH  30  31
ENDBRANCH  27  30
ENDBRANCH  25  27
ENDBRANCH  24  25
BRANCH  24  37
ATOM     37  C   UNL     1      34.332 -14.049 -24.322  0.00  0.00    +0.027 C 
BRANCH  37  38
ATOM     38  C   UNL     1      33.311 -14.898 -25.106  0.00  0.00    +0.002 C 
ATOM     39  C   UNL     1      33.889 -16.241 -25.555  0.00  0.00    +0.000 C 
ATOM     40  C   UNL     1      32.818 -14.116 -26.327  0.00  0.00    +0.000 C 
ENDBRANCH  37  38
ENDBRANCH  24  37
ENDBRANCH   7  24
TORSDOF 14
ENDMDL
MODEL 6
REMARK VINA RESULT:      -8.2      3.059      9.298
REMARK  Name = 5494440
REMARK  14 active torsions:
REMARK  status: ('A' for Active; 'I' for Inactive)
REMARK    1  A    between atoms: C_3  and  C_10
REMARK    2  A    between atoms: C_7  and  C_24
REMARK    3  A    between atoms: N_9  and  C_12
REMARK    4  A    between atoms: C_12  and  C_13
REMARK    5  A    between atoms: C_13  and  C_14
REMARK    6  A    between atoms: C_14  and  C_15
REMARK    7  A    between atoms: C_15  and  N_16
REMARK    8  A    between atoms: N_16  and  C_19
REMARK    9  A    between atoms: C_24  and  N_25
REMARK   10  A    between atoms: C_24  and  C_37
REMARK   11  A    between atoms: N_25  and  S_27
REMARK   12  A    between atoms: S_27  and  C_30
REMARK   13  A    between atoms: C_30  and  C_31
REMARK   14  A    between atoms: C_37  and  C_38
REMARK                            x       y       z     vdW  Elec       q    Type
REMARK                         _______ _______ _______ _____ _____    ______ ____
ROOT
ATOM      1  O   UNL     1      32.543 -13.061 -22.512  0.00  0.00    -0.273 OA
ATOM      2  N   UNL     1      33.038 -13.088 -24.773  0.00  0.00    -0.272 N 
ATOM      3  C   UNL     1      32.747 -14.500 -24.990  0.00  0.00    +0.152 C 
ATOM      4  C   UNL     1      32.655 -14.648 -26.504  0.00  0.00    +0.031 C 
ATOM      5  C   UNL     1      33.388 -12.424 -26.026  0.00  0.00    +0.094 C 
ATOM      6  C   UNL     1      33.583 -13.554 -27.026  0.00  0.00    +0.024 C 
ATOM      7  C   UNL     1      32.838 -12.466 -23.551  0.00  0.00    +0.242 C 
ENDROOT
BRANCH   3  10
ATOM      8  O   UNL     1      34.648 -14.803 -23.577  0.00  0.00    -0.273 OA
ATOM      9  N   UNL     1      33.999 -16.541 -24.982  0.00  0.00    -0.303 N 
ATOM     10  C   UNL     1      33.896 -15.279 -24.424  0.00  0.00    +0.241 C 
ATOM     11  H   UNL     1      33.334 -16.811 -25.656  0.00  0.00    +0.149 HD
BRANCH   9  12
ATOM     12  C   UNL     1      35.036 -17.481 -24.624  0.00  0.00    +0.090 C 
BRANCH  12  13
ATOM     13  C   UNL     1      34.476 -18.850 -24.250  0.00  0.00    +0.023 C 
BRANCH  13  14
ATOM     14  C   UNL     1      35.073 -19.392 -22.945  0.00  0.00    +0.028 C 
BRANCH  14  15
ATOM     15  C   UNL     1      34.148 -19.184 -21.752  0.00  0.00    +0.129 C 
BRANCH  15  16
ATOM     16  N   UNL     1      34.763 -19.735 -20.543  0.00  0.00    -0.240 NA
BRANCH  16  19
ATOM     17  N   UNL     1      32.800 -20.956 -19.892  0.00  0.00    -0.370 N 
ATOM     18  N   UNL     1      34.879 -21.738 -19.383  0.00  0.00    -0.370 N 
ATOM     19  C   UNL     1      34.155 -20.734 -19.983  0.00  0.00    +0.189 C 
ATOM     20  H   UNL     1      32.167 -20.310 -20.282  0.00  0.00    +0.159 HD
ATOM     21  H   UNL     1      32.462 -21.761 -19.436  0.00  0.00    +0.159 HD
ATOM     22  H   UNL     1      35.863 -21.700 -19.377  0.00  0.00    +0.159 HD
ATOM     23  H   UNL     1      34.413 -22.494 -18.958  0.00  0.00    +0.159 HD
ENDBRANCH  16  19
ENDBRANCH  15  16
ENDBRANCH  14  15
ENDBRANCH  13  14
ENDBRANCH  12  13
ENDBRANCH   9  12
ENDBRANCH   3  10
BRANCH   7  24
ATOM     24  C   UNL     1      33.020 -10.970 -23.546  0.00  0.00    +0.151 C 
BRANCH  24  25
ATOM     25  N   UNL     1      32.614 -10.581 -22.183  0.00  0.00    -0.176 NA
ATOM     26  H   UNL     1      31.769 -11.108 -21.963  0.00  0.00    +0.149 HD
BRANCH  25  27
ATOM     27  S   UNL     1      32.281  -8.940 -21.848  0.00  0.00    +0.045 S 
ATOM     28  O   UNL     1      33.502  -8.165 -21.935  0.00  0.00    -0.157 OA
ATOM     29  O   UNL     1      31.440  -8.872 -20.669  0.00  0.00    -0.157 OA
BRANCH  27  30
ATOM     30  C   UNL     1      31.267  -8.522 -23.249  0.00  0.00    +0.195 C 
BRANCH  30  31
ATOM     31  C   UNL     1      31.323  -7.036 -23.425  0.00  0.00    +0.003 C 
ATOM     32  C   UNL     1      30.810  -6.197 -22.436  0.00  0.00    -0.003 C 
ATOM     33  C   UNL     1      31.886  -6.491 -24.579  0.00  0.00    -0.003 C 
ATOM     34  C   UNL     1      30.862  -4.812 -22.600  0.00  0.00    -0.000 C 
ATOM     35  C   UNL     1      31.938  -5.107 -24.744  0.00  0.00    -0.000 C 
ATOM     36  C   UNL     1      31.425  -4.267 -23.754  0.00  0.00    -0.000 C 
ENDBRANCH  30  31
ENDBRANCH  27  30
ENDBRANCH  25  27
ENDBRANCH  24  25
BRANCH  24  37
ATOM     37  C   UNL     1      34.472 -10.611 -23.823  0.00  0.00    +0.027 C 
BRANCH  37  38
ATOM     38  C   UNL     1      34.673  -9.620 -24.987  0.00  0.00    +0.002 C 
ATOM     39  C   UNL     1      35.767 -10.070 -25.956  0.00  0.00    +0.000 C 
ATOM     40  C   UNL     1      35.014  -8.234 -24.432  0.00  0.00    +0.000 C 
ENDBRANCH  37  38
ENDBRANCH  24  37
ENDBRANCH   7  24
TORSDOF 14
ENDMDL
MODEL 7
REMARK VINA RESULT:      -8.2      6.273     11.909
REMARK  Name = 5494440
REMARK  14 active torsions:
REMARK  status: ('A' for Active; 'I' for Inactive)
REMARK    1  A    between atoms: C_3  and  C_10
REMARK    2  A    between atoms: C_7  and  C_24
REMARK    3  A    between atoms: N_9  and  C_12
REMARK    4  A    between atoms: C_12  and  C_13
REMARK    5  A    between atoms: C_13  and  C_14
REMARK    6  A    between atoms: C_14  and  C_15
REMARK    7  A    between atoms: C_15  and  N_16
REMARK    8  A    between atoms: N_16  and  C_19
REMARK    9  A    between atoms: C_24  and  N_25
REMARK   10  A    between atoms: C_24  and  C_37
REMARK   11  A    between atoms: N_25  and  S_27
REMARK   12  A    between atoms: S_27  and  C_30
REMARK   13  A    between atoms: C_30  and  C_31
REMARK   14  A    between atoms: C_37  and  C_38
REMARK                            x       y       z     vdW  Elec       q    Type
REMARK                         _______ _______ _______ _____ _____    ______ ____
ROOT
ATOM      1  O   UNL     1      33.258 -19.640 -22.319  0.00  0.00    -0.273 OA
ATOM      2  N   UNL     1      35.101 -19.937 -20.950  0.00  0.00    -0.272 N 
ATOM      3  C   UNL     1      34.850 -21.337 -20.635  0.00  0.00    +0.152 C 
ATOM      4  C   UNL     1      36.158 -21.839 -20.033  0.00  0.00    +0.031 C 
ATOM      5  C   UNL     1      36.353 -19.479 -20.354  0.00  0.00    +0.094 C 
ATOM      6  C   UNL     1      36.759 -20.589 -19.396  0.00  0.00    +0.024 C 
ATOM      7  C   UNL     1      34.311 -19.220 -21.835  0.00  0.00    +0.242 C 
ENDROOT
BRANCH   3  10
ATOM      8  O   UNL     1      32.866 -20.500 -19.605  0.00  0.00    -0.273 OA
ATOM      9  N   UNL     1      33.820 -22.459 -18.788  0.00  0.00    -0.303 N 
ATOM     10  C   UNL     1      33.730 -21.371 -19.639  0.00  0.00    +0.241 C 
ATOM     11  H   UNL     1      34.563 -23.093 -18.913  0.00  0.00    +0.149 HD
BRANCH   9  12
ATOM     12  C   UNL     1      32.875 -22.710 -17.723  0.00  0.00    +0.090 C 
BRANCH  12  13
ATOM     13  C   UNL     1      33.522 -23.386 -16.519  0.00  0.00    +0.023 C 
BRANCH  13  14
ATOM     14  C   UNL     1      35.002 -23.017 -16.361  0.00  0.00    +0.028 C 
BRANCH  14  15
ATOM     15  C   UNL     1      35.665 -23.754 -15.204  0.00  0.00    +0.129 C 
BRANCH  15  16
ATOM     16  N   UNL     1      35.900 -25.152 -15.574  0.00  0.00    -0.240 NA
BRANCH  16  19
ATOM     17  N   UNL     1      36.656 -26.588 -13.803  0.00  0.00    -0.370 N 
ATOM     18  N   UNL     1      38.135 -25.695 -15.288  0.00  0.00    -0.370 N 
ATOM     19  C   UNL     1      36.816 -25.784 -14.909  0.00  0.00    +0.189 C 
ATOM     20  H   UNL     1      35.757 -26.736 -13.428  0.00  0.00    +0.159 HD
ATOM     21  H   UNL     1      37.438 -27.015 -13.386  0.00  0.00    +0.159 HD
ATOM     22  H   UNL     1      38.387 -25.148 -16.067  0.00  0.00    +0.159 HD
ATOM     23  H   UNL     1      38.827 -26.177 -14.779  0.00  0.00    +0.159 HD
ENDBRANCH  16  19
ENDBRANCH  15  16
ENDBRANCH  14  15
ENDBRANCH  13  14
ENDBRANCH  12  13
ENDBRANCH   9  12
ENDBRANCH   3  10
BRANCH   7  24
ATOM     24  C   UNL     1      34.812 -17.841 -22.183  0.00  0.00    +0.151 C 
BRANCH  24  25
ATOM     25  N   UNL     1      33.929 -17.425 -23.287  0.00  0.00    -0.176 NA
ATOM     26  H   UNL     1      33.548 -18.277 -23.700  0.00  0.00    +0.149 HD
BRANCH  25  27
ATOM     27  S   UNL     1      34.572 -16.494 -24.565  0.00  0.00    +0.045 S 
ATOM     28  O   UNL     1      35.053 -17.370 -25.615  0.00  0.00    -0.157 OA
ATOM     29  O   UNL     1      35.430 -15.469 -24.002  0.00  0.00    -0.157 OA
BRANCH  27  30
ATOM     30  C   UNL     1      33.100 -15.690 -25.155  0.00  0.00    +0.195 C 
BRANCH  30  31
ATOM     31  C   UNL     1      33.365 -14.216 -25.185  0.00  0.00    +0.003 C 
ATOM     32  C   UNL     1      33.535 -13.564 -26.406  0.00  0.00    -0.003 C 
ATOM     33  C   UNL     1      33.443 -13.497 -23.992  0.00  0.00    -0.003 C 
ATOM     34  C   UNL     1      33.782 -12.190 -26.433  0.00  0.00    -0.000 C 
ATOM     35  C   UNL     1      33.690 -12.125 -24.019  0.00  0.00    -0.000 C 
ATOM     36  C   UNL     1      33.860 -11.471 -25.241  0.00  0.00    -0.000 C 
ENDBRANCH  30  31
ENDBRANCH  27  30
ENDBRANCH  25  27
ENDBRANCH  24  25
BRANCH  24  37
ATOM     37  C   UNL     1      34.686 -16.914 -20.983  0.00  0.00    +0.027 C 
BRANCH  37  38
ATOM     38  C   UNL     1      33.728 -15.725 -21.194  0.00  0.00    +0.002 C 
ATOM     39  C   UNL     1      34.297 -14.412 -20.655  0.00  0.00    +0.000 C 
ATOM     40  C   UNL     1      32.384 -16.019 -20.521  0.00  0.00    +0.000 C 
ENDBRANCH  37  38
ENDBRANCH  24  37
ENDBRANCH   7  24
TORSDOF 14
ENDMDL
MODEL 8
REMARK VINA RESULT:      -8.1      3.028      9.255
REMARK  Name = 5494440
REMARK  14 active torsions:
REMARK  status: ('A' for Active; 'I' for Inactive)
REMARK    1  A    between atoms: C_3  and  C_10
REMARK    2  A    between atoms: C_7  and  C_24
REMARK    3  A    between atoms: N_9  and  C_12
REMARK    4  A    between atoms: C_12  and  C_13
REMARK    5  A    between atoms: C_13  and  C_14
REMARK    6  A    between atoms: C_14  and  C_15
REMARK    7  A    between atoms: C_15  and  N_16
REMARK    8  A    between atoms: N_16  and  C_19
REMARK    9  A    between atoms: C_24  and  N_25
REMARK   10  A    between atoms: C_24  and  C_37
REMARK   11  A    between atoms: N_25  and  S_27
REMARK   12  A    between atoms: S_27  and  C_30
REMARK   13  A    between atoms: C_30  and  C_31
REMARK   14  A    between atoms: C_37  and  C_38
REMARK                            x       y       z     vdW  Elec       q    Type
REMARK                         _______ _______ _______ _____ _____    ______ ____
ROOT
ATOM      1  O   UNL     1      31.566 -11.515 -22.540  0.00  0.00    -0.273 OA
ATOM      2  N   UNL     1      33.265 -11.023 -24.032  0.00  0.00    -0.272 N 
ATOM      3  C   UNL     1      33.157 -12.247 -24.816  0.00  0.00    +0.152 C 
ATOM      4  C   UNL     1      33.948 -11.962 -26.088  0.00  0.00    +0.031 C 
ATOM      5  C   UNL     1      34.266 -10.122 -24.597  0.00  0.00    +0.094 C 
ATOM      6  C   UNL     1      35.003 -10.957 -25.633  0.00  0.00    +0.024 C 
ATOM      7  C   UNL     1      32.399 -10.727 -22.991  0.00  0.00    +0.242 C 
ENDROOT
BRANCH   3  10
ATOM      8  O   UNL     1      34.275 -13.137 -22.905  0.00  0.00    -0.273 OA
ATOM      9  N   UNL     1      33.737 -14.564 -24.662  0.00  0.00    -0.303 N 
ATOM     10  C   UNL     1      33.779 -13.345 -24.008  0.00  0.00    +0.241 C 
ATOM     11  H   UNL     1      33.311 -14.607 -25.548  0.00  0.00    +0.149 HD
BRANCH   9  12
ATOM     12  C   UNL     1      34.290 -15.778 -24.106  0.00  0.00    +0.090 C 
BRANCH  12  13
ATOM     13  C   UNL     1      34.623 -16.810 -25.179  0.00  0.00    +0.023 C 
BRANCH  13  14
ATOM     14  C   UNL     1      34.572 -18.248 -24.647  0.00  0.00    +0.028 C 
BRANCH  14  15
ATOM     15  C   UNL     1      35.269 -18.393 -23.298  0.00  0.00    +0.129 C 
BRANCH  15  16
ATOM     16  N   UNL     1      34.805 -19.610 -22.628  0.00  0.00    -0.240 NA
BRANCH  16  19
ATOM     17  N   UNL     1      33.736 -19.979 -20.508  0.00  0.00    -0.370 N 
ATOM     18  N   UNL     1      35.841 -19.112 -20.615  0.00  0.00    -0.370 N 
ATOM     19  C   UNL     1      34.765 -19.582 -21.332  0.00  0.00    +0.189 C 
ATOM     20  H   UNL     1      32.904 -20.336 -20.897  0.00  0.00    +0.159 HD
ATOM     21  H   UNL     1      33.831 -19.906 -19.531  0.00  0.00    +0.159 HD
ATOM     22  H   UNL     1      36.646 -18.795 -21.086  0.00  0.00    +0.159 HD
ATOM     23  H   UNL     1      35.806 -19.092 -19.631  0.00  0.00    +0.159 HD
ENDBRANCH  16  19
ENDBRANCH  15  16
ENDBRANCH  14  15
ENDBRANCH  13  14
ENDBRANCH  12  13
ENDBRANCH   9  12
ENDBRANCH   3  10
BRANCH   7  24
ATOM     24  C   UNL     1      32.538  -9.346 -22.403  0.00  0.00    +0.151 C 
BRANCH  24  25
ATOM     25  N   UNL     1      31.228  -8.727 -22.670  0.00  0.00    -0.176 NA
ATOM     26  H   UNL     1      30.735  -9.343 -23.317  0.00  0.00    +0.149 HD
BRANCH  25  27
ATOM     27  S   UNL     1      31.167  -7.155 -23.331  0.00  0.00    +0.045 S 
ATOM     28  O   UNL     1      30.494  -6.261 -22.409  0.00  0.00    -0.157 OA
ATOM     29  O   UNL     1      30.743  -7.252 -24.714  0.00  0.00    -0.157 OA
BRANCH  27  30
ATOM     30  C   UNL     1      32.896  -6.736 -23.334  0.00  0.00    +0.195 C 
BRANCH  30  31
ATOM     31  C   UNL     1      33.181  -5.981 -24.596  0.00  0.00    +0.003 C 
ATOM     32  C   UNL     1      32.320  -4.965 -25.009  0.00  0.00    -0.003 C 
ATOM     33  C   UNL     1      34.307  -6.295 -25.357  0.00  0.00    -0.003 C 
ATOM     34  C   UNL     1      32.586  -4.261 -26.185  0.00  0.00    -0.000 C 
ATOM     35  C   UNL     1      34.573  -5.592 -26.532  0.00  0.00    -0.000 C 
ATOM     36  C   UNL     1      33.711  -4.575 -26.946  0.00  0.00    -0.000 C 
ENDBRANCH  30  31
ENDBRANCH  27  30
ENDBRANCH  25  27
ENDBRANCH  24  25
BRANCH  24  37
ATOM     37  C   UNL     1      32.825  -9.433 -20.911  0.00  0.00    +0.027 C 
BRANCH  37  38
ATOM     38  C   UNL     1      31.633  -9.057 -20.010  0.00  0.00    +0.002 C 
ATOM     39  C   UNL     1      31.836  -7.719 -19.298  0.00  0.00    +0.000 C 
ATOM     40  C   UNL     1      31.399 -10.161 -18.974  0.00  0.00    +0.000 C 
ENDBRANCH  37  38
ENDBRANCH  24  37
ENDBRANCH   7  24
TORSDOF 14
ENDMDL
MODEL 9
REMARK VINA RESULT:      -8.1      2.737      4.514
REMARK  Name = 5494440
REMARK  14 active torsions:
REMARK  status: ('A' for Active; 'I' for Inactive)
REMARK    1  A    between atoms: C_3  and  C_10
REMARK    2  A    between atoms: C_7  and  C_24
REMARK    3  A    between atoms: N_9  and  C_12
REMARK    4  A    between atoms: C_12  and  C_13
REMARK    5  A    between atoms: C_13  and  C_14
REMARK    6  A    between atoms: C_14  and  C_15
REMARK    7  A    between atoms: C_15  and  N_16
REMARK    8  A    between atoms: N_16  and  C_19
REMARK    9  A    between atoms: C_24  and  N_25
REMARK   10  A    between atoms: C_24  and  C_37
REMARK   11  A    between atoms: N_25  and  S_27
REMARK   12  A    between atoms: S_27  and  C_30
REMARK   13  A    between atoms: C_30  and  C_31
REMARK   14  A    between atoms: C_37  and  C_38
REMARK                            x       y       z     vdW  Elec       q    Type
REMARK                         _______ _______ _______ _____ _____    ______ ____
ROOT
ATOM      1  O   UNL     1      35.119 -13.929 -22.438  0.00  0.00    -0.273 OA
ATOM      2  N   UNL     1      33.830 -14.006 -24.358  0.00  0.00    -0.272 N 
ATOM      3  C   UNL     1      34.155 -12.667 -24.832  0.00  0.00    +0.152 C 
ATOM      4  C   UNL     1      33.696 -12.648 -26.285  0.00  0.00    +0.031 C 
ATOM      5  C   UNL     1      32.979 -14.710 -25.314  0.00  0.00    +0.094 C 
ATOM      6  C   UNL     1      32.539 -13.644 -26.306  0.00  0.00    +0.024 C 
ATOM      7  C   UNL     1      34.405 -14.555 -23.223  0.00  0.00    +0.242 C 
ENDROOT
BRANCH   3  10
ATOM      8  O   UNL     1      32.470 -12.070 -23.249  0.00  0.00    -0.273 OA
ATOM      9  N   UNL     1      33.792 -10.393 -24.175  0.00  0.00    -0.303 N 
ATOM     10  C   UNL     1      33.377 -11.701 -23.990  0.00  0.00    +0.241 C 
ATOM     11  H   UNL     1      34.534 -10.220 -24.799  0.00  0.00    +0.149 HD
BRANCH   9  12
ATOM     12  C   UNL     1      33.188  -9.269 -23.498  0.00  0.00    +0.090 C 
BRANCH  12  13
ATOM     13  C   UNL     1      34.137  -8.080 -23.383  0.00  0.00    +0.023 C 
BRANCH  13  14
ATOM     14  C   UNL     1      33.594  -6.826 -24.079  0.00  0.00    +0.028 C 
BRANCH  14  15
ATOM     15  C   UNL     1      32.099  -6.636 -23.850  0.00  0.00    +0.129 C 
BRANCH  15  16
ATOM     16  N   UNL     1      31.880  -5.647 -22.793  0.00  0.00    -0.240 NA
BRANCH  16  19
ATOM     17  N   UNL     1      30.430  -3.835 -22.169  0.00  0.00    -0.370 N 
ATOM     18  N   UNL     1      30.686  -4.421 -24.356  0.00  0.00    -0.370 N 
ATOM     19  C   UNL     1      31.049  -4.687 -23.056  0.00  0.00    +0.189 C 
ATOM     20  H   UNL     1      30.605  -3.919 -21.203  0.00  0.00    +0.159 HD
ATOM     21  H   UNL     1      29.815  -3.142 -22.499  0.00  0.00    +0.159 HD
ATOM     22  H   UNL     1      31.058  -4.960 -25.092  0.00  0.00    +0.159 HD
ATOM     23  H   UNL     1      30.054  -3.691 -24.551  0.00  0.00    +0.159 HD
ENDBRANCH  16  19
ENDBRANCH  15  16
ENDBRANCH  14  15
ENDBRANCH  13  14
ENDBRANCH  12  13
ENDBRANCH   9  12
ENDBRANCH   3  10
BRANCH   7  24
ATOM     24  C   UNL     1      34.094 -16.009 -22.975  0.00  0.00    +0.151 C 
BRANCH  24  25
ATOM     25  N   UNL     1      35.355 -16.692 -23.316  0.00  0.00    -0.176 NA
ATOM     26  H   UNL     1      35.442 -16.665 -24.332  0.00  0.00    +0.149 HD
BRANCH  25  27
ATOM     27  S   UNL     1      35.581 -18.315 -22.838  0.00  0.00    +0.045 S 
ATOM     28  O   UNL     1      36.965 -18.696 -23.036  0.00  0.00    -0.157 OA
ATOM     29  O   UNL     1      34.504 -19.113 -23.391  0.00  0.00    -0.157 OA
BRANCH  27  30
ATOM     30  C   UNL     1      35.296 -18.180 -21.087  0.00  0.00    +0.195 C 
BRANCH  30  31
ATOM     31  C   UNL     1      34.933 -19.541 -20.578  0.00  0.00    +0.003 C 
ATOM     32  C   UNL     1      35.935 -20.453 -20.248  0.00  0.00    -0.003 C 
ATOM     33  C   UNL     1      33.591 -19.897 -20.435  0.00  0.00    -0.003 C 
ATOM     34  C   UNL     1      35.596 -21.720 -19.773  0.00  0.00    -0.000 C 
ATOM     35  C   UNL     1      33.252 -21.164 -19.961  0.00  0.00    -0.000 C 
ATOM     36  C   UNL     1      34.255 -22.076 -19.630  0.00  0.00    -0.000 C 
ENDBRANCH  30  31
ENDBRANCH  27  30
ENDBRANCH  25  27
ENDBRANCH  24  25
BRANCH  24  37
ATOM     37  C   UNL     1      33.713 -16.228 -21.518  0.00  0.00    +0.027 C 
BRANCH  37  38
ATOM     38  C   UNL     1      32.375 -15.581 -21.105  0.00  0.00    +0.002 C 
ATOM     39  C   UNL     1      32.567 -14.388 -20.169  0.00  0.00    +0.000 C 
ATOM     40  C   UNL     1      31.482 -16.627 -20.430  0.00  0.00    +0.000 C 
ENDBRANCH  37  38
ENDBRANCH  24  37
ENDBRANCH   7  24
TORSDOF 14
ENDMDL
