MODEL 1
REMARK VINA RESULT:      -9.9      0.000      0.000
REMARK  Name = 5426
REMARK  1 active torsions:
REMARK  status: ('A' for Active; 'I' for Inactive)
REMARK    1  A    between atoms: N_3  and  C_15
REMARK                            x       y       z     vdW  Elec       q    Type
REMARK                         _______ _______ _______ _____ _____    ______ ____
ROOT
ATOM      1  O   UNL     1      32.994 -19.375 -21.663  0.00  0.00    -0.269 OA
ATOM      2  O   UNL     1      37.581 -19.192 -21.042  0.00  0.00    -0.269 OA
ATOM      3  N   UNL     1      35.316 -18.985 -21.660  0.00  0.00    -0.216 N 
ATOM      4  C   UNL     1      34.129 -19.570 -21.271  0.00  0.00    +0.255 C 
ATOM      5  C   UNL     1      36.401 -19.478 -20.966  0.00  0.00    +0.255 C 
ATOM      6  C   UNL     1      34.486 -20.538 -20.235  0.00  0.00    +0.058 C 
ATOM      7  C   UNL     1      35.860 -20.482 -20.050  0.00  0.00    +0.058 C 
ATOM      8  C   UNL     1      33.686 -21.396 -19.508  0.00  0.00    +0.005 C 
ATOM      9  C   UNL     1      36.506 -21.282 -19.129  0.00  0.00    +0.005 C 
ATOM     10  C   UNL     1      34.319 -22.216 -18.570  0.00  0.00    +0.000 C 
ATOM     11  C   UNL     1      35.714 -22.159 -18.382  0.00  0.00    +0.000 C 
ENDROOT
BRANCH   3  15
ATOM     12  O   UNL     1      35.057 -19.763 -24.263  0.00  0.00    -0.273 OA
ATOM     13  O   UNL     1      33.798 -15.546 -25.620  0.00  0.00    -0.275 OA
ATOM     14  N   UNL     1      34.413 -17.647 -24.896  0.00  0.00    -0.254 N 
ATOM     15  C   UNL     1      35.413 -17.973 -22.678  0.00  0.00    +0.160 C 
ATOM     16  C   UNL     1      34.604 -16.743 -22.301  0.00  0.00    +0.039 C 
ATOM     17  C   UNL     1      34.707 -15.712 -23.411  0.00  0.00    +0.088 C 
ATOM     18  C   UNL     1      34.931 -18.570 -23.989  0.00  0.00    +0.247 C 
ATOM     19  C   UNL     1      34.245 -16.274 -24.733  0.00  0.00    +0.228 C 
ATOM     20  H   UNL     1      34.129 -18.013 -25.764  0.00  0.00    +0.158 HD
ENDBRANCH   3  15
TORSDOF 1
ENDMDL
MODEL 2
REMARK VINA RESULT:      -9.9      0.059      2.020
REMARK  Name = 5426
REMARK  1 active torsions:
REMARK  status: ('A' for Active; 'I' for Inactive)
REMARK    1  A    between atoms: N_3  and  C_15
REMARK                            x       y       z     vdW  Elec       q    Type
REMARK                         _______ _______ _______ _____ _____    ______ ____
ROOT
ATOM      1  O   UNL     1      37.585 -19.176 -21.024  0.00  0.00    -0.269 OA
ATOM      2  O   UNL     1      32.999 -19.384 -21.653  0.00  0.00    -0.269 OA
ATOM      3  N   UNL     1      35.319 -18.968 -21.632  0.00  0.00    -0.216 N 
ATOM      4  C   UNL     1      36.406 -19.467 -20.945  0.00  0.00    +0.255 C 
ATOM      5  C   UNL     1      34.136 -19.568 -21.258  0.00  0.00    +0.255 C 
ATOM      6  C   UNL     1      35.868 -20.477 -20.035  0.00  0.00    +0.058 C 
ATOM      7  C   UNL     1      34.495 -20.538 -20.224  0.00  0.00    +0.058 C 
ATOM      8  C   UNL     1      36.515 -21.281 -19.119  0.00  0.00    +0.005 C 
ATOM      9  C   UNL     1      33.696 -21.406 -19.507  0.00  0.00    +0.005 C 
ATOM     10  C   UNL     1      35.726 -22.167 -18.380  0.00  0.00    +0.000 C 
ATOM     11  C   UNL     1      34.331 -22.229 -18.573  0.00  0.00    +0.000 C 
ENDROOT
BRANCH   3  15
ATOM     12  O   UNL     1      35.072 -19.697 -24.251  0.00  0.00    -0.273 OA
ATOM     13  O   UNL     1      33.782 -15.465 -25.528  0.00  0.00    -0.275 OA
ATOM     14  N   UNL     1      34.412 -17.575 -24.844  0.00  0.00    -0.254 N 
ATOM     15  C   UNL     1      35.410 -17.935 -22.630  0.00  0.00    +0.160 C 
ATOM     16  C   UNL     1      34.590 -16.719 -22.232  0.00  0.00    +0.039 C 
ATOM     17  C   UNL     1      34.688 -15.666 -23.321  0.00  0.00    +0.088 C 
ATOM     18  C   UNL     1      34.936 -18.511 -23.954  0.00  0.00    +0.247 C 
ATOM     19  C   UNL     1      34.232 -16.207 -24.655  0.00  0.00    +0.228 C 
ATOM     20  H   UNL     1      34.132 -17.926 -25.719  0.00  0.00    +0.158 HD
ENDBRANCH   3  15
TORSDOF 1
ENDMDL
MODEL 3
REMARK VINA RESULT:      -9.8      5.863      9.514
REMARK  Name = 5426
REMARK  1 active torsions:
REMARK  status: ('A' for Active; 'I' for Inactive)
REMARK    1  A    between atoms: N_3  and  C_15
REMARK                            x       y       z     vdW  Elec       q    Type
REMARK                         _______ _______ _______ _____ _____    ______ ____
ROOT
ATOM      1  O   UNL     1      37.460 -22.673 -16.057  0.00  0.00    -0.269 OA
ATOM      2  O   UNL     1      32.943 -23.633 -16.435  0.00  0.00    -0.269 OA
ATOM      3  N   UNL     1      35.217 -23.369 -15.875  0.00  0.00    -0.216 N 
ATOM      4  C   UNL     1      36.310 -22.754 -16.448  0.00  0.00    +0.255 C 
ATOM      5  C   UNL     1      34.074 -23.230 -16.633  0.00  0.00    +0.255 C 
ATOM      6  C   UNL     1      35.825 -22.172 -17.700  0.00  0.00    +0.058 C 
ATOM      7  C   UNL     1      34.473 -22.461 -17.811  0.00  0.00    +0.058 C 
ATOM      8  C   UNL     1      36.500 -21.450 -18.662  0.00  0.00    +0.005 C 
ATOM      9  C   UNL     1      33.724 -22.042 -18.892  0.00  0.00    +0.005 C 
ATOM     10  C   UNL     1      35.761 -21.016 -19.767  0.00  0.00    +0.000 C 
ATOM     11  C   UNL     1      34.387 -21.309 -19.880  0.00  0.00    +0.000 C 
ENDROOT
BRANCH   3  15
ATOM     12  O   UNL     1      35.681 -26.057 -15.946  0.00  0.00    -0.273 OA
ATOM     13  O   UNL     1      37.259 -26.116 -11.621  0.00  0.00    -0.275 OA
ATOM     14  N   UNL     1      36.480 -26.040 -13.790  0.00  0.00    -0.254 N 
ATOM     15  C   UNL     1      35.264 -24.078 -14.624  0.00  0.00    +0.160 C 
ATOM     16  C   UNL     1      36.091 -23.320 -13.599  0.00  0.00    +0.039 C 
ATOM     17  C   UNL     1      36.141 -24.112 -12.305  0.00  0.00    +0.088 C 
ATOM     18  C   UNL     1      35.837 -25.460 -14.882  0.00  0.00    +0.247 C 
ATOM     19  C   UNL     1      36.697 -25.498 -12.526  0.00  0.00    +0.228 C 
ATOM     20  H   UNL     1      36.826 -26.950 -13.930  0.00  0.00    +0.158 HD
ENDBRANCH   3  15
TORSDOF 1
ENDMDL
MODEL 4
REMARK VINA RESULT:      -9.8      1.284      1.756
REMARK  Name = 5426
REMARK  1 active torsions:
REMARK  status: ('A' for Active; 'I' for Inactive)
REMARK    1  A    between atoms: N_3  and  C_15
REMARK                            x       y       z     vdW  Elec       q    Type
REMARK                         _______ _______ _______ _____ _____    ______ ____
ROOT
ATOM      1  O   UNL     1      32.360 -20.509 -20.951  0.00  0.00    -0.269 OA
ATOM      2  O   UNL     1      36.784 -19.207 -21.399  0.00  0.00    -0.269 OA
ATOM      3  N   UNL     1      34.467 -19.622 -21.518  0.00  0.00    -0.216 N 
ATOM      4  C   UNL     1      33.560 -20.374 -20.800  0.00  0.00    +0.255 C 
ATOM      5  C   UNL     1      35.750 -19.728 -21.024  0.00  0.00    +0.255 C 
ATOM      6  C   UNL     1      34.336 -21.034 -19.752  0.00  0.00    +0.058 C 
ATOM      7  C   UNL     1      35.660 -20.643 -19.887  0.00  0.00    +0.058 C 
ATOM      8  C   UNL     1      33.928 -21.901 -18.759  0.00  0.00    +0.005 C 
ATOM      9  C   UNL     1      36.647 -21.100 -19.036  0.00  0.00    +0.005 C 
ATOM     10  C   UNL     1      34.911 -22.377 -17.886  0.00  0.00    +0.000 C 
ATOM     11  C   UNL     1      36.256 -21.980 -18.023  0.00  0.00    +0.000 C 
ENDROOT
BRANCH   3  15
ATOM     12  O   UNL     1      34.556 -16.909 -21.237  0.00  0.00    -0.273 OA
ATOM     13  O   UNL     1      35.029 -16.241 -25.768  0.00  0.00    -0.275 OA
ATOM     14  N   UNL     1      34.810 -16.620 -23.505  0.00  0.00    -0.254 N 
ATOM     15  C   UNL     1      34.114 -18.815 -22.656  0.00  0.00    +0.160 C 
ATOM     16  C   UNL     1      34.769 -19.342 -23.921  0.00  0.00    +0.039 C 
ATOM     17  C   UNL     1      34.397 -18.449 -25.092  0.00  0.00    +0.088 C 
ATOM     18  C   UNL     1      34.534 -17.383 -22.372  0.00  0.00    +0.247 C 
ATOM     19  C   UNL     1      34.792 -17.014 -24.840  0.00  0.00    +0.228 C 
ATOM     20  H   UNL     1      35.050 -15.680 -23.339  0.00  0.00    +0.158 HD
ENDBRANCH   3  15
TORSDOF 1
ENDMDL
MODEL 5
REMARK VINA RESULT:      -9.8      5.869      9.311
REMARK  Name = 5426
REMARK  1 active torsions:
REMARK  status: ('A' for Active; 'I' for Inactive)
REMARK    1  A    between atoms: N_3  and  C_15
REMARK                            x       y       z     vdW  Elec       q    Type
REMARK                         _______ _______ _______ _____ _____    ______ ____
ROOT
ATOM      1  O   UNL     1      32.962 -23.606 -16.406  0.00  0.00    -0.269 OA
ATOM      2  O   UNL     1      37.498 -22.726 -16.075  0.00  0.00    -0.269 OA
ATOM      3  N   UNL     1      35.241 -23.371 -15.864  0.00  0.00    -0.216 N 
ATOM      4  C   UNL     1      34.095 -23.216 -16.615  0.00  0.00    +0.255 C 
ATOM      5  C   UNL     1      36.341 -22.781 -16.449  0.00  0.00    +0.255 C 
ATOM      6  C   UNL     1      34.495 -22.444 -17.791  0.00  0.00    +0.058 C 
ATOM      7  C   UNL     1      35.853 -22.181 -17.690  0.00  0.00    +0.058 C 
ATOM      8  C   UNL     1      33.743 -22.007 -18.862  0.00  0.00    +0.005 C 
ATOM      9  C   UNL     1      36.532 -21.466 -18.657  0.00  0.00    +0.005 C 
ATOM     10  C   UNL     1      34.410 -21.280 -19.853  0.00  0.00    +0.000 C 
ATOM     11  C   UNL     1      35.790 -21.013 -19.751  0.00  0.00    +0.000 C 
ENDROOT
BRANCH   3  15
ATOM     12  O   UNL     1      35.682 -26.063 -15.917  0.00  0.00    -0.273 OA
ATOM     13  O   UNL     1      37.270 -26.104 -11.595  0.00  0.00    -0.275 OA
ATOM     14  N   UNL     1      36.487 -26.037 -13.762  0.00  0.00    -0.254 N 
ATOM     15  C   UNL     1      35.285 -24.071 -14.607  0.00  0.00    +0.160 C 
ATOM     16  C   UNL     1      36.121 -23.313 -13.590  0.00  0.00    +0.039 C 
ATOM     17  C   UNL     1      36.167 -24.096 -12.290  0.00  0.00    +0.088 C 
ATOM     18  C   UNL     1      35.846 -25.460 -14.857  0.00  0.00    +0.247 C 
ATOM     19  C   UNL     1      36.712 -25.488 -12.502  0.00  0.00    +0.228 C 
ATOM     20  H   UNL     1      36.825 -26.951 -13.897  0.00  0.00    +0.158 HD
ENDBRANCH   3  15
TORSDOF 1
ENDMDL
MODEL 6
REMARK VINA RESULT:      -9.7      1.291      2.640
REMARK  Name = 5426
REMARK  1 active torsions:
REMARK  status: ('A' for Active; 'I' for Inactive)
REMARK    1  A    between atoms: N_3  and  C_15
REMARK                            x       y       z     vdW  Elec       q    Type
REMARK                         _______ _______ _______ _____ _____    ______ ____
ROOT
ATOM      1  O   UNL     1      36.782 -19.273 -21.385  0.00  0.00    -0.269 OA
ATOM      2  O   UNL     1      32.344 -20.534 -20.961  0.00  0.00    -0.269 OA
ATOM      3  N   UNL     1      34.461 -19.653 -21.507  0.00  0.00    -0.216 N 
ATOM      4  C   UNL     1      35.742 -19.781 -21.010  0.00  0.00    +0.255 C 
ATOM      5  C   UNL     1      33.544 -20.403 -20.802  0.00  0.00    +0.255 C 
ATOM      6  C   UNL     1      35.635 -20.692 -19.872  0.00  0.00    +0.058 C 
ATOM      7  C   UNL     1      34.306 -21.069 -19.746  0.00  0.00    +0.058 C 
ATOM      8  C   UNL     1      36.611 -21.160 -19.016  0.00  0.00    +0.005 C 
ATOM      9  C   UNL     1      33.883 -21.933 -18.756  0.00  0.00    +0.005 C 
ATOM     10  C   UNL     1      36.205 -22.035 -18.005  0.00  0.00    +0.000 C 
ATOM     11  C   UNL     1      34.855 -22.419 -17.877  0.00  0.00    +0.000 C 
ENDROOT
BRANCH   3  15
ATOM     12  O   UNL     1      34.603 -16.945 -21.200  0.00  0.00    -0.273 OA
ATOM     13  O   UNL     1      35.072 -16.242 -25.726  0.00  0.00    -0.275 OA
ATOM     14  N   UNL     1      34.855 -16.639 -23.465  0.00  0.00    -0.254 N 
ATOM     15  C   UNL     1      34.119 -18.829 -22.635  0.00  0.00    +0.160 C 
ATOM     16  C   UNL     1      34.760 -19.355 -23.909  0.00  0.00    +0.039 C 
ATOM     17  C   UNL     1      34.401 -18.445 -25.069  0.00  0.00    +0.088 C 
ATOM     18  C   UNL     1      34.568 -17.408 -22.339  0.00  0.00    +0.247 C 
ATOM     19  C   UNL     1      34.824 -17.019 -24.804  0.00  0.00    +0.228 C 
ATOM     20  H   UNL     1      35.113 -15.706 -23.292  0.00  0.00    +0.158 HD
ENDBRANCH   3  15
TORSDOF 1
ENDMDL
MODEL 7
REMARK VINA RESULT:      -9.7      1.642      5.979
REMARK  Name = 5426
REMARK  1 active torsions:
REMARK  status: ('A' for Active; 'I' for Inactive)
REMARK    1  A    between atoms: N_3  and  C_15
REMARK                            x       y       z     vdW  Elec       q    Type
REMARK                         _______ _______ _______ _____ _____    ______ ____
ROOT
ATOM      1  O   UNL     1      34.791 -19.410 -24.284  0.00  0.00    -0.269 OA
ATOM      2  O   UNL     1      35.184 -17.090 -20.292  0.00  0.00    -0.269 OA
ATOM      3  N   UNL     1      35.069 -18.619 -22.083  0.00  0.00    -0.216 N 
ATOM      4  C   UNL     1      34.817 -18.537 -23.437  0.00  0.00    +0.255 C 
ATOM      5  C   UNL     1      35.012 -17.391 -21.459  0.00  0.00    +0.255 C 
ATOM      6  C   UNL     1      34.565 -17.122 -23.707  0.00  0.00    +0.058 C 
ATOM      7  C   UNL     1      34.683 -16.429 -22.511  0.00  0.00    +0.058 C 
ATOM      8  C   UNL     1      34.261 -16.487 -24.893  0.00  0.00    +0.005 C 
ATOM      9  C   UNL     1      34.501 -15.062 -22.439  0.00  0.00    +0.005 C 
ATOM     10  C   UNL     1      34.072 -15.102 -24.843  0.00  0.00    +0.000 C 
ATOM     11  C   UNL     1      34.192 -14.398 -23.628  0.00  0.00    +0.000 C 
ENDROOT
BRANCH   3  15
ATOM     12  O   UNL     1      37.612 -19.003 -21.170  0.00  0.00    -0.273 OA
ATOM     13  O   UNL     1      36.242 -22.050 -18.001  0.00  0.00    -0.275 OA
ATOM     14  N   UNL     1      36.883 -20.505 -19.588  0.00  0.00    -0.254 N 
ATOM     15  C   UNL     1      35.359 -19.850 -21.396  0.00  0.00    +0.160 C 
ATOM     16  C   UNL     1      34.269 -20.183 -20.392  0.00  0.00    +0.039 C 
ATOM     17  C   UNL     1      34.625 -21.470 -19.669  0.00  0.00    +0.088 C 
ATOM     18  C   UNL     1      36.711 -19.708 -20.718  0.00  0.00    +0.247 C 
ATOM     19  C   UNL     1      35.970 -21.368 -18.989  0.00  0.00    +0.228 C 
ATOM     20  H   UNL     1      37.766 -20.451 -19.156  0.00  0.00    +0.158 HD
ENDBRANCH   3  15
TORSDOF 1
ENDMDL
MODEL 8
REMARK VINA RESULT:      -9.6      1.632      6.041
REMARK  Name = 5426
REMARK  1 active torsions:
REMARK  status: ('A' for Active; 'I' for Inactive)
REMARK    1  A    between atoms: N_3  and  C_15
REMARK                            x       y       z     vdW  Elec       q    Type
REMARK                         _______ _______ _______ _____ _____    ______ ____
ROOT
ATOM      1  O   UNL     1      35.069 -17.199 -20.397  0.00  0.00    -0.269 OA
ATOM      2  O   UNL     1      34.856 -19.675 -24.308  0.00  0.00    -0.269 OA
ATOM      3  N   UNL     1      35.057 -18.793 -22.131  0.00  0.00    -0.216 N 
ATOM      4  C   UNL     1      34.950 -17.543 -21.558  0.00  0.00    +0.255 C 
ATOM      5  C   UNL     1      34.845 -18.770 -23.493  0.00  0.00    +0.255 C 
ATOM      6  C   UNL     1      34.651 -16.628 -22.659  0.00  0.00    +0.058 C 
ATOM      7  C   UNL     1      34.588 -17.370 -23.829  0.00  0.00    +0.058 C 
ATOM      8  C   UNL     1      34.448 -15.263 -22.648  0.00  0.00    +0.005 C 
ATOM      9  C   UNL     1      34.318 -16.786 -25.051  0.00  0.00    +0.005 C 
ATOM     10  C   UNL     1      34.174 -14.650 -23.874  0.00  0.00    +0.000 C 
ATOM     11  C   UNL     1      34.109 -15.404 -25.063  0.00  0.00    +0.000 C 
ENDROOT
BRANCH   3  15
ATOM     12  O   UNL     1      37.582 -19.082 -21.136  0.00  0.00    -0.273 OA
ATOM     13  O   UNL     1      36.194 -22.036 -17.888  0.00  0.00    -0.275 OA
ATOM     14  N   UNL     1      36.844 -20.539 -19.517  0.00  0.00    -0.254 N 
ATOM     15  C   UNL     1      35.356 -19.989 -21.389  0.00  0.00    +0.160 C 
ATOM     16  C   UNL     1      34.246 -20.310 -20.402  0.00  0.00    +0.039 C 
ATOM     17  C   UNL     1      34.611 -21.559 -19.620  0.00  0.00    +0.088 C 
ATOM     18  C   UNL     1      36.684 -19.789 -20.681  0.00  0.00    +0.247 C 
ATOM     19  C   UNL     1      35.934 -21.399 -18.909  0.00  0.00    +0.228 C 
ATOM     20  H   UNL     1      37.713 -20.447 -19.064  0.00  0.00    +0.158 HD
ENDBRANCH   3  15
TORSDOF 1
ENDMDL
MODEL 9
REMARK VINA RESULT:      -9.3      1.867      6.213
REMARK  Name = 5426
REMARK  1 active torsions:
REMARK  status: ('A' for Active; 'I' for Inactive)
REMARK    1  A    between atoms: N_3  and  C_15
REMARK                            x       y       z     vdW  Elec       q    Type
REMARK                         _______ _______ _______ _____ _____    ______ ____
ROOT
ATOM      1  O   UNL     1      34.866 -18.502 -24.096  0.00  0.00    -0.269 OA
ATOM      2  O   UNL     1      34.542 -15.124 -20.942  0.00  0.00    -0.269 OA
ATOM      3  N   UNL     1      34.841 -17.084 -22.216  0.00  0.00    -0.216 N 
ATOM      4  C   UNL     1      34.669 -17.439 -23.537  0.00  0.00    +0.255 C 
ATOM      5  C   UNL     1      34.509 -15.768 -21.974  0.00  0.00    +0.255 C 
ATOM      6  C   UNL     1      34.169 -16.239 -24.207  0.00  0.00    +0.058 C 
ATOM      7  C   UNL     1      34.072 -15.229 -23.261  0.00  0.00    +0.058 C 
ATOM      8  C   UNL     1      33.828 -16.038 -25.529  0.00  0.00    +0.005 C 
ATOM      9  C   UNL     1      33.628 -13.963 -23.588  0.00  0.00    +0.005 C 
ATOM     10  C   UNL     1      33.375 -14.763 -25.882  0.00  0.00    +0.000 C 
ATOM     11  C   UNL     1      33.277 -13.737 -24.921  0.00  0.00    +0.000 C 
ENDROOT
BRANCH   3  15
ATOM     12  O   UNL     1      33.020 -18.722 -21.012  0.00  0.00    -0.273 OA
ATOM     13  O   UNL     1      36.251 -21.763 -19.780  0.00  0.00    -0.275 OA
ATOM     14  N   UNL     1      34.662 -20.225 -20.432  0.00  0.00    -0.254 N 
ATOM     15  C   UNL     1      35.315 -17.987 -21.201  0.00  0.00    +0.160 C 
ATOM     16  C   UNL     1      36.594 -18.679 -21.641  0.00  0.00    +0.039 C 
ATOM     17  C   UNL     1      37.046 -19.643 -20.558  0.00  0.00    +0.088 C 
ATOM     18  C   UNL     1      34.216 -18.994 -20.909  0.00  0.00    +0.247 C 
ATOM     19  C   UNL     1      35.972 -20.654 -20.236  0.00  0.00    +0.228 C 
ATOM     20  H   UNL     1      33.960 -20.876 -20.206  0.00  0.00    +0.158 HD
ENDBRANCH   3  15
TORSDOF 1
ENDMDL
