MODEL 1
REMARK VINA RESULT:     -10.5      0.000      0.000
REMARK  Name = 56944144
REMARK  5 active torsions:
REMARK  status: ('A' for Active; 'I' for Inactive)
REMARK    1  A    between atoms: C_1  and  C_16
REMARK    2  A    between atoms: C_1  and  C_22
REMARK    3  A    between atoms: C_2  and  C_8
REMARK    4  A    between atoms: C_22  and  O_23
REMARK    5  A    between atoms: O_23  and  C_26
REMARK                            x       y       z     vdW  Elec       q    Type
REMARK                         _______ _______ _______ _____ _____    ______ ____
ROOT
ATOM      1  C   UNL     1      35.197 -23.932 -14.093  0.00  0.00    +0.068 C 
ATOM      2  C   UNL     1      33.954 -24.324 -13.351  0.00  0.00    +0.084 C 
ATOM      3  C   UNL     1      35.011 -23.507 -12.666  0.00  0.00    +0.018 C 
ENDROOT
BRANCH   2   8
ATOM      4  F   UNL     1      27.065 -22.971 -16.713  0.00  0.00    -0.203 F 
ATOM      5  O   UNL     1      32.328 -22.703 -13.017  0.00  0.00    -0.275 OA
ATOM      6  N   UNL     1      31.965 -24.334 -14.670  0.00  0.00    -0.269 N 
ATOM      7  N   UNL     1      30.187 -24.744 -16.196  0.00  0.00    -0.227 NA
ATOM      8  C   UNL     1      32.658 -23.692 -13.658  0.00  0.00    +0.227 C 
ATOM      9  C   UNL     1      30.700 -23.986 -15.201  0.00  0.00    +0.134 C 
ATOM     10  C   UNL     1      30.064 -22.879 -14.662  0.00  0.00    +0.037 C 
ATOM     11  C   UNL     1      28.821 -22.528 -15.177  0.00  0.00    +0.034 C 
ATOM     12  C   UNL     1      28.977 -24.371 -16.671  0.00  0.00    +0.130 C 
ATOM     13  C   UNL     1      28.260 -23.283 -16.201  0.00  0.00    +0.159 C 
ATOM     14  H   UNL     1      32.402 -25.123 -15.065  0.00  0.00    +0.156 HD
ENDBRANCH   2   8
BRANCH   1  16
ATOM     15  F   UNL     1      39.804 -25.490 -13.899  0.00  0.00    -0.204 F 
ATOM     16  C   UNL     1      36.243 -24.947 -14.406  0.00  0.00    -0.017 C 
ATOM     17  C   UNL     1      37.560 -24.740 -13.997  0.00  0.00    +0.025 C 
ATOM     18  C   UNL     1      35.904 -26.103 -15.109  0.00  0.00    -0.004 C 
ATOM     19  C   UNL     1      38.539 -25.689 -14.290  0.00  0.00    +0.140 C 
ATOM     20  C   UNL     1      36.883 -27.053 -15.402  0.00  0.00    +0.002 C 
ATOM     21  C   UNL     1      38.200 -26.846 -14.993  0.00  0.00    +0.030 C 
ENDBRANCH   1  16
BRANCH   1  22
ATOM     22  C   UNL     1      35.052 -22.873 -15.136  0.00  0.00    +0.210 C 
BRANCH  22  23
ATOM     23  O   UNL     1      35.101 -23.469 -16.423  0.00  0.00    -0.471 OA
BRANCH  23  26
ATOM     24  N   UNL     1      34.848 -21.208 -19.297  0.00  0.00    -0.356 NA
ATOM     25  N   UNL     1      32.668 -22.097 -18.779  0.00  0.00    -0.183 NA
ATOM     26  C   UNL     1      34.578 -22.743 -17.463  0.00  0.00    +0.184 C 
ATOM     27  C   UNL     1      35.345 -21.928 -18.269  0.00  0.00    +0.156 C 
ATOM     28  C   UNL     1      33.233 -22.789 -17.766  0.00  0.00    +0.149 C 
ATOM     29  C   UNL     1      36.813 -21.803 -18.031  0.00  0.00    +0.071 C 
ATOM     30  C   UNL     1      33.522 -21.337 -19.492  0.00  0.00    +0.064 C 
ATOM     31  C   UNL     1      32.934 -20.556 -20.618  0.00  0.00    +0.129 C 
ENDBRANCH  23  26
ENDBRANCH  22  23
ENDBRANCH   1  22
TORSDOF 5
ENDMDL
MODEL 2
REMARK VINA RESULT:     -10.2      2.900      5.985
REMARK  Name = 56944144
REMARK  5 active torsions:
REMARK  status: ('A' for Active; 'I' for Inactive)
REMARK    1  A    between atoms: C_1  and  C_16
REMARK    2  A    between atoms: C_1  and  C_22
REMARK    3  A    between atoms: C_2  and  C_8
REMARK    4  A    between atoms: C_22  and  O_23
REMARK    5  A    between atoms: O_23  and  C_26
REMARK                            x       y       z     vdW  Elec       q    Type
REMARK                         _______ _______ _______ _____ _____    ______ ____
ROOT
ATOM      1  C   UNL     1      35.011 -23.689 -14.809  0.00  0.00    +0.068 C 
ATOM      2  C   UNL     1      35.803 -23.579 -16.079  0.00  0.00    +0.084 C 
ATOM      3  C   UNL     1      35.219 -24.900 -15.670  0.00  0.00    +0.018 C 
ENDROOT
BRANCH   2   8
ATOM      4  F   UNL     1      35.268 -18.845 -22.234  0.00  0.00    -0.203 F 
ATOM      5  O   UNL     1      34.112 -23.174 -17.614  0.00  0.00    -0.275 OA
ATOM      6  N   UNL     1      36.131 -21.992 -17.830  0.00  0.00    -0.269 N 
ATOM      7  N   UNL     1      36.906 -20.353 -19.371  0.00  0.00    -0.227 NA
ATOM      8  C   UNL     1      35.249 -22.894 -17.260  0.00  0.00    +0.227 C 
ATOM      9  C   UNL     1      35.913 -21.176 -18.966  0.00  0.00    +0.134 C 
ATOM     10  C   UNL     1      34.683 -21.277 -19.597  0.00  0.00    +0.037 C 
ATOM     11  C   UNL     1      34.458 -20.479 -20.714  0.00  0.00    +0.034 C 
ATOM     12  C   UNL     1      36.650 -19.594 -20.460  0.00  0.00    +0.130 C 
ATOM     13  C   UNL     1      35.455 -19.620 -21.160  0.00  0.00    +0.159 C 
ATOM     14  H   UNL     1      37.011 -21.907 -17.395  0.00  0.00    +0.156 HD
ENDBRANCH   2   8
BRANCH   1  16
ATOM     15  F   UNL     1      35.192 -24.767 -10.066  0.00  0.00    -0.204 F 
ATOM     16  C   UNL     1      35.692 -23.627 -13.485  0.00  0.00    -0.017 C 
ATOM     17  C   UNL     1      35.113 -24.239 -12.373  0.00  0.00    +0.025 C 
ATOM     18  C   UNL     1      36.909 -22.958 -13.357  0.00  0.00    -0.004 C 
ATOM     19  C   UNL     1      35.750 -24.181 -11.134  0.00  0.00    +0.140 C 
ATOM     20  C   UNL     1      37.547 -22.900 -12.117  0.00  0.00    +0.002 C 
ATOM     21  C   UNL     1      36.967 -23.512 -11.006  0.00  0.00    +0.030 C 
ENDBRANCH   1  16
BRANCH   1  22
ATOM     22  C   UNL     1      33.646 -23.084 -14.815  0.00  0.00    +0.210 C 
BRANCH  22  23
ATOM     23  O   UNL     1      32.681 -24.101 -15.037  0.00  0.00    -0.471 OA
BRANCH  23  26
ATOM     24  N   UNL     1      29.048 -23.613 -15.032  0.00  0.00    -0.356 NA
ATOM     25  N   UNL     1      30.006 -22.504 -16.946  0.00  0.00    -0.183 NA
ATOM     26  C   UNL     1      31.424 -23.693 -15.406  0.00  0.00    +0.184 C 
ATOM     27  C   UNL     1      30.291 -24.007 -14.685  0.00  0.00    +0.156 C 
ATOM     28  C   UNL     1      31.220 -22.932 -16.539  0.00  0.00    +0.149 C 
ATOM     29  C   UNL     1      30.396 -24.825 -13.441  0.00  0.00    +0.071 C 
ATOM     30  C   UNL     1      28.979 -22.876 -16.157  0.00  0.00    +0.064 C 
ATOM     31  C   UNL     1      27.622 -22.422 -16.575  0.00  0.00    +0.129 C 
ENDBRANCH  23  26
ENDBRANCH  22  23
ENDBRANCH   1  22
TORSDOF 5
ENDMDL
MODEL 3
REMARK VINA RESULT:     -10.2     13.681     18.091
REMARK  Name = 56944144
REMARK  5 active torsions:
REMARK  status: ('A' for Active; 'I' for Inactive)
REMARK    1  A    between atoms: C_1  and  C_16
REMARK    2  A    between atoms: C_1  and  C_22
REMARK    3  A    between atoms: C_2  and  C_8
REMARK    4  A    between atoms: C_22  and  O_23
REMARK    5  A    between atoms: O_23  and  C_26
REMARK                            x       y       z     vdW  Elec       q    Type
REMARK                         _______ _______ _______ _____ _____    ______ ____
ROOT
ATOM      1  C   UNL     1      33.737  -7.334 -24.430  0.00  0.00    +0.068 C 
ATOM      2  C   UNL     1      34.770  -8.408 -24.610  0.00  0.00    +0.084 C 
ATOM      3  C   UNL     1      34.867  -7.460 -23.450  0.00  0.00    +0.018 C 
ENDROOT
BRANCH   2   8
ATOM      4  F   UNL     1      32.851 -15.850 -25.842  0.00  0.00    -0.203 F 
ATOM      5  O   UNL     1      34.452 -10.210 -23.185  0.00  0.00    -0.275 OA
ATOM      6  N   UNL     1      34.174 -10.542 -25.495  0.00  0.00    -0.269 N 
ATOM      7  N   UNL     1      33.599 -12.436 -26.814  0.00  0.00    -0.227 NA
ATOM      8  C   UNL     1      34.448  -9.821 -24.346  0.00  0.00    +0.227 C 
ATOM      9  C   UNL     1      33.831 -11.912 -25.590  0.00  0.00    +0.134 C 
ATOM     10  C   UNL     1      33.756 -12.634 -24.410  0.00  0.00    +0.037 C 
ATOM     11  C   UNL     1      33.419 -13.981 -24.492  0.00  0.00    +0.034 C 
ATOM     12  C   UNL     1      33.275 -13.748 -26.854  0.00  0.00    +0.130 C 
ATOM     13  C   UNL     1      33.173 -14.556 -25.733  0.00  0.00    +0.159 C 
ATOM     14  H   UNL     1      34.223 -10.045 -26.344  0.00  0.00    +0.156 HD
ENDBRANCH   2   8
BRANCH   1  16
ATOM     15  F   UNL     1      31.476  -3.430 -26.257  0.00  0.00    -0.204 F 
ATOM     16  C   UNL     1      33.707  -6.153 -25.339  0.00  0.00    -0.017 C 
ATOM     17  C   UNL     1      32.584  -5.327 -25.373  0.00  0.00    +0.025 C 
ATOM     18  C   UNL     1      34.803  -5.875 -26.157  0.00  0.00    -0.004 C 
ATOM     19  C   UNL     1      32.555  -4.222 -26.223  0.00  0.00    +0.140 C 
ATOM     20  C   UNL     1      34.774  -4.770 -27.009  0.00  0.00    +0.002 C 
ATOM     21  C   UNL     1      33.651  -3.944 -27.041  0.00  0.00    +0.030 C 
ENDBRANCH   1  16
BRANCH   1  22
ATOM     22  C   UNL     1      32.388  -7.772 -23.963  0.00  0.00    +0.210 C 
BRANCH  22  23
ATOM     23  O   UNL     1      32.158  -7.273 -22.654  0.00  0.00    -0.471 OA
BRANCH  23  26
ATOM     24  N   UNL     1      32.050  -8.828 -19.337  0.00  0.00    -0.356 NA
ATOM     25  N   UNL     1      31.354 -10.429 -20.998  0.00  0.00    -0.183 NA
ATOM     26  C   UNL     1      31.981  -8.201 -21.659  0.00  0.00    +0.184 C 
ATOM     27  C   UNL     1      32.220  -7.929 -20.328  0.00  0.00    +0.156 C 
ATOM     28  C   UNL     1      31.546  -9.479 -21.939  0.00  0.00    +0.149 C 
ATOM     29  C   UNL     1      32.694  -6.576 -19.912  0.00  0.00    +0.071 C 
ATOM     30  C   UNL     1      31.622 -10.040 -19.737  0.00  0.00    +0.064 C 
ATOM     31  C   UNL     1      31.423 -11.063 -18.671  0.00  0.00    +0.129 C 
ENDBRANCH  23  26
ENDBRANCH  22  23
ENDBRANCH   1  22
TORSDOF 5
ENDMDL
MODEL 4
REMARK VINA RESULT:      -9.9      0.899      1.525
REMARK  Name = 56944144
REMARK  5 active torsions:
REMARK  status: ('A' for Active; 'I' for Inactive)
REMARK    1  A    between atoms: C_1  and  C_16
REMARK    2  A    between atoms: C_1  and  C_22
REMARK    3  A    between atoms: C_2  and  C_8
REMARK    4  A    between atoms: C_22  and  O_23
REMARK    5  A    between atoms: O_23  and  C_26
REMARK                            x       y       z     vdW  Elec       q    Type
REMARK                         _______ _______ _______ _____ _____    ______ ____
ROOT
ATOM      1  C   UNL     1      35.279 -23.999 -13.796  0.00  0.00    +0.068 C 
ATOM      2  C   UNL     1      33.989 -24.459 -13.182  0.00  0.00    +0.084 C 
ATOM      3  C   UNL     1      35.003 -23.734 -12.345  0.00  0.00    +0.018 C 
ENDROOT
BRANCH   2   8
ATOM      4  F   UNL     1      27.222 -22.815 -16.659  0.00  0.00    -0.203 F 
ATOM      5  O   UNL     1      32.396 -22.810 -12.830  0.00  0.00    -0.275 OA
ATOM      6  N   UNL     1      32.035 -24.373 -14.548  0.00  0.00    -0.269 N 
ATOM      7  N   UNL     1      30.285 -24.684 -16.130  0.00  0.00    -0.227 NA
ATOM      8  C   UNL     1      32.717 -23.785 -13.498  0.00  0.00    +0.227 C 
ATOM      9  C   UNL     1      30.792 -23.974 -15.097  0.00  0.00    +0.134 C 
ATOM     10  C   UNL     1      30.170 -22.872 -14.534  0.00  0.00    +0.037 C 
ATOM     11  C   UNL     1      28.950 -22.471 -15.067  0.00  0.00    +0.034 C 
ATOM     12  C   UNL     1      29.097 -24.264 -16.621  0.00  0.00    +0.130 C 
ATOM     13  C   UNL     1      28.396 -23.175 -16.130  0.00  0.00    +0.159 C 
ATOM     14  H   UNL     1      32.462 -25.159 -14.961  0.00  0.00    +0.156 HD
ENDBRANCH   2   8
BRANCH   1  16
ATOM     15  F   UNL     1      39.851 -25.634 -13.462  0.00  0.00    -0.204 F 
ATOM     16  C   UNL     1      36.339 -24.983 -14.154  0.00  0.00    -0.017 C 
ATOM     17  C   UNL     1      37.624 -24.846 -13.630  0.00  0.00    +0.025 C 
ATOM     18  C   UNL     1      36.047 -26.041 -15.015  0.00  0.00    -0.004 C 
ATOM     19  C   UNL     1      38.617 -25.766 -13.964  0.00  0.00    +0.140 C 
ATOM     20  C   UNL     1      37.040 -26.962 -15.351  0.00  0.00    +0.002 C 
ATOM     21  C   UNL     1      38.325 -26.825 -14.825  0.00  0.00    +0.030 C 
ENDBRANCH   1  16
BRANCH   1  22
ATOM     22  C   UNL     1      35.203 -22.829 -14.721  0.00  0.00    +0.210 C 
BRANCH  22  23
ATOM     23  O   UNL     1      34.754 -23.264 -15.995  0.00  0.00    -0.471 OA
BRANCH  23  26
ATOM     24  N   UNL     1      34.811 -21.615 -19.268  0.00  0.00    -0.356 NA
ATOM     25  N   UNL     1      36.936 -21.304 -18.174  0.00  0.00    -0.183 NA
ATOM     26  C   UNL     1      35.189 -22.550 -17.083  0.00  0.00    +0.184 C 
ATOM     27  C   UNL     1      34.401 -22.316 -18.191  0.00  0.00    +0.156 C 
ATOM     28  C   UNL     1      36.460 -22.016 -17.130  0.00  0.00    +0.149 C 
ATOM     29  C   UNL     1      33.008 -22.848 -18.247  0.00  0.00    +0.071 C 
ATOM     30  C   UNL     1      36.071 -21.146 -19.194  0.00  0.00    +0.064 C 
ATOM     31  C   UNL     1      36.563 -20.366 -20.366  0.00  0.00    +0.129 C 
ENDBRANCH  23  26
ENDBRANCH  22  23
ENDBRANCH   1  22
TORSDOF 5
ENDMDL
MODEL 5
REMARK VINA RESULT:      -9.8      2.817      5.860
REMARK  Name = 56944144
REMARK  5 active torsions:
REMARK  status: ('A' for Active; 'I' for Inactive)
REMARK    1  A    between atoms: C_1  and  C_16
REMARK    2  A    between atoms: C_1  and  C_22
REMARK    3  A    between atoms: C_2  and  C_8
REMARK    4  A    between atoms: C_22  and  O_23
REMARK    5  A    between atoms: O_23  and  C_26
REMARK                            x       y       z     vdW  Elec       q    Type
REMARK                         _______ _______ _______ _____ _____    ______ ____
ROOT
ATOM      1  C   UNL     1      34.649 -23.750 -14.902  0.00  0.00    +0.068 C 
ATOM      2  C   UNL     1      35.463 -23.621 -16.157  0.00  0.00    +0.084 C 
ATOM      3  C   UNL     1      34.841 -24.940 -15.797  0.00  0.00    +0.018 C 
ENDROOT
BRANCH   2   8
ATOM      4  F   UNL     1      35.189 -18.826 -22.282  0.00  0.00    -0.203 F 
ATOM      5  O   UNL     1      33.780 -23.074 -17.656  0.00  0.00    -0.275 OA
ATOM      6  N   UNL     1      35.883 -22.056 -17.908  0.00  0.00    -0.269 N 
ATOM      7  N   UNL     1      36.756 -20.476 -19.458  0.00  0.00    -0.227 NA
ATOM      8  C   UNL     1      34.943 -22.888 -17.324  0.00  0.00    +0.227 C 
ATOM      9  C   UNL     1      35.708 -21.219 -19.037  0.00  0.00    +0.134 C 
ATOM     10  C   UNL     1      34.462 -21.218 -19.643  0.00  0.00    +0.037 C 
ATOM     11  C   UNL     1      34.281 -20.399 -20.752  0.00  0.00    +0.034 C 
ATOM     12  C   UNL     1      36.541 -19.693 -20.539  0.00  0.00    +0.130 C 
ATOM     13  C   UNL     1      35.334 -19.619 -21.215  0.00  0.00    +0.159 C 
ATOM     14  H   UNL     1      36.774 -22.044 -17.490  0.00  0.00    +0.156 HD
ENDBRANCH   2   8
BRANCH   1  16
ATOM     15  F   UNL     1      38.297 -22.414 -11.970  0.00  0.00    -0.204 F 
ATOM     16  C   UNL     1      35.311 -23.745 -13.567  0.00  0.00    -0.017 C 
ATOM     17  C   UNL     1      36.518 -23.068 -13.389  0.00  0.00    +0.025 C 
ATOM     18  C   UNL     1      34.725 -24.418 -12.495  0.00  0.00    -0.004 C 
ATOM     19  C   UNL     1      37.138 -23.063 -12.140  0.00  0.00    +0.140 C 
ATOM     20  C   UNL     1      35.346 -24.414 -11.245  0.00  0.00    +0.002 C 
ATOM     21  C   UNL     1      36.552 -23.736 -11.068  0.00  0.00    +0.030 C 
ENDBRANCH   1  16
BRANCH   1  22
ATOM     22  C   UNL     1      33.298 -23.113 -14.909  0.00  0.00    +0.210 C 
BRANCH  22  23
ATOM     23  O   UNL     1      32.302 -24.122 -14.971  0.00  0.00    -0.471 OA
BRANCH  23  26
ATOM     24  N   UNL     1      28.763 -24.165 -15.923  0.00  0.00    -0.356 NA
ATOM     25  N   UNL     1      29.866 -22.319 -17.012  0.00  0.00    -0.183 NA
ATOM     26  C   UNL     1      31.111 -23.782 -15.561  0.00  0.00    +0.184 C 
ATOM     27  C   UNL     1      29.943 -24.486 -15.354  0.00  0.00    +0.156 C 
ATOM     28  C   UNL     1      31.013 -22.698 -16.408  0.00  0.00    +0.149 C 
ATOM     29  C   UNL     1      29.934 -25.678 -14.455  0.00  0.00    +0.071 C 
ATOM     30  C   UNL     1      28.796 -23.087 -16.729  0.00  0.00    +0.064 C 
ATOM     31  C   UNL     1      27.511 -22.700 -17.379  0.00  0.00    +0.129 C 
ENDBRANCH  23  26
ENDBRANCH  22  23
ENDBRANCH   1  22
TORSDOF 5
ENDMDL
MODEL 6
REMARK VINA RESULT:      -9.3      1.859      6.699
REMARK  Name = 56944144
REMARK  5 active torsions:
REMARK  status: ('A' for Active; 'I' for Inactive)
REMARK    1  A    between atoms: C_1  and  C_16
REMARK    2  A    between atoms: C_1  and  C_22
REMARK    3  A    between atoms: C_2  and  C_8
REMARK    4  A    between atoms: C_22  and  O_23
REMARK    5  A    between atoms: O_23  and  C_26
REMARK                            x       y       z     vdW  Elec       q    Type
REMARK                         _______ _______ _______ _____ _____    ______ ____
ROOT
ATOM      1  C   UNL     1      31.589 -23.779 -15.203  0.00  0.00    +0.068 C 
ATOM      2  C   UNL     1      31.926 -24.333 -13.850  0.00  0.00    +0.084 C 
ATOM      3  C   UNL     1      32.044 -25.203 -15.068  0.00  0.00    +0.018 C 
ENDROOT
BRANCH   2   8
ATOM      4  F   UNL     1      39.401 -24.077 -11.695  0.00  0.00    -0.203 F 
ATOM      5  O   UNL     1      33.083 -23.024 -12.323  0.00  0.00    -0.275 OA
ATOM      6  N   UNL     1      34.272 -24.645 -13.541  0.00  0.00    -0.269 N 
ATOM      7  N   UNL     1      36.556 -25.308 -13.578  0.00  0.00    -0.227 NA
ATOM      8  C   UNL     1      33.157 -23.924 -13.149  0.00  0.00    +0.227 C 
ATOM      9  C   UNL     1      35.598 -24.503 -13.067  0.00  0.00    +0.134 C 
ATOM     10  C   UNL     1      35.830 -23.537 -12.100  0.00  0.00    +0.037 C 
ATOM     11  C   UNL     1      37.129 -23.390 -11.628  0.00  0.00    +0.034 C 
ATOM     12  C   UNL     1      37.807 -25.135 -13.093  0.00  0.00    +0.130 C 
ATOM     13  C   UNL     1      38.142 -24.200 -12.128  0.00  0.00    +0.159 C 
ATOM     14  H   UNL     1      34.126 -25.336 -14.227  0.00  0.00    +0.156 HD
ENDBRANCH   2   8
BRANCH   1  16
ATOM     15  F   UNL     1      27.539 -24.967 -17.628  0.00  0.00    -0.204 F 
ATOM     16  C   UNL     1      30.171 -23.514 -15.579  0.00  0.00    -0.017 C 
ATOM     17  C   UNL     1      29.505 -24.382 -16.443  0.00  0.00    +0.025 C 
ATOM     18  C   UNL     1      29.511 -22.396 -15.067  0.00  0.00    -0.004 C 
ATOM     19  C   UNL     1      28.178 -24.134 -16.796  0.00  0.00    +0.140 C 
ATOM     20  C   UNL     1      28.184 -22.148 -15.420  0.00  0.00    +0.002 C 
ATOM     21  C   UNL     1      27.518 -23.017 -16.284  0.00  0.00    +0.030 C 
ENDBRANCH   1  16
BRANCH   1  22
ATOM     22  C   UNL     1      32.562 -22.813 -15.795  0.00  0.00    +0.210 C 
BRANCH  22  23
ATOM     23  O   UNL     1      33.558 -23.528 -16.510  0.00  0.00    -0.471 OA
BRANCH  23  26
ATOM     24  N   UNL     1      36.294 -21.748 -18.177  0.00  0.00    -0.356 NA
ATOM     25  N   UNL     1      34.360 -21.779 -19.616  0.00  0.00    -0.183 NA
ATOM     26  C   UNL     1      34.270 -22.826 -17.450  0.00  0.00    +0.184 C 
ATOM     27  C   UNL     1      35.580 -22.437 -17.264  0.00  0.00    +0.156 C 
ATOM     28  C   UNL     1      33.705 -22.466 -18.656  0.00  0.00    +0.149 C 
ATOM     29  C   UNL     1      36.289 -22.774 -15.994  0.00  0.00    +0.071 C 
ATOM     30  C   UNL     1      35.633 -21.456 -19.313  0.00  0.00    +0.064 C 
ATOM     31  C   UNL     1      36.389 -20.695 -20.349  0.00  0.00    +0.129 C 
ENDBRANCH  23  26
ENDBRANCH  22  23
ENDBRANCH   1  22
TORSDOF 5
ENDMDL
MODEL 7
REMARK VINA RESULT:      -9.1      8.484     11.772
REMARK  Name = 56944144
REMARK  5 active torsions:
REMARK  status: ('A' for Active; 'I' for Inactive)
REMARK    1  A    between atoms: C_1  and  C_16
REMARK    2  A    between atoms: C_1  and  C_22
REMARK    3  A    between atoms: C_2  and  C_8
REMARK    4  A    between atoms: C_22  and  O_23
REMARK    5  A    between atoms: O_23  and  C_26
REMARK                            x       y       z     vdW  Elec       q    Type
REMARK                         _______ _______ _______ _____ _____    ______ ____
ROOT
ATOM      1  C   UNL     1      34.061 -15.925 -20.985  0.00  0.00    +0.068 C 
ATOM      2  C   UNL     1      32.691 -15.351 -20.775  0.00  0.00    +0.084 C 
ATOM      3  C   UNL     1      33.705 -15.296 -19.670  0.00  0.00    +0.018 C 
ENDROOT
BRANCH   2   8
ATOM      4  F   UNL     1      31.217  -7.784 -21.853  0.00  0.00    -0.203 F 
ATOM      5  O   UNL     1      31.910 -14.140 -22.593  0.00  0.00    -0.275 OA
ATOM      6  N   UNL     1      32.398 -12.989 -20.603  0.00  0.00    -0.269 N 
ATOM      7  N   UNL     1      32.269 -10.700 -19.969  0.00  0.00    -0.227 NA
ATOM      8  C   UNL     1      32.287 -14.094 -21.430  0.00  0.00    +0.227 C 
ATOM      9  C   UNL     1      32.094 -11.643 -20.921  0.00  0.00    +0.134 C 
ATOM     10  C   UNL     1      31.631 -11.378 -22.200  0.00  0.00    +0.037 C 
ATOM     11  C   UNL     1      31.329 -10.060 -22.522  0.00  0.00    +0.034 C 
ATOM     12  C   UNL     1      31.965  -9.430 -20.319  0.00  0.00    +0.130 C 
ATOM     13  C   UNL     1      31.496  -9.061 -21.570  0.00  0.00    +0.159 C 
ATOM     14  H   UNL     1      32.725 -13.158 -19.690  0.00  0.00    +0.156 HD
ENDBRANCH   2   8
BRANCH   1  16
ATOM     15  F   UNL     1      32.293 -20.459 -21.049  0.00  0.00    -0.204 F 
ATOM     16  C   UNL     1      34.263 -17.400 -21.041  0.00  0.00    -0.017 C 
ATOM     17  C   UNL     1      33.162 -18.256 -21.020  0.00  0.00    +0.025 C 
ATOM     18  C   UNL     1      35.553 -17.926 -21.115  0.00  0.00    -0.004 C 
ATOM     19  C   UNL     1      33.350 -19.637 -21.072  0.00  0.00    +0.140 C 
ATOM     20  C   UNL     1      35.742 -19.307 -21.167  0.00  0.00    +0.002 C 
ATOM     21  C   UNL     1      34.640 -20.162 -21.145  0.00  0.00    +0.030 C 
ENDBRANCH   1  16
BRANCH   1  22
ATOM     22  C   UNL     1      34.983 -15.155 -21.873  0.00  0.00    +0.210 C 
BRANCH  22  23
ATOM     23  O   UNL     1      35.131 -15.840 -23.106  0.00  0.00    -0.471 OA
BRANCH  23  26
ATOM     24  N   UNL     1      33.399 -15.578 -26.326  0.00  0.00    -0.356 NA
ATOM     25  N   UNL     1      33.576 -13.391 -25.328  0.00  0.00    -0.183 NA
ATOM     26  C   UNL     1      34.479 -15.312 -24.192  0.00  0.00    +0.184 C 
ATOM     27  C   UNL     1      34.044 -16.080 -25.252  0.00  0.00    +0.156 C 
ATOM     28  C   UNL     1      34.216 -13.961 -24.284  0.00  0.00    +0.149 C 
ATOM     29  C   UNL     1      34.275 -17.554 -25.256  0.00  0.00    +0.071 C 
ATOM     30  C   UNL     1      33.202 -14.246 -26.299  0.00  0.00    +0.064 C 
ATOM     31  C   UNL     1      32.494 -13.653 -27.469  0.00  0.00    +0.129 C 
ENDBRANCH  23  26
ENDBRANCH  22  23
ENDBRANCH   1  22
TORSDOF 5
ENDMDL
MODEL 8
REMARK VINA RESULT:      -8.8     13.873     17.899
REMARK  Name = 56944144
REMARK  5 active torsions:
REMARK  status: ('A' for Active; 'I' for Inactive)
REMARK    1  A    between atoms: C_1  and  C_16
REMARK    2  A    between atoms: C_1  and  C_22
REMARK    3  A    between atoms: C_2  and  C_8
REMARK    4  A    between atoms: C_22  and  O_23
REMARK    5  A    between atoms: O_23  and  C_26
REMARK                            x       y       z     vdW  Elec       q    Type
REMARK                         _______ _______ _______ _____ _____    ______ ____
ROOT
ATOM      1  C   UNL     1      32.941  -8.676 -22.530  0.00  0.00    +0.068 C 
ATOM      2  C   UNL     1      32.753  -7.187 -22.525  0.00  0.00    +0.084 C 
ATOM      3  C   UNL     1      34.004  -7.787 -21.952  0.00  0.00    +0.018 C 
ENDROOT
BRANCH   2   8
ATOM      4  F   UNL     1      31.264  -1.795 -27.938  0.00  0.00    -0.203 F 
ATOM      5  O   UNL     1      33.699  -6.725 -24.592  0.00  0.00    -0.275 OA
ATOM      6  N   UNL     1      31.922  -5.381 -23.845  0.00  0.00    -0.269 N 
ATOM      7  N   UNL     1      30.780  -3.516 -24.782  0.00  0.00    -0.227 NA
ATOM      8  C   UNL     1      32.848  -6.407 -23.772  0.00  0.00    +0.227 C 
ATOM      9  C   UNL     1      31.747  -4.453 -24.900  0.00  0.00    +0.134 C 
ATOM     10  C   UNL     1      32.589  -4.566 -25.995  0.00  0.00    +0.037 C 
ATOM     11  C   UNL     1      32.425  -3.660 -27.037  0.00  0.00    +0.034 C 
ATOM     12  C   UNL     1      30.651  -2.653 -25.815  0.00  0.00    +0.130 C 
ATOM     13  C   UNL     1      31.441  -2.682 -26.953  0.00  0.00    +0.159 C 
ATOM     14  H   UNL     1      31.315  -5.285 -23.075  0.00  0.00    +0.156 HD
ENDBRANCH   2   8
BRANCH   1  16
ATOM     15  F   UNL     1      31.878 -10.258 -18.052  0.00  0.00    -0.204 F 
ATOM     16  C   UNL     1      32.153  -9.541 -21.608  0.00  0.00    -0.017 C 
ATOM     17  C   UNL     1      32.388  -9.493 -20.234  0.00  0.00    +0.025 C 
ATOM     18  C   UNL     1      31.180 -10.400 -22.119  0.00  0.00    -0.004 C 
ATOM     19  C   UNL     1      31.651 -10.303 -19.371  0.00  0.00    +0.140 C 
ATOM     20  C   UNL     1      30.442 -11.211 -21.256  0.00  0.00    +0.002 C 
ATOM     21  C   UNL     1      30.678 -11.162 -19.882  0.00  0.00    +0.030 C 
ENDBRANCH   1  16
BRANCH   1  22
ATOM     22  C   UNL     1      33.239  -9.311 -23.849  0.00  0.00    +0.210 C 
BRANCH  22  23
ATOM     23  O   UNL     1      34.086 -10.432 -23.651  0.00  0.00    -0.471 OA
BRANCH  23  26
ATOM     24  N   UNL     1      33.232 -13.899 -24.480  0.00  0.00    -0.356 NA
ATOM     25  N   UNL     1      33.489 -12.626 -26.511  0.00  0.00    -0.183 NA
ATOM     26  C   UNL     1      33.798 -11.562 -24.374  0.00  0.00    +0.184 C 
ATOM     27  C   UNL     1      33.519 -12.778 -23.786  0.00  0.00    +0.156 C 
ATOM     28  C   UNL     1      33.768 -11.545 -25.753  0.00  0.00    +0.149 C 
ATOM     29  C   UNL     1      33.523 -12.911 -22.299  0.00  0.00    +0.071 C 
ATOM     30  C   UNL     1      33.234 -13.753 -25.819  0.00  0.00    +0.064 C 
ATOM     31  C   UNL     1      32.923 -14.970 -26.622  0.00  0.00    +0.129 C 
ENDBRANCH  23  26
ENDBRANCH  22  23
ENDBRANCH   1  22
TORSDOF 5
ENDMDL
MODEL 9
REMARK VINA RESULT:      -8.8      2.412      5.284
REMARK  Name = 56944144
REMARK  5 active torsions:
REMARK  status: ('A' for Active; 'I' for Inactive)
REMARK    1  A    between atoms: C_1  and  C_16
REMARK    2  A    between atoms: C_1  and  C_22
REMARK    3  A    between atoms: C_2  and  C_8
REMARK    4  A    between atoms: C_22  and  O_23
REMARK    5  A    between atoms: O_23  and  C_26
REMARK                            x       y       z     vdW  Elec       q    Type
REMARK                         _______ _______ _______ _____ _____    ______ ____
ROOT
ATOM      1  C   UNL     1      35.411 -23.542 -15.010  0.00  0.00    +0.068 C 
ATOM      2  C   UNL     1      36.525 -23.266 -15.977  0.00  0.00    +0.084 C 
ATOM      3  C   UNL     1      35.859 -24.611 -15.964  0.00  0.00    +0.018 C 
ENDROOT
BRANCH   2   8
ATOM      4  F   UNL     1      33.038 -19.709 -21.958  0.00  0.00    -0.203 F 
ATOM      5  O   UNL     1      37.252 -21.687 -17.513  0.00  0.00    -0.275 OA
ATOM      6  N   UNL     1      35.040 -22.468 -17.666  0.00  0.00    -0.269 N 
ATOM      7  N   UNL     1      33.236 -21.981 -19.138  0.00  0.00    -0.227 NA
ATOM      8  C   UNL     1      36.318 -22.383 -17.139  0.00  0.00    +0.227 C 
ATOM      9  C   UNL     1      34.519 -21.758 -18.774  0.00  0.00    +0.134 C 
ATOM     10  C   UNL     1      35.366 -20.872 -19.421  0.00  0.00    +0.037 C 
ATOM     11  C   UNL     1      34.863 -20.171 -20.511  0.00  0.00    +0.034 C 
ATOM     12  C   UNL     1      32.784 -21.280 -20.202  0.00  0.00    +0.130 C 
ATOM     13  C   UNL     1      33.549 -20.372 -20.916  0.00  0.00    +0.159 C 
ATOM     14  H   UNL     1      34.424 -23.092 -17.219  0.00  0.00    +0.156 HD
ENDBRANCH   2   8
BRANCH   1  16
ATOM     15  F   UNL     1      38.414 -23.197 -11.195  0.00  0.00    -0.204 F 
ATOM     16  C   UNL     1      35.696 -23.715 -13.557  0.00  0.00    -0.017 C 
ATOM     17  C   UNL     1      36.946 -23.368 -13.045  0.00  0.00    +0.025 C 
ATOM     18  C   UNL     1      34.713 -24.225 -12.710  0.00  0.00    -0.004 C 
ATOM     19  C   UNL     1      37.213 -23.529 -11.686  0.00  0.00    +0.140 C 
ATOM     20  C   UNL     1      34.980 -24.387 -11.349  0.00  0.00    +0.002 C 
ATOM     21  C   UNL     1      36.230 -24.040 -10.838  0.00  0.00    +0.030 C 
ENDBRANCH   1  16
BRANCH   1  22
ATOM     22  C   UNL     1      34.098 -22.892 -15.295  0.00  0.00    +0.210 C 
BRANCH  22  23
ATOM     23  O   UNL     1      33.212 -23.846 -15.859  0.00  0.00    -0.471 OA
BRANCH  23  26
ATOM     24  N   UNL     1      29.686 -23.755 -14.864  0.00  0.00    -0.356 NA
ATOM     25  N   UNL     1      30.011 -22.354 -16.797  0.00  0.00    -0.183 NA
ATOM     26  C   UNL     1      31.875 -23.539 -15.839  0.00  0.00    +0.184 C 
ATOM     27  C   UNL     1      31.002 -24.047 -14.900  0.00  0.00    +0.156 C 
ATOM     28  C   UNL     1      31.319 -22.690 -16.773  0.00  0.00    +0.149 C 
ATOM     29  C   UNL     1      31.497 -24.976 -13.841  0.00  0.00    +0.071 C 
ATOM     30  C   UNL     1      29.264 -22.915 -15.828  0.00  0.00    +0.064 C 
ATOM     31  C   UNL     1      27.814 -22.569 -15.823  0.00  0.00    +0.129 C 
ENDBRANCH  23  26
ENDBRANCH  22  23
ENDBRANCH   1  22
TORSDOF 5
ENDMDL
