MODEL 1
REMARK VINA RESULT:      -9.7      0.000      0.000
REMARK  Name = 4594
REMARK  5 active torsions:
REMARK  status: ('A' for Active; 'I' for Inactive)
REMARK    1  A    between atoms: S_1  and  C_5
REMARK    2  A    between atoms: S_1  and  C_16
REMARK    3  A    between atoms: C_10  and  O_14
REMARK    4  A    between atoms: C_16  and  C_18
REMARK    5  A    between atoms: C_20  and  O_25
REMARK                            x       y       z     vdW  Elec       q    Type
REMARK                         _______ _______ _______ _____ _____    ______ ____
ROOT
ATOM      1  S   UNL     1      33.591 -13.768 -24.788  0.00  0.00    +0.085 S 
ATOM      2  O   UNL     1      32.545 -14.097 -25.836  0.00  0.00    -0.252 OA
ENDROOT
BRANCH   1   5
ATOM      3  N   UNL     1      34.456 -15.364 -22.663  0.00  0.00    -0.307 N 
ATOM      4  N   UNL     1      34.141 -16.451 -24.576  0.00  0.00    -0.307 N 
ATOM      5  C   UNL     1      34.087 -15.283 -23.977  0.00  0.00    +0.226 C 
ATOM      6  C   UNL     1      34.771 -16.671 -22.396  0.00  0.00    +0.063 C 
ATOM      7  C   UNL     1      34.566 -17.330 -23.606  0.00  0.00    +0.060 C 
ATOM      8  C   UNL     1      35.205 -17.315 -21.236  0.00  0.00    +0.052 C 
ATOM      9  C   UNL     1      34.803 -18.713 -23.680  0.00  0.00    +0.019 C 
ATOM     10  C   UNL     1      35.435 -18.691 -21.328  0.00  0.00    +0.140 C 
ATOM     11  C   UNL     1      35.238 -19.380 -22.528  0.00  0.00    +0.038 C 
ATOM     12  H   UNL     1      34.492 -14.616 -22.023  0.00  0.00    +0.149 HD
ATOM     13  H   UNL     1      33.925 -16.655 -25.514  0.00  0.00    +0.149 HD
BRANCH  10  14
ATOM     14  O   UNL     1      35.859 -19.373 -20.227  0.00  0.00    -0.471 OA
ATOM     15  C   UNL     1      35.621 -20.779 -20.205  0.00  0.00    +0.252 C 
ENDBRANCH  10  14
ENDBRANCH   1   5
BRANCH   1  16
ATOM     16  C   UNL     1      32.733 -12.935 -23.422  0.00  0.00    +0.140 C 
BRANCH  16  18
ATOM     17  N   UNL     1      34.102 -11.084 -24.136  0.00  0.00    -0.248 NA
ATOM     18  C   UNL     1      33.057 -11.469 -23.377  0.00  0.00    +0.072 C 
ATOM     19  C   UNL     1      32.301 -10.619 -22.593  0.00  0.00    +0.026 C 
ATOM     20  C   UNL     1      32.643  -9.271 -22.588  0.00  0.00    +0.133 C 
ATOM     21  C   UNL     1      33.714  -8.828 -23.357  0.00  0.00    +0.031 C 
ATOM     22  C   UNL     1      31.155 -11.118 -21.778  0.00  0.00    +0.035 C 
ATOM     23  C   UNL     1      34.405  -9.767 -24.106  0.00  0.00    +0.097 C 
ATOM     24  C   UNL     1      34.119  -7.396 -23.386  0.00  0.00    +0.036 C 
BRANCH  20  25
ATOM     25  O   UNL     1      31.931  -8.385 -21.835  0.00  0.00    -0.472 OA
ATOM     26  C   UNL     1      32.355  -8.191 -20.488  0.00  0.00    +0.252 C 
ENDBRANCH  20  25
ENDBRANCH  16  18
ENDBRANCH   1  16
TORSDOF 5
ENDMDL
MODEL 2
REMARK VINA RESULT:      -9.5      1.373      8.699
REMARK  Name = 4594
REMARK  5 active torsions:
REMARK  status: ('A' for Active; 'I' for Inactive)
REMARK    1  A    between atoms: S_1  and  C_5
REMARK    2  A    between atoms: S_1  and  C_16
REMARK    3  A    between atoms: C_10  and  O_14
REMARK    4  A    between atoms: C_16  and  C_18
REMARK    5  A    between atoms: C_20  and  O_25
REMARK                            x       y       z     vdW  Elec       q    Type
REMARK                         _______ _______ _______ _____ _____    ______ ____
ROOT
ATOM      1  S   UNL     1      32.832 -13.697 -23.772  0.00  0.00    +0.085 S 
ATOM      2  O   UNL     1      32.710 -14.021 -25.249  0.00  0.00    -0.252 OA
ENDROOT
BRANCH   1   5
ATOM      3  N   UNL     1      32.267 -11.104 -22.897  0.00  0.00    -0.307 N 
ATOM      4  N   UNL     1      34.119 -11.294 -24.111  0.00  0.00    -0.307 N 
ATOM      5  C   UNL     1      33.099 -11.939 -23.590  0.00  0.00    +0.226 C 
ATOM      6  C   UNL     1      32.784  -9.837 -22.976  0.00  0.00    +0.063 C 
ATOM      7  C   UNL     1      33.940  -9.981 -23.739  0.00  0.00    +0.060 C 
ATOM      8  C   UNL     1      32.353  -8.613 -22.461  0.00  0.00    +0.052 C 
ATOM      9  C   UNL     1      34.724  -8.849 -24.014  0.00  0.00    +0.019 C 
ATOM     10  C   UNL     1      33.146  -7.496 -22.745  0.00  0.00    +0.140 C 
ATOM     11  C   UNL     1      34.311  -7.610 -23.508  0.00  0.00    +0.038 C 
ATOM     12  H   UNL     1      31.444 -11.367 -22.425  0.00  0.00    +0.149 HD
ATOM     13  H   UNL     1      34.853 -11.668 -24.651  0.00  0.00    +0.149 HD
BRANCH  10  14
ATOM     14  O   UNL     1      32.775  -6.275 -22.267  0.00  0.00    -0.471 OA
ATOM     15  C   UNL     1      31.967  -6.259 -21.092  0.00  0.00    +0.252 C 
ENDBRANCH  10  14
ENDBRANCH   1   5
BRANCH   1  16
ATOM     16  C   UNL     1      34.443 -14.328 -23.220  0.00  0.00    +0.140 C 
BRANCH  16  18
ATOM     17  N   UNL     1      34.567 -16.147 -24.796  0.00  0.00    -0.248 NA
ATOM     18  C   UNL     1      34.587 -15.797 -23.494  0.00  0.00    +0.072 C 
ATOM     19  C   UNL     1      34.728 -16.685 -22.445  0.00  0.00    +0.026 C 
ATOM     20  C   UNL     1      34.859 -18.035 -22.755  0.00  0.00    +0.133 C 
ATOM     21  C   UNL     1      34.844 -18.441 -24.084  0.00  0.00    +0.031 C 
ATOM     22  C   UNL     1      34.742 -16.224 -21.026  0.00  0.00    +0.035 C 
ATOM     23  C   UNL     1      34.697 -17.467 -25.059  0.00  0.00    +0.097 C 
ATOM     24  C   UNL     1      34.980 -19.873 -24.468  0.00  0.00    +0.036 C 
BRANCH  20  25
ATOM     25  O   UNL     1      35.003 -18.956 -21.761  0.00  0.00    -0.472 OA
ATOM     26  C   UNL     1      33.809 -19.522 -21.224  0.00  0.00    +0.252 C 
ENDBRANCH  20  25
ENDBRANCH  16  18
ENDBRANCH   1  16
TORSDOF 5
ENDMDL
MODEL 3
REMARK VINA RESULT:      -9.4     10.292     13.196
REMARK  Name = 4594
REMARK  5 active torsions:
REMARK  status: ('A' for Active; 'I' for Inactive)
REMARK    1  A    between atoms: S_1  and  C_5
REMARK    2  A    between atoms: S_1  and  C_16
REMARK    3  A    between atoms: C_10  and  O_14
REMARK    4  A    between atoms: C_16  and  C_18
REMARK    5  A    between atoms: C_20  and  O_25
REMARK                            x       y       z     vdW  Elec       q    Type
REMARK                         _______ _______ _______ _____ _____    ______ ____
ROOT
ATOM      1  S   UNL     1      34.935 -23.664 -13.448  0.00  0.00    +0.085 S 
ATOM      2  O   UNL     1      35.234 -24.659 -12.344  0.00  0.00    -0.252 OA
ENDROOT
BRANCH   1   5
ATOM      3  N   UNL     1      32.406 -22.787 -14.251  0.00  0.00    -0.307 N 
ATOM      4  N   UNL     1      32.593 -24.988 -14.004  0.00  0.00    -0.307 N 
ATOM      5  C   UNL     1      33.220 -23.836 -13.926  0.00  0.00    +0.226 C 
ATOM      6  C   UNL     1      31.170 -23.296 -14.558  0.00  0.00    +0.063 C 
ATOM      7  C   UNL     1      31.313 -24.672 -14.397  0.00  0.00    +0.060 C 
ATOM      8  C   UNL     1      29.976 -22.690 -14.952  0.00  0.00    +0.052 C 
ATOM      9  C   UNL     1      30.209 -25.507 -14.638  0.00  0.00    +0.019 C 
ATOM     10  C   UNL     1      28.888 -23.537 -15.188  0.00  0.00    +0.140 C 
ATOM     11  C   UNL     1      29.000 -24.921 -15.035  0.00  0.00    +0.038 C 
ATOM     12  H   UNL     1      32.660 -21.836 -14.261  0.00  0.00    +0.149 HD
ATOM     13  H   UNL     1      32.959 -25.884 -13.822  0.00  0.00    +0.149 HD
BRANCH  10  14
ATOM     14  O   UNL     1      27.696 -23.001 -15.576  0.00  0.00    -0.471 OA
ATOM     15  C   UNL     1      27.631 -22.455 -16.891  0.00  0.00    +0.252 C 
ENDBRANCH  10  14
ENDBRANCH   1   5
BRANCH   1  16
ATOM     16  C   UNL     1      35.752 -24.272 -14.950  0.00  0.00    +0.140 C 
BRANCH  16  18
ATOM     17  N   UNL     1      34.053 -23.893 -16.618  0.00  0.00    -0.248 NA
ATOM     18  C   UNL     1      35.278 -23.543 -16.175  0.00  0.00    +0.072 C 
ATOM     19  C   UNL     1      36.082 -22.587 -16.765  0.00  0.00    +0.026 C 
ATOM     20  C   UNL     1      35.593 -21.942 -17.896  0.00  0.00    +0.133 C 
ATOM     21  C   UNL     1      34.335 -22.271 -18.388  0.00  0.00    +0.031 C 
ATOM     22  C   UNL     1      37.428 -22.251 -16.217  0.00  0.00    +0.035 C 
ATOM     23  C   UNL     1      33.611 -23.245 -17.718  0.00  0.00    +0.097 C 
ATOM     24  C   UNL     1      33.767 -21.609 -19.594  0.00  0.00    +0.036 C 
BRANCH  20  25
ATOM     25  O   UNL     1      36.342 -20.989 -18.520  0.00  0.00    -0.472 OA
ATOM     26  C   UNL     1      36.829 -21.298 -19.824  0.00  0.00    +0.252 C 
ENDBRANCH  20  25
ENDBRANCH  16  18
ENDBRANCH   1  16
TORSDOF 5
ENDMDL
MODEL 4
REMARK VINA RESULT:      -9.4      2.022      9.076
REMARK  Name = 4594
REMARK  5 active torsions:
REMARK  status: ('A' for Active; 'I' for Inactive)
REMARK    1  A    between atoms: S_1  and  C_5
REMARK    2  A    between atoms: S_1  and  C_16
REMARK    3  A    between atoms: C_10  and  O_14
REMARK    4  A    between atoms: C_16  and  C_18
REMARK    5  A    between atoms: C_20  and  O_25
REMARK                            x       y       z     vdW  Elec       q    Type
REMARK                         _______ _______ _______ _____ _____    ______ ____
ROOT
ATOM      1  S   UNL     1      34.278 -16.957 -23.503  0.00  0.00    +0.085 S 
ATOM      2  O   UNL     1      35.279 -16.951 -24.642  0.00  0.00    -0.252 OA
ENDROOT
BRANCH   1   5
ATOM      3  N   UNL     1      34.105 -14.208 -23.973  0.00  0.00    -0.307 N 
ATOM      4  N   UNL     1      32.849 -14.946 -22.294  0.00  0.00    -0.307 N 
ATOM      5  C   UNL     1      33.705 -15.285 -23.233  0.00  0.00    +0.226 C 
ATOM      6  C   UNL     1      33.466 -13.100 -23.480  0.00  0.00    +0.063 C 
ATOM      7  C   UNL     1      32.688 -13.586 -22.432  0.00  0.00    +0.060 C 
ATOM      8  C   UNL     1      33.500 -11.754 -23.848  0.00  0.00    +0.052 C 
ATOM      9  C   UNL     1      31.891 -12.692 -21.698  0.00  0.00    +0.019 C 
ATOM     10  C   UNL     1      32.700 -10.878 -23.107  0.00  0.00    +0.140 C 
ATOM     11  C   UNL     1      31.909 -11.336 -22.050  0.00  0.00    +0.038 C 
ATOM     12  H   UNL     1      34.739 -14.225 -24.726  0.00  0.00    +0.149 HD
ATOM     13  H   UNL     1      32.417 -15.536 -21.635  0.00  0.00    +0.149 HD
BRANCH  10  14
ATOM     14  O   UNL     1      32.693  -9.552 -23.422  0.00  0.00    -0.471 OA
ATOM     15  C   UNL     1      31.627  -8.767 -22.892  0.00  0.00    +0.252 C 
ENDBRANCH  10  14
ENDBRANCH   1   5
BRANCH   1  16
ATOM     16  C   UNL     1      35.214 -17.230 -21.971  0.00  0.00    +0.140 C 
BRANCH  16  18
ATOM     17  N   UNL     1      33.479 -18.674 -21.125  0.00  0.00    -0.248 NA
ATOM     18  C   UNL     1      34.807 -18.507 -21.292  0.00  0.00    +0.072 C 
ATOM     19  C   UNL     1      35.769 -19.412 -20.889  0.00  0.00    +0.026 C 
ATOM     20  C   UNL     1      35.337 -20.577 -20.266  0.00  0.00    +0.133 C 
ATOM     21  C   UNL     1      33.977 -20.793 -20.072  0.00  0.00    +0.031 C 
ATOM     22  C   UNL     1      37.223 -19.158 -21.109  0.00  0.00    +0.035 C 
ATOM     23  C   UNL     1      33.097 -19.819 -20.516  0.00  0.00    +0.097 C 
ATOM     24  C   UNL     1      33.464 -22.024 -19.411  0.00  0.00    +0.036 C 
BRANCH  20  25
ATOM     25  O   UNL     1      36.242 -21.508 -19.847  0.00  0.00    -0.472 OA
ATOM     26  C   UNL     1      36.600 -21.489 -18.467  0.00  0.00    +0.252 C 
ENDBRANCH  20  25
ENDBRANCH  16  18
ENDBRANCH   1  16
TORSDOF 5
ENDMDL
MODEL 5
REMARK VINA RESULT:      -9.4      4.236      7.379
REMARK  Name = 4594
REMARK  5 active torsions:
REMARK  status: ('A' for Active; 'I' for Inactive)
REMARK    1  A    between atoms: S_1  and  C_5
REMARK    2  A    between atoms: S_1  and  C_16
REMARK    3  A    between atoms: C_10  and  O_14
REMARK    4  A    between atoms: C_16  and  C_18
REMARK    5  A    between atoms: C_20  and  O_25
REMARK                            x       y       z     vdW  Elec       q    Type
REMARK                         _______ _______ _______ _____ _____    ______ ____
ROOT
ATOM      1  S   UNL     1      34.116 -20.423 -20.990  0.00  0.00    +0.085 S 
ATOM      2  O   UNL     1      32.797 -19.750 -20.665  0.00  0.00    -0.252 OA
ENDROOT
BRANCH   1   5
ATOM      3  N   UNL     1      36.018 -21.083 -19.053  0.00  0.00    -0.307 N 
ATOM      4  N   UNL     1      34.014 -21.991 -18.737  0.00  0.00    -0.307 N 
ATOM      5  C   UNL     1      34.738 -21.213 -19.511  0.00  0.00    +0.226 C 
ATOM      6  C   UNL     1      36.130 -21.827 -17.906  0.00  0.00    +0.063 C 
ATOM      7  C   UNL     1      34.867 -22.384 -17.731  0.00  0.00    +0.060 C 
ATOM      8  C   UNL     1      37.196 -22.054 -17.035  0.00  0.00    +0.052 C 
ATOM      9  C   UNL     1      34.635 -23.220 -16.625  0.00  0.00    +0.019 C 
ATOM     10  C   UNL     1      36.948 -22.888 -15.939  0.00  0.00    +0.140 C 
ATOM     11  C   UNL     1      35.690 -23.462 -15.736  0.00  0.00    +0.038 C 
ATOM     12  H   UNL     1      36.733 -20.551 -19.471  0.00  0.00    +0.149 HD
ATOM     13  H   UNL     1      33.069 -22.240 -18.852  0.00  0.00    +0.149 HD
BRANCH  10  14
ATOM     14  O   UNL     1      37.952 -23.145 -15.054  0.00  0.00    -0.471 OA
ATOM     15  C   UNL     1      38.052 -24.479 -14.560  0.00  0.00    +0.252 C 
ENDBRANCH  10  14
ENDBRANCH   1   5
BRANCH   1  16
ATOM     16  C   UNL     1      35.349 -19.106 -21.196  0.00  0.00    +0.140 C 
BRANCH  16  18
ATOM     17  N   UNL     1      34.939 -18.761 -23.546  0.00  0.00    -0.248 NA
ATOM     18  C   UNL     1      34.994 -18.185 -22.328  0.00  0.00    +0.072 C 
ATOM     19  C   UNL     1      34.750 -16.848 -22.080  0.00  0.00    +0.026 C 
ATOM     20  C   UNL     1      34.424 -16.040 -23.164  0.00  0.00    +0.133 C 
ATOM     21  C   UNL     1      34.355 -16.591 -24.439  0.00  0.00    +0.031 C 
ATOM     22  C   UNL     1      34.829 -16.281 -20.702  0.00  0.00    +0.035 C 
ATOM     23  C   UNL     1      34.619 -17.945 -24.575  0.00  0.00    +0.097 C 
ATOM     24  C   UNL     1      34.010 -15.769 -25.631  0.00  0.00    +0.036 C 
BRANCH  20  25
ATOM     25  O   UNL     1      34.171 -14.713 -22.979  0.00  0.00    -0.472 OA
ATOM     26  C   UNL     1      32.836 -14.349 -22.637  0.00  0.00    +0.252 C 
ENDBRANCH  20  25
ENDBRANCH  16  18
ENDBRANCH   1  16
TORSDOF 5
ENDMDL
MODEL 6
REMARK VINA RESULT:      -9.2      2.524      3.714
REMARK  Name = 4594
REMARK  5 active torsions:
REMARK  status: ('A' for Active; 'I' for Inactive)
REMARK    1  A    between atoms: S_1  and  C_5
REMARK    2  A    between atoms: S_1  and  C_16
REMARK    3  A    between atoms: C_10  and  O_14
REMARK    4  A    between atoms: C_16  and  C_18
REMARK    5  A    between atoms: C_20  and  O_25
REMARK                            x       y       z     vdW  Elec       q    Type
REMARK                         _______ _______ _______ _____ _____    ______ ____
ROOT
ATOM      1  S   UNL     1      35.092 -16.650 -22.731  0.00  0.00    +0.085 S 
ATOM      2  O   UNL     1      35.209 -17.019 -24.198  0.00  0.00    -0.252 OA
ENDROOT
BRANCH   1   5
ATOM      3  N   UNL     1      33.806 -18.728 -21.375  0.00  0.00    -0.307 N 
ATOM      4  N   UNL     1      36.026 -18.834 -21.352  0.00  0.00    -0.307 N 
ATOM      5  C   UNL     1      34.982 -18.153 -21.768  0.00  0.00    +0.226 C 
ATOM      6  C   UNL     1      34.110 -19.855 -20.656  0.00  0.00    +0.063 C 
ATOM      7  C   UNL     1      35.502 -19.900 -20.656  0.00  0.00    +0.060 C 
ATOM      8  C   UNL     1      33.312 -20.810 -20.026  0.00  0.00    +0.052 C 
ATOM      9  C   UNL     1      36.152 -20.953 -19.991  0.00  0.00    +0.019 C 
ATOM     10  C   UNL     1      33.976 -21.852 -19.369  0.00  0.00    +0.140 C 
ATOM     11  C   UNL     1      35.371 -21.924 -19.351  0.00  0.00    +0.038 C 
ATOM     12  H   UNL     1      32.901 -18.392 -21.572  0.00  0.00    +0.149 HD
ATOM     13  H   UNL     1      36.976 -18.629 -21.504  0.00  0.00    +0.149 HD
BRANCH  10  14
ATOM     14  O   UNL     1      33.248 -22.815 -18.736  0.00  0.00    -0.471 OA
ATOM     15  C   UNL     1      33.621 -23.131 -17.397  0.00  0.00    +0.252 C 
ENDBRANCH  10  14
ENDBRANCH   1   5
BRANCH   1  16
ATOM     16  C   UNL     1      33.422 -15.983 -22.482  0.00  0.00    +0.140 C 
BRANCH  16  18
ATOM     17  N   UNL     1      33.856 -14.213 -24.060  0.00  0.00    -0.248 NA
ATOM     18  C   UNL     1      33.344 -14.530 -22.853  0.00  0.00    +0.072 C 
ATOM     19  C   UNL     1      32.775 -13.624 -21.981  0.00  0.00    +0.026 C 
ATOM     20  C   UNL     1      32.728 -12.290 -22.374  0.00  0.00    +0.133 C 
ATOM     21  C   UNL     1      33.244 -11.918 -23.610  0.00  0.00    +0.031 C 
ATOM     22  C   UNL     1      32.226 -14.048 -20.659  0.00  0.00    +0.035 C 
ATOM     23  C   UNL     1      33.792 -12.909 -24.409  0.00  0.00    +0.097 C 
ATOM     24  C   UNL     1      33.217 -10.505 -24.078  0.00  0.00    +0.036 C 
BRANCH  20  25
ATOM     25  O   UNL     1      32.176 -11.351 -21.554  0.00  0.00    -0.472 OA
ATOM     26  C   UNL     1      30.776 -11.115 -21.689  0.00  0.00    +0.252 C 
ENDBRANCH  20  25
ENDBRANCH  16  18
ENDBRANCH   1  16
TORSDOF 5
ENDMDL
MODEL 7
REMARK VINA RESULT:      -9.2      2.990      4.732
REMARK  Name = 4594
REMARK  5 active torsions:
REMARK  status: ('A' for Active; 'I' for Inactive)
REMARK    1  A    between atoms: S_1  and  C_5
REMARK    2  A    between atoms: S_1  and  C_16
REMARK    3  A    between atoms: C_10  and  O_14
REMARK    4  A    between atoms: C_16  and  C_18
REMARK    5  A    between atoms: C_20  and  O_25
REMARK                            x       y       z     vdW  Elec       q    Type
REMARK                         _______ _______ _______ _____ _____    ______ ____
ROOT
ATOM      1  S   UNL     1      35.455 -17.324 -22.963  0.00  0.00    +0.085 S 
ATOM      2  O   UNL     1      35.386 -17.863 -24.378  0.00  0.00    -0.252 OA
ENDROOT
BRANCH   1   5
ATOM      3  N   UNL     1      33.857 -19.040 -21.443  0.00  0.00    -0.307 N 
ATOM      4  N   UNL     1      36.043 -19.389 -21.248  0.00  0.00    -0.307 N 
ATOM      5  C   UNL     1      35.113 -18.659 -21.823  0.00  0.00    +0.226 C 
ATOM      6  C   UNL     1      33.984 -20.085 -20.564  0.00  0.00    +0.063 C 
ATOM      7  C   UNL     1      35.358 -20.284 -20.459  0.00  0.00    +0.060 C 
ATOM      8  C   UNL     1      33.043 -20.850 -19.873  0.00  0.00    +0.052 C 
ATOM      9  C   UNL     1      35.840 -21.301 -19.619  0.00  0.00    +0.019 C 
ATOM     10  C   UNL     1      33.541 -21.859 -19.041  0.00  0.00    +0.140 C 
ATOM     11  C   UNL     1      34.914 -22.083 -18.915  0.00  0.00    +0.038 C 
ATOM     12  H   UNL     1      33.012 -18.636 -21.745  0.00  0.00    +0.149 HD
ATOM     13  H   UNL     1      37.019 -19.313 -21.358  0.00  0.00    +0.149 HD
BRANCH  10  14
ATOM     14  O   UNL     1      32.668 -22.638 -18.342  0.00  0.00    -0.471 OA
ATOM     15  C   UNL     1      33.171 -23.281 -17.172  0.00  0.00    +0.252 C 
ENDBRANCH  10  14
ENDBRANCH   1   5
BRANCH   1  16
ATOM     16  C   UNL     1      33.980 -16.297 -22.711  0.00  0.00    +0.140 C 
BRANCH  16  18
ATOM     17  N   UNL     1      33.598 -16.011 -25.073  0.00  0.00    -0.248 NA
ATOM     18  C   UNL     1      33.727 -15.392 -23.882  0.00  0.00    +0.072 C 
ATOM     19  C   UNL     1      33.641 -14.027 -23.695  0.00  0.00    +0.026 C 
ATOM     20  C   UNL     1      33.405 -13.235 -24.814  0.00  0.00    +0.133 C 
ATOM     21  C   UNL     1      33.265 -13.831 -26.062  0.00  0.00    +0.031 C 
ATOM     22  C   UNL     1      33.794 -13.411 -22.344  0.00  0.00    +0.035 C 
ATOM     23  C   UNL     1      33.369 -15.211 -26.138  0.00  0.00    +0.097 C 
ATOM     24  C   UNL     1      33.011 -13.028 -27.290  0.00  0.00    +0.036 C 
BRANCH  20  25
ATOM     25  O   UNL     1      33.309 -11.881 -24.689  0.00  0.00    -0.472 OA
ATOM     26  C   UNL     1      34.477 -11.118 -24.988  0.00  0.00    +0.252 C 
ENDBRANCH  20  25
ENDBRANCH  16  18
ENDBRANCH   1  16
TORSDOF 5
ENDMDL
MODEL 8
REMARK VINA RESULT:      -9.2      1.604      8.551
REMARK  Name = 4594
REMARK  5 active torsions:
REMARK  status: ('A' for Active; 'I' for Inactive)
REMARK    1  A    between atoms: S_1  and  C_5
REMARK    2  A    between atoms: S_1  and  C_16
REMARK    3  A    between atoms: C_10  and  O_14
REMARK    4  A    between atoms: C_16  and  C_18
REMARK    5  A    between atoms: C_20  and  O_25
REMARK                            x       y       z     vdW  Elec       q    Type
REMARK                         _______ _______ _______ _____ _____    ______ ____
ROOT
ATOM      1  S   UNL     1      32.746 -13.797 -23.826  0.00  0.00    +0.085 S 
ATOM      2  O   UNL     1      33.131 -13.226 -25.177  0.00  0.00    -0.252 OA
ENDROOT
BRANCH   1   5
ATOM      3  N   UNL     1      32.688 -11.131 -22.988  0.00  0.00    -0.307 N 
ATOM      4  N   UNL     1      31.948 -12.595 -21.488  0.00  0.00    -0.307 N 
ATOM      5  C   UNL     1      32.439 -12.444 -22.698  0.00  0.00    +0.226 C 
ATOM      6  C   UNL     1      32.335 -10.386 -21.893  0.00  0.00    +0.063 C 
ATOM      7  C   UNL     1      31.876 -11.322 -20.970  0.00  0.00    +0.060 C 
ATOM      8  C   UNL     1      32.377  -9.015 -21.638  0.00  0.00    +0.052 C 
ATOM      9  C   UNL     1      31.428 -10.882 -19.713  0.00  0.00    +0.019 C 
ATOM     10  C   UNL     1      31.927  -8.594 -20.381  0.00  0.00    +0.140 C 
ATOM     11  C   UNL     1      31.461  -9.509 -19.434  0.00  0.00    +0.038 C 
ATOM     12  H   UNL     1      33.056 -10.784 -23.833  0.00  0.00    +0.149 HD
ATOM     13  H   UNL     1      31.687 -13.436 -21.047  0.00  0.00    +0.149 HD
BRANCH  10  14
ATOM     14  O   UNL     1      31.944  -7.265 -20.077  0.00  0.00    -0.471 OA
ATOM     15  C   UNL     1      31.895  -6.351 -21.170  0.00  0.00    +0.252 C 
ENDBRANCH  10  14
ENDBRANCH   1   5
BRANCH   1  16
ATOM     16  C   UNL     1      34.254 -14.493 -23.092  0.00  0.00    +0.140 C 
BRANCH  16  18
ATOM     17  N   UNL     1      34.331 -16.210 -24.782  0.00  0.00    -0.248 NA
ATOM     18  C   UNL     1      34.438 -15.936 -23.466  0.00  0.00    +0.072 C 
ATOM     19  C   UNL     1      34.697 -16.876 -22.488  0.00  0.00    +0.026 C 
ATOM     20  C   UNL     1      34.859 -18.197 -22.889  0.00  0.00    +0.133 C 
ATOM     21  C   UNL     1      34.758 -18.526 -24.236  0.00  0.00    +0.031 C 
ATOM     22  C   UNL     1      34.801 -16.497 -21.048  0.00  0.00    +0.035 C 
ATOM     23  C   UNL     1      34.495 -17.505 -25.135  0.00  0.00    +0.097 C 
ATOM     24  C   UNL     1      34.923 -19.926 -24.716  0.00  0.00    +0.036 C 
BRANCH  20  25
ATOM     25  O   UNL     1      35.118 -19.168 -21.967  0.00  0.00    -0.472 OA
ATOM     26  C   UNL     1      33.994 -19.776 -21.333  0.00  0.00    +0.252 C 
ENDBRANCH  20  25
ENDBRANCH  16  18
ENDBRANCH   1  16
TORSDOF 5
ENDMDL
MODEL 9
REMARK VINA RESULT:      -9.0      3.935      6.866
REMARK  Name = 4594
REMARK  5 active torsions:
REMARK  status: ('A' for Active; 'I' for Inactive)
REMARK    1  A    between atoms: S_1  and  C_5
REMARK    2  A    between atoms: S_1  and  C_16
REMARK    3  A    between atoms: C_10  and  O_14
REMARK    4  A    between atoms: C_16  and  C_18
REMARK    5  A    between atoms: C_20  and  O_25
REMARK                            x       y       z     vdW  Elec       q    Type
REMARK                         _______ _______ _______ _____ _____    ______ ____
ROOT
ATOM      1  S   UNL     1      34.950 -19.969 -21.604  0.00  0.00    +0.085 S 
ATOM      2  O   UNL     1      33.500 -19.526 -21.613  0.00  0.00    -0.252 OA
ENDROOT
BRANCH   1   5
ATOM      3  N   UNL     1      36.473 -20.684 -19.373  0.00  0.00    -0.307 N 
ATOM      4  N   UNL     1      34.434 -21.566 -19.429  0.00  0.00    -0.307 N 
ATOM      5  C   UNL     1      35.291 -20.788 -20.052  0.00  0.00    +0.226 C 
ATOM      6  C   UNL     1      36.372 -21.445 -18.237  0.00  0.00    +0.063 C 
ATOM      7  C   UNL     1      35.090 -21.985 -18.295  0.00  0.00    +0.060 C 
ATOM      8  C   UNL     1      37.265 -21.700 -17.195  0.00  0.00    +0.052 C 
ATOM      9  C   UNL     1      34.657 -22.832 -17.261  0.00  0.00    +0.019 C 
ATOM     10  C   UNL     1      36.817 -22.545 -16.174  0.00  0.00    +0.140 C 
ATOM     11  C   UNL     1      35.536 -23.102 -16.205  0.00  0.00    +0.038 C 
ATOM     12  H   UNL     1      37.257 -20.157 -19.651  0.00  0.00    +0.149 HD
ATOM     13  H   UNL     1      33.520 -21.798 -19.712  0.00  0.00    +0.149 HD
BRANCH  10  14
ATOM     14  O   UNL     1      37.646 -22.829 -15.130  0.00  0.00    -0.471 OA
ATOM     15  C   UNL     1      37.945 -24.204 -14.898  0.00  0.00    +0.252 C 
ENDBRANCH  10  14
ENDBRANCH   1   5
BRANCH   1  16
ATOM     16  C   UNL     1      35.963 -18.475 -21.411  0.00  0.00    +0.140 C 
BRANCH  16  18
ATOM     17  N   UNL     1      34.921 -16.601 -20.309  0.00  0.00    -0.248 NA
ATOM     18  C   UNL     1      35.131 -17.227 -21.485  0.00  0.00    +0.072 C 
ATOM     19  C   UNL     1      34.640 -16.795 -22.702  0.00  0.00    +0.026 C 
ATOM     20  C   UNL     1      33.875 -15.633 -22.714  0.00  0.00    +0.133 C 
ATOM     21  C   UNL     1      33.633 -14.955 -21.525  0.00  0.00    +0.031 C 
ATOM     22  C   UNL     1      34.914 -17.541 -23.965  0.00  0.00    +0.035 C 
ATOM     23  C   UNL     1      34.174 -15.476 -20.360  0.00  0.00    +0.097 C 
ATOM     24  C   UNL     1      32.822 -13.707 -21.485  0.00  0.00    +0.036 C 
BRANCH  20  25
ATOM     25  O   UNL     1      33.366 -15.159 -23.886  0.00  0.00    -0.472 OA
ATOM     26  C   UNL     1      34.008 -14.022 -24.458  0.00  0.00    +0.252 C 
ENDBRANCH  20  25
ENDBRANCH  16  18
ENDBRANCH   1  16
TORSDOF 5
ENDMDL
