MODEL 1
REMARK VINA RESULT:      -9.8      0.000      0.000
REMARK  Name = 16758228
REMARK  5 active torsions:
REMARK  status: ('A' for Active; 'I' for Inactive)
REMARK    1  A    between atoms: C_1  and  C_15
REMARK    2  A    between atoms: C_6  and  N_7
REMARK    3  A    between atoms: N_7  and  C_10
REMARK    4  A    between atoms: C_15  and  C_17
REMARK    5  A    between atoms: C_17  and  C_18
REMARK                            x       y       z     vdW  Elec       q    Type
REMARK                         _______ _______ _______ _____ _____    ______ ____
ROOT
ATOM      1  C   UNL     1      35.477 -19.857 -20.632  0.00  0.00    -0.014 C 
ATOM      2  C   UNL     1      36.170 -20.902 -20.021  0.00  0.00    -0.002 C 
ATOM      3  C   UNL     1      34.083 -19.869 -20.664  0.00  0.00    -0.002 C 
ATOM      4  C   UNL     1      35.469 -21.959 -19.441  0.00  0.00    +0.019 C 
ATOM      5  C   UNL     1      33.381 -20.927 -20.083  0.00  0.00    +0.019 C 
ATOM      6  C   UNL     1      34.074 -21.971 -19.472  0.00  0.00    +0.084 C 
ENDROOT
BRANCH   6   7
ATOM      7  N   UNL     1      33.371 -23.031 -18.891  0.00  0.00    -0.214 NA
BRANCH   7  10
ATOM      8  N   UNL     1      31.773 -22.633 -17.234  0.00  0.00    -0.370 N 
ATOM      9  N   UNL     1      33.877 -23.178 -16.539  0.00  0.00    -0.370 N 
ATOM     10  C   UNL     1      33.052 -22.958 -17.620  0.00  0.00    +0.193 C 
ATOM     11  H   UNL     1      31.085 -22.451 -17.915  0.00  0.00    +0.159 HD
ATOM     12  H   UNL     1      31.546 -22.581 -16.278  0.00  0.00    +0.159 HD
ATOM     13  H   UNL     1      34.821 -23.418 -16.680  0.00  0.00    +0.159 HD
ATOM     14  H   UNL     1      33.523 -23.092 -15.624  0.00  0.00    +0.159 HD
ENDBRANCH   7  10
ENDBRANCH   6   7
BRANCH   1  15
ATOM     15  C   UNL     1      36.236 -18.714 -21.260  0.00  0.00    +0.095 C 
BRANCH  15  17
ATOM     16  O   UNL     1      35.156 -16.722 -20.432  0.00  0.00    -0.291 OA
ATOM     17  C   UNL     1      35.411 -17.425 -21.432  0.00  0.00    +0.177 C 
BRANCH  17  18
ATOM     18  C   UNL     1      34.937 -17.039 -22.750  0.00  0.00    +0.035 C 
ATOM     19  C   UNL     1      35.045 -17.929 -23.819  0.00  0.00    +0.003 C 
ATOM     20  C   UNL     1      34.372 -15.778 -22.947  0.00  0.00    +0.003 C 
ATOM     21  C   UNL     1      34.590 -17.557 -25.085  0.00  0.00    +0.000 C 
ATOM     22  C   UNL     1      33.916 -15.408 -24.212  0.00  0.00    +0.000 C 
ATOM     23  C   UNL     1      34.025 -16.298 -25.281  0.00  0.00    +0.000 C 
ENDBRANCH  17  18
ENDBRANCH  15  17
ENDBRANCH   1  15
TORSDOF 5
ENDMDL
MODEL 2
REMARK VINA RESULT:      -9.5      1.234      2.180
REMARK  Name = 16758228
REMARK  5 active torsions:
REMARK  status: ('A' for Active; 'I' for Inactive)
REMARK    1  A    between atoms: C_1  and  C_15
REMARK    2  A    between atoms: C_6  and  N_7
REMARK    3  A    between atoms: N_7  and  C_10
REMARK    4  A    between atoms: C_15  and  C_17
REMARK    5  A    between atoms: C_17  and  C_18
REMARK                            x       y       z     vdW  Elec       q    Type
REMARK                         _______ _______ _______ _____ _____    ______ ____
ROOT
ATOM      1  C   UNL     1      35.522 -19.892 -20.600  0.00  0.00    -0.014 C 
ATOM      2  C   UNL     1      34.127 -19.871 -20.618  0.00  0.00    -0.002 C 
ATOM      3  C   UNL     1      36.196 -20.963 -20.013  0.00  0.00    -0.002 C 
ATOM      4  C   UNL     1      33.407 -20.921 -20.048  0.00  0.00    +0.019 C 
ATOM      5  C   UNL     1      35.476 -22.013 -19.444  0.00  0.00    +0.019 C 
ATOM      6  C   UNL     1      34.081 -21.992 -19.462  0.00  0.00    +0.084 C 
ENDROOT
BRANCH   6   7
ATOM      7  N   UNL     1      33.359 -23.044 -18.890  0.00  0.00    -0.214 NA
BRANCH   7  10
ATOM      8  N   UNL     1      31.765 -22.619 -17.236  0.00  0.00    -0.370 N 
ATOM      9  N   UNL     1      33.851 -23.225 -16.537  0.00  0.00    -0.370 N 
ATOM     10  C   UNL     1      33.037 -22.975 -17.620  0.00  0.00    +0.193 C 
ATOM     11  H   UNL     1      31.085 -22.414 -17.917  0.00  0.00    +0.159 HD
ATOM     12  H   UNL     1      31.536 -22.570 -16.280  0.00  0.00    +0.159 HD
ATOM     13  H   UNL     1      34.789 -23.488 -16.677  0.00  0.00    +0.159 HD
ATOM     14  H   UNL     1      33.496 -23.138 -15.623  0.00  0.00    +0.159 HD
ENDBRANCH   7  10
ENDBRANCH   6   7
BRANCH   1  15
ATOM     15  C   UNL     1      36.301 -18.756 -21.216  0.00  0.00    +0.095 C 
BRANCH  15  17
ATOM     16  O   UNL     1      35.529 -18.723 -23.501  0.00  0.00    -0.291 OA
ATOM     17  C   UNL     1      35.611 -18.096 -22.424  0.00  0.00    +0.177 C 
BRANCH  17  18
ATOM     18  C   UNL     1      35.065 -16.755 -22.303  0.00  0.00    +0.035 C 
ATOM     19  C   UNL     1      34.743 -16.243 -21.046  0.00  0.00    +0.003 C 
ATOM     20  C   UNL     1      34.863 -15.978 -23.445  0.00  0.00    +0.003 C 
ATOM     21  C   UNL     1      34.219 -14.955 -20.930  0.00  0.00    +0.000 C 
ATOM     22  C   UNL     1      34.339 -14.691 -23.328  0.00  0.00    +0.000 C 
ATOM     23  C   UNL     1      34.017 -14.179 -22.071  0.00  0.00    +0.000 C 
ENDBRANCH  17  18
ENDBRANCH  15  17
ENDBRANCH   1  15
TORSDOF 5
ENDMDL
MODEL 3
REMARK VINA RESULT:      -9.5      3.990      6.195
REMARK  Name = 16758228
REMARK  5 active torsions:
REMARK  status: ('A' for Active; 'I' for Inactive)
REMARK    1  A    between atoms: C_1  and  C_15
REMARK    2  A    between atoms: C_6  and  N_7
REMARK    3  A    between atoms: N_7  and  C_10
REMARK    4  A    between atoms: C_15  and  C_17
REMARK    5  A    between atoms: C_17  and  C_18
REMARK                            x       y       z     vdW  Elec       q    Type
REMARK                         _______ _______ _______ _____ _____    ______ ____
ROOT
ATOM      1  C   UNL     1      34.902 -23.133 -16.429  0.00  0.00    -0.014 C 
ATOM      2  C   UNL     1      34.870 -24.153 -15.478  0.00  0.00    -0.002 C 
ATOM      3  C   UNL     1      36.069 -22.395 -16.621  0.00  0.00    -0.002 C 
ATOM      4  C   UNL     1      36.006 -24.435 -14.719  0.00  0.00    +0.019 C 
ATOM      5  C   UNL     1      37.206 -22.677 -15.863  0.00  0.00    +0.019 C 
ATOM      6  C   UNL     1      37.174 -23.698 -14.913  0.00  0.00    +0.084 C 
ENDROOT
BRANCH   6   7
ATOM      7  N   UNL     1      38.313 -23.980 -14.152  0.00  0.00    -0.214 NA
BRANCH   7  10
ATOM      8  N   UNL     1      39.058 -26.096 -13.500  0.00  0.00    -0.370 N 
ATOM      9  N   UNL     1      39.710 -25.354 -15.558  0.00  0.00    -0.370 N 
ATOM     10  C   UNL     1      38.995 -25.070 -14.414  0.00  0.00    +0.193 C 
ATOM     11  H   UNL     1      38.588 -26.018 -12.639  0.00  0.00    +0.159 HD
ATOM     12  H   UNL     1      39.573 -26.909 -13.708  0.00  0.00    +0.159 HD
ATOM     13  H   UNL     1      39.745 -24.699 -16.291  0.00  0.00    +0.159 HD
ATOM     14  H   UNL     1      40.186 -26.212 -15.640  0.00  0.00    +0.159 HD
ENDBRANCH   7  10
ENDBRANCH   6   7
BRANCH   1  15
ATOM     15  C   UNL     1      33.672 -22.827 -17.248  0.00  0.00    +0.095 C 
BRANCH  15  17
ATOM     16  O   UNL     1      33.954 -24.000 -19.337  0.00  0.00    -0.291 OA
ATOM     17  C   UNL     1      33.894 -22.889 -18.770  0.00  0.00    +0.177 C 
BRANCH  17  18
ATOM     18  C   UNL     1      34.034 -21.660 -19.533  0.00  0.00    +0.035 C 
ATOM     19  C   UNL     1      32.903 -20.915 -19.868  0.00  0.00    +0.003 C 
ATOM     20  C   UNL     1      35.299 -21.225 -19.930  0.00  0.00    +0.003 C 
ATOM     21  C   UNL     1      33.037 -19.735 -20.601  0.00  0.00    +0.000 C 
ATOM     22  C   UNL     1      35.432 -20.044 -20.662  0.00  0.00    +0.000 C 
ATOM     23  C   UNL     1      34.301 -19.299 -20.997  0.00  0.00    +0.000 C 
ENDBRANCH  17  18
ENDBRANCH  15  17
ENDBRANCH   1  15
TORSDOF 5
ENDMDL
MODEL 4
REMARK VINA RESULT:      -9.3      4.968      7.728
REMARK  Name = 16758228
REMARK  5 active torsions:
REMARK  status: ('A' for Active; 'I' for Inactive)
REMARK    1  A    between atoms: C_1  and  C_15
REMARK    2  A    between atoms: C_6  and  N_7
REMARK    3  A    between atoms: N_7  and  C_10
REMARK    4  A    between atoms: C_15  and  C_17
REMARK    5  A    between atoms: C_17  and  C_18
REMARK                            x       y       z     vdW  Elec       q    Type
REMARK                         _______ _______ _______ _____ _____    ______ ____
ROOT
ATOM      1  C   UNL     1      34.687 -17.343 -23.855  0.00  0.00    -0.014 C 
ATOM      2  C   UNL     1      34.486 -16.451 -22.801  0.00  0.00    -0.002 C 
ATOM      3  C   UNL     1      34.285 -16.999 -25.146  0.00  0.00    -0.002 C 
ATOM      4  C   UNL     1      33.883 -15.215 -23.038  0.00  0.00    +0.019 C 
ATOM      5  C   UNL     1      33.683 -15.763 -25.383  0.00  0.00    +0.019 C 
ATOM      6  C   UNL     1      33.482 -14.871 -24.329  0.00  0.00    +0.084 C 
ENDROOT
BRANCH   6   7
ATOM      7  N   UNL     1      32.878 -13.633 -24.567  0.00  0.00    -0.214 NA
BRANCH   7  10
ATOM      8  N   UNL     1      33.754 -12.272 -26.251  0.00  0.00    -0.370 N 
ATOM      9  N   UNL     1      34.369 -11.796 -24.105  0.00  0.00    -0.370 N 
ATOM     10  C   UNL     1      33.631 -12.620 -24.926  0.00  0.00    +0.193 C 
ATOM     11  H   UNL     1      33.275 -12.784 -26.942  0.00  0.00    +0.159 HD
ATOM     12  H   UNL     1      34.322 -11.510 -26.508  0.00  0.00    +0.159 HD
ATOM     13  H   UNL     1      34.367 -11.940 -23.132  0.00  0.00    +0.159 HD
ATOM     14  H   UNL     1      34.901 -11.063 -24.493  0.00  0.00    +0.159 HD
ENDBRANCH   7  10
ENDBRANCH   6   7
BRANCH   1  15
ATOM     15  C   UNL     1      35.337 -18.680 -23.598  0.00  0.00    +0.095 C 
BRANCH  15  17
ATOM     16  O   UNL     1      36.850 -18.356 -21.747  0.00  0.00    -0.291 OA
ATOM     17  C   UNL     1      35.794 -18.892 -22.143  0.00  0.00    +0.177 C 
BRANCH  17  18
ATOM     18  C   UNL     1      34.998 -19.713 -21.246  0.00  0.00    +0.035 C 
ATOM     19  C   UNL     1      35.619 -20.661 -20.433  0.00  0.00    +0.003 C 
ATOM     20  C   UNL     1      33.613 -19.551 -21.196  0.00  0.00    +0.003 C 
ATOM     21  C   UNL     1      34.854 -21.449 -19.571  0.00  0.00    +0.000 C 
ATOM     22  C   UNL     1      32.850 -20.338 -20.334  0.00  0.00    +0.000 C 
ATOM     23  C   UNL     1      33.470 -21.287 -19.521  0.00  0.00    +0.000 C 
ENDBRANCH  17  18
ENDBRANCH  15  17
ENDBRANCH   1  15
TORSDOF 5
ENDMDL
MODEL 5
REMARK VINA RESULT:      -9.2      4.772      7.534
REMARK  Name = 16758228
REMARK  5 active torsions:
REMARK  status: ('A' for Active; 'I' for Inactive)
REMARK    1  A    between atoms: C_1  and  C_15
REMARK    2  A    between atoms: C_6  and  N_7
REMARK    3  A    between atoms: N_7  and  C_10
REMARK    4  A    between atoms: C_15  and  C_17
REMARK    5  A    between atoms: C_17  and  C_18
REMARK                            x       y       z     vdW  Elec       q    Type
REMARK                         _______ _______ _______ _____ _____    ______ ____
ROOT
ATOM      1  C   UNL     1      34.782 -17.500 -23.856  0.00  0.00    -0.014 C 
ATOM      2  C   UNL     1      34.394 -17.215 -25.165  0.00  0.00    -0.002 C 
ATOM      3  C   UNL     1      34.618 -16.542 -22.855  0.00  0.00    -0.002 C 
ATOM      4  C   UNL     1      33.843 -15.971 -25.474  0.00  0.00    +0.019 C 
ATOM      5  C   UNL     1      34.065 -15.299 -23.164  0.00  0.00    +0.019 C 
ATOM      6  C   UNL     1      33.678 -15.014 -24.474  0.00  0.00    +0.084 C 
ENDROOT
BRANCH   6   7
ATOM      7  N   UNL     1      33.125 -13.767 -24.783  0.00  0.00    -0.214 NA
BRANCH   7  10
ATOM      8  N   UNL     1      32.485 -12.538 -22.903  0.00  0.00    -0.370 N 
ATOM      9  N   UNL     1      34.346 -11.833 -24.020  0.00  0.00    -0.370 N 
ATOM     10  C   UNL     1      33.330 -12.762 -23.964  0.00  0.00    +0.193 C 
ATOM     11  H   UNL     1      31.716 -13.134 -22.751  0.00  0.00    +0.159 HD
ATOM     12  H   UNL     1      32.649 -11.781 -22.295  0.00  0.00    +0.159 HD
ATOM     13  H   UNL     1      35.019 -11.882 -24.736  0.00  0.00    +0.159 HD
ATOM     14  H   UNL     1      34.397 -11.118 -23.346  0.00  0.00    +0.159 HD
ENDBRANCH   7  10
ENDBRANCH   6   7
BRANCH   1  15
ATOM     15  C   UNL     1      35.380 -18.845 -23.522  0.00  0.00    +0.095 C 
BRANCH  15  17
ATOM     16  O   UNL     1      36.835 -18.431 -21.643  0.00  0.00    -0.291 OA
ATOM     17  C   UNL     1      35.801 -19.002 -22.050  0.00  0.00    +0.177 C 
BRANCH  17  18
ATOM     18  C   UNL     1      34.998 -19.812 -21.148  0.00  0.00    +0.035 C 
ATOM     19  C   UNL     1      33.619 -19.615 -21.076  0.00  0.00    +0.003 C 
ATOM     20  C   UNL     1      35.606 -20.787 -20.357  0.00  0.00    +0.003 C 
ATOM     21  C   UNL     1      32.848 -20.391 -20.210  0.00  0.00    +0.000 C 
ATOM     22  C   UNL     1      34.834 -21.563 -19.493  0.00  0.00    +0.000 C 
ATOM     23  C   UNL     1      33.455 -21.366 -19.419  0.00  0.00    +0.000 C 
ENDBRANCH  17  18
ENDBRANCH  15  17
ENDBRANCH   1  15
TORSDOF 5
ENDMDL
MODEL 6
REMARK VINA RESULT:      -9.1      4.946      7.695
REMARK  Name = 16758228
REMARK  5 active torsions:
REMARK  status: ('A' for Active; 'I' for Inactive)
REMARK    1  A    between atoms: C_1  and  C_15
REMARK    2  A    between atoms: C_6  and  N_7
REMARK    3  A    between atoms: N_7  and  C_10
REMARK    4  A    between atoms: C_15  and  C_17
REMARK    5  A    between atoms: C_17  and  C_18
REMARK                            x       y       z     vdW  Elec       q    Type
REMARK                         _______ _______ _______ _____ _____    ______ ____
ROOT
ATOM      1  C   UNL     1      34.603 -16.612 -21.769  0.00  0.00    -0.014 C 
ATOM      2  C   UNL     1      34.999 -16.122 -23.014  0.00  0.00    -0.002 C 
ATOM      3  C   UNL     1      33.514 -16.043 -21.109  0.00  0.00    -0.002 C 
ATOM      4  C   UNL     1      34.305 -15.062 -23.598  0.00  0.00    +0.019 C 
ATOM      5  C   UNL     1      32.820 -14.983 -21.694  0.00  0.00    +0.019 C 
ATOM      6  C   UNL     1      33.215 -14.493 -22.939  0.00  0.00    +0.084 C 
ENDROOT
BRANCH   6   7
ATOM      7  N   UNL     1      32.520 -13.430 -23.524  0.00  0.00    -0.214 NA
BRANCH   7  10
ATOM      8  N   UNL     1      32.337 -11.315 -22.551  0.00  0.00    -0.370 N 
ATOM      9  N   UNL     1      34.100 -11.662 -23.957  0.00  0.00    -0.370 N 
ATOM     10  C   UNL     1      32.981 -12.211 -23.371  0.00  0.00    +0.193 C 
ATOM     11  H   UNL     1      31.520 -11.585 -22.071  0.00  0.00    +0.159 HD
ATOM     12  H   UNL     1      32.692 -10.403 -22.444  0.00  0.00    +0.159 HD
ATOM     13  H   UNL     1      34.651 -12.201 -24.569  0.00  0.00    +0.159 HD
ATOM     14  H   UNL     1      34.348 -10.728 -23.766  0.00  0.00    +0.159 HD
ENDBRANCH   7  10
ENDBRANCH   6   7
BRANCH   1  15
ATOM     15  C   UNL     1      35.354 -17.758 -21.137  0.00  0.00    +0.095 C 
BRANCH  15  17
ATOM     16  O   UNL     1      34.662 -19.359 -22.803  0.00  0.00    -0.291 OA
ATOM     17  C   UNL     1      34.884 -19.151 -21.592  0.00  0.00    +0.177 C 
BRANCH  17  18
ATOM     18  C   UNL     1      34.700 -20.210 -20.613  0.00  0.00    +0.035 C 
ATOM     19  C   UNL     1      35.810 -20.851 -20.063  0.00  0.00    +0.003 C 
ATOM     20  C   UNL     1      33.414 -20.584 -20.222  0.00  0.00    +0.003 C 
ATOM     21  C   UNL     1      35.634 -21.868 -19.124  0.00  0.00    +0.000 C 
ATOM     22  C   UNL     1      33.239 -21.599 -19.282  0.00  0.00    +0.000 C 
ATOM     23  C   UNL     1      34.349 -22.241 -18.733  0.00  0.00    +0.000 C 
ENDBRANCH  17  18
ENDBRANCH  15  17
ENDBRANCH   1  15
TORSDOF 5
ENDMDL
MODEL 7
REMARK VINA RESULT:      -9.1      4.857      7.718
REMARK  Name = 16758228
REMARK  5 active torsions:
REMARK  status: ('A' for Active; 'I' for Inactive)
REMARK    1  A    between atoms: C_1  and  C_15
REMARK    2  A    between atoms: C_6  and  N_7
REMARK    3  A    between atoms: N_7  and  C_10
REMARK    4  A    between atoms: C_15  and  C_17
REMARK    5  A    between atoms: C_17  and  C_18
REMARK                            x       y       z     vdW  Elec       q    Type
REMARK                         _______ _______ _______ _____ _____    ______ ____
ROOT
ATOM      1  C   UNL     1      34.743 -16.640 -22.784  0.00  0.00    -0.014 C 
ATOM      2  C   UNL     1      34.935 -17.507 -23.859  0.00  0.00    -0.002 C 
ATOM      3  C   UNL     1      34.129 -15.404 -22.985  0.00  0.00    -0.002 C 
ATOM      4  C   UNL     1      34.514 -17.138 -25.137  0.00  0.00    +0.019 C 
ATOM      5  C   UNL     1      33.707 -15.035 -24.263  0.00  0.00    +0.019 C 
ATOM      6  C   UNL     1      33.899 -15.902 -25.338  0.00  0.00    +0.084 C 
ENDROOT
BRANCH   6   7
ATOM      7  N   UNL     1      33.477 -15.532 -26.619  0.00  0.00    -0.214 NA
BRANCH   7  10
ATOM      8  N   UNL     1      31.854 -13.853 -26.631  0.00  0.00    -0.370 N 
ATOM      9  N   UNL     1      33.961 -13.265 -27.282  0.00  0.00    -0.370 N 
ATOM     10  C   UNL     1      33.144 -14.282 -26.839  0.00  0.00    +0.193 C 
ATOM     11  H   UNL     1      31.169 -14.485 -26.313  0.00  0.00    +0.159 HD
ATOM     12  H   UNL     1      31.615 -12.913 -26.799  0.00  0.00    +0.159 HD
ATOM     13  H   UNL     1      34.910 -13.443 -27.470  0.00  0.00    +0.159 HD
ATOM     14  H   UNL     1      33.594 -12.361 -27.412  0.00  0.00    +0.159 HD
ENDBRANCH   7  10
ENDBRANCH   6   7
BRANCH   1  15
ATOM     15  C   UNL     1      35.200 -17.039 -21.402  0.00  0.00    +0.095 C 
BRANCH  15  17
ATOM     16  O   UNL     1      36.966 -18.644 -21.750  0.00  0.00    -0.291 OA
ATOM     17  C   UNL     1      35.810 -18.450 -21.320  0.00  0.00    +0.177 C 
BRANCH  17  18
ATOM     18  C   UNL     1      35.041 -19.541 -20.746  0.00  0.00    +0.035 C 
ATOM     19  C   UNL     1      33.648 -19.528 -20.824  0.00  0.00    +0.003 C 
ATOM     20  C   UNL     1      35.694 -20.602 -20.118  0.00  0.00    +0.003 C 
ATOM     21  C   UNL     1      32.909 -20.575 -20.273  0.00  0.00    +0.000 C 
ATOM     22  C   UNL     1      34.954 -21.649 -19.568  0.00  0.00    +0.000 C 
ATOM     23  C   UNL     1      33.561 -21.636 -19.646  0.00  0.00    +0.000 C 
ENDBRANCH  17  18
ENDBRANCH  15  17
ENDBRANCH   1  15
TORSDOF 5
ENDMDL
MODEL 8
REMARK VINA RESULT:      -9.0      3.524      7.790
REMARK  Name = 16758228
REMARK  5 active torsions:
REMARK  status: ('A' for Active; 'I' for Inactive)
REMARK    1  A    between atoms: C_1  and  C_15
REMARK    2  A    between atoms: C_6  and  N_7
REMARK    3  A    between atoms: N_7  and  C_10
REMARK    4  A    between atoms: C_15  and  C_17
REMARK    5  A    between atoms: C_17  and  C_18
REMARK                            x       y       z     vdW  Elec       q    Type
REMARK                         _______ _______ _______ _____ _____    ______ ____
ROOT
ATOM      1  C   UNL     1      34.085 -21.909 -19.420  0.00  0.00    -0.014 C 
ATOM      2  C   UNL     1      35.394 -21.504 -19.683  0.00  0.00    -0.002 C 
ATOM      3  C   UNL     1      33.014 -21.115 -19.830  0.00  0.00    -0.002 C 
ATOM      4  C   UNL     1      35.631 -20.305 -20.356  0.00  0.00    +0.019 C 
ATOM      5  C   UNL     1      33.251 -19.917 -20.504  0.00  0.00    +0.019 C 
ATOM      6  C   UNL     1      34.559 -19.512 -20.767  0.00  0.00    +0.084 C 
ENDROOT
BRANCH   6   7
ATOM      7  N   UNL     1      34.797 -18.310 -21.441  0.00  0.00    -0.214 NA
BRANCH   7  10
ATOM      8  N   UNL     1      34.785 -19.427 -23.493  0.00  0.00    -0.370 N 
ATOM      9  N   UNL     1      35.835 -17.402 -23.418  0.00  0.00    -0.370 N 
ATOM     10  C   UNL     1      35.133 -18.351 -22.709  0.00  0.00    +0.193 C 
ATOM     11  H   UNL     1      34.278 -20.176 -23.104  0.00  0.00    +0.159 HD
ATOM     12  H   UNL     1      35.043 -19.446 -24.443  0.00  0.00    +0.159 HD
ATOM     13  H   UNL     1      36.144 -16.582 -22.971  0.00  0.00    +0.159 HD
ATOM     14  H   UNL     1      36.031 -17.545 -24.373  0.00  0.00    +0.159 HD
ENDBRANCH   7  10
ENDBRANCH   6   7
BRANCH   1  15
ATOM     15  C   UNL     1      33.829 -23.205 -18.691  0.00  0.00    +0.095 C 
BRANCH  15  17
ATOM     16  O   UNL     1      35.184 -23.056 -16.701  0.00  0.00    -0.291 OA
ATOM     17  C   UNL     1      34.027 -23.123 -17.167  0.00  0.00    +0.177 C 
BRANCH  17  18
ATOM     18  C   UNL     1      32.873 -23.127 -16.284  0.00  0.00    +0.035 C 
ATOM     19  C   UNL     1      33.050 -23.250 -14.906  0.00  0.00    +0.003 C 
ATOM     20  C   UNL     1      31.588 -23.006 -16.814  0.00  0.00    +0.003 C 
ATOM     21  C   UNL     1      31.941 -23.254 -14.058  0.00  0.00    +0.000 C 
ATOM     22  C   UNL     1      30.481 -23.009 -15.966  0.00  0.00    +0.000 C 
ATOM     23  C   UNL     1      30.657 -23.133 -14.588  0.00  0.00    +0.000 C 
ENDBRANCH  17  18
ENDBRANCH  15  17
ENDBRANCH   1  15
TORSDOF 5
ENDMDL
MODEL 9
REMARK VINA RESULT:      -8.8      4.527      7.405
REMARK  Name = 16758228
REMARK  5 active torsions:
REMARK  status: ('A' for Active; 'I' for Inactive)
REMARK    1  A    between atoms: C_1  and  C_15
REMARK    2  A    between atoms: C_6  and  N_7
REMARK    3  A    between atoms: N_7  and  C_10
REMARK    4  A    between atoms: C_15  and  C_17
REMARK    5  A    between atoms: C_17  and  C_18
REMARK                            x       y       z     vdW  Elec       q    Type
REMARK                         _______ _______ _______ _____ _____    ______ ____
ROOT
ATOM      1  C   UNL     1      34.831 -17.814 -22.348  0.00  0.00    -0.014 C 
ATOM      2  C   UNL     1      34.483 -17.092 -21.207  0.00  0.00    -0.002 C 
ATOM      3  C   UNL     1      35.015 -17.153 -23.563  0.00  0.00    -0.002 C 
ATOM      4  C   UNL     1      34.319 -15.708 -21.280  0.00  0.00    +0.019 C 
ATOM      5  C   UNL     1      34.852 -15.769 -23.635  0.00  0.00    +0.019 C 
ATOM      6  C   UNL     1      34.504 -15.047 -22.494  0.00  0.00    +0.084 C 
ENDROOT
BRANCH   6   7
ATOM      7  N   UNL     1      34.339 -13.660 -22.567  0.00  0.00    -0.214 NA
BRANCH   7  10
ATOM      8  N   UNL     1      33.522 -12.481 -24.411  0.00  0.00    -0.370 N 
ATOM      9  N   UNL     1      31.986 -13.278 -22.923  0.00  0.00    -0.370 N 
ATOM     10  C   UNL     1      33.322 -13.178 -23.242  0.00  0.00    +0.193 C 
ATOM     11  H   UNL     1      34.436 -12.340 -24.750  0.00  0.00    +0.159 HD
ATOM     12  H   UNL     1      32.751 -12.124 -24.908  0.00  0.00    +0.159 HD
ATOM     13  H   UNL     1      31.708 -13.753 -22.108  0.00  0.00    +0.159 HD
ATOM     14  H   UNL     1      31.308 -12.871 -23.510  0.00  0.00    +0.159 HD
ENDBRANCH   7  10
ENDBRANCH   6   7
BRANCH   1  15
ATOM     15  C   UNL     1      35.006 -19.310 -22.269  0.00  0.00    +0.095 C 
BRANCH  15  17
ATOM     16  O   UNL     1      36.858 -19.411 -20.727  0.00  0.00    -0.291 OA
ATOM     17  C   UNL     1      35.700 -19.799 -20.985  0.00  0.00    +0.177 C 
BRANCH  17  18
ATOM     18  C   UNL     1      35.005 -20.706 -20.086  0.00  0.00    +0.035 C 
ATOM     19  C   UNL     1      35.733 -21.523 -19.221  0.00  0.00    +0.003 C 
ATOM     20  C   UNL     1      33.611 -20.758 -20.087  0.00  0.00    +0.003 C 
ATOM     21  C   UNL     1      35.066 -22.394 -18.358  0.00  0.00    +0.000 C 
ATOM     22  C   UNL     1      32.945 -21.628 -19.223  0.00  0.00    +0.000 C 
ATOM     23  C   UNL     1      33.673 -22.446 -18.359  0.00  0.00    +0.000 C 
ENDBRANCH  17  18
ENDBRANCH  15  17
ENDBRANCH   1  15
TORSDOF 5
ENDMDL
