MODEL 1
REMARK VINA RESULT:      -8.2      0.000      0.000
REMARK  Name = 4996
REMARK  9 active torsions:
REMARK  status: ('A' for Active; 'I' for Inactive)
REMARK    1  A    between atoms: C_1  and  C_2
REMARK    2  A    between atoms: C_1  and  C_12
REMARK    3  A    between atoms: C_2  and  C_3
REMARK    4  A    between atoms: C_3  and  C_4
REMARK    5  A    between atoms: C_4  and  C_5
REMARK    6  A    between atoms: C_5  and  C_8
REMARK    7  A    between atoms: N_7  and  O_10
REMARK    8  A    between atoms: C_12  and  C_15
REMARK    9  A    between atoms: N_14  and  C_18
REMARK                            x       y       z     vdW  Elec       q    Type
REMARK                         _______ _______ _______ _____ _____    ______ ____
ROOT
ATOM      1  C   UNL     1      33.128 -22.431 -18.446  0.00  0.00    +0.010 C 
ENDROOT
BRANCH   1   2
ATOM      2  C   UNL     1      33.628 -23.241 -17.245  0.00  0.00    +0.001 C 
BRANCH   2   3
ATOM      3  C   UNL     1      32.564 -23.315 -16.145  0.00  0.00    +0.001 C 
BRANCH   3   4
ATOM      4  C   UNL     1      31.192 -22.881 -16.669  0.00  0.00    +0.010 C 
BRANCH   4   5
ATOM      5  C   UNL     1      30.090 -23.051 -15.626  0.00  0.00    +0.087 C 
BRANCH   5   8
ATOM      6  O   UNL     1      27.993 -21.887 -15.548  0.00  0.00    -0.273 OA
ATOM      7  N   UNL     1      28.421 -23.274 -17.348  0.00  0.00    -0.197 N 
ATOM      8  C   UNL     1      28.724 -22.665 -16.156  0.00  0.00    +0.244 C 
ATOM      9  H   UNL     1      29.046 -23.890 -17.793  0.00  0.00    +0.182 HD
BRANCH   7  10
ATOM     10  O   UNL     1      27.168 -22.963 -17.893  0.00  0.00    -0.295 OA
ATOM     11  H   UNL     1      27.279 -22.321 -18.611  0.00  0.00    +0.241 HD
ENDBRANCH   7  10
ENDBRANCH   5   8
ENDBRANCH   4   5
ENDBRANCH   3   4
ENDBRANCH   2   3
ENDBRANCH   1   2
BRANCH   1  12
ATOM     12  C   UNL     1      34.274 -21.835 -19.262  0.00  0.00    +0.085 C 
BRANCH  12  15
ATOM     13  O   UNL     1      32.660 -20.497 -20.453  0.00  0.00    -0.275 OA
ATOM     14  N   UNL     1      34.953 -20.093 -20.763  0.00  0.00    -0.283 N 
ATOM     15  C   UNL     1      33.841 -20.730 -20.218  0.00  0.00    +0.226 C 
ATOM     16  H   UNL     1      35.831 -20.426 -20.471  0.00  0.00    +0.155 HD
BRANCH  14  18
ATOM     17  N   UNL     1      35.127 -16.643 -22.090  0.00  0.00    -0.241 NA
ATOM     18  C   UNL     1      34.964 -19.021 -21.688  0.00  0.00    +0.070 C 
ATOM     19  C   UNL     1      34.831 -19.251 -23.052  0.00  0.00    +0.018 C 
ATOM     20  C   UNL     1      35.108 -17.711 -21.261  0.00  0.00    +0.113 C 
ATOM     21  C   UNL     1      34.844 -18.178 -23.937  0.00  0.00    +0.022 C 
ATOM     22  C   UNL     1      34.994 -16.905 -23.410  0.00  0.00    +0.099 C 
ENDBRANCH  14  18
ENDBRANCH  12  15
ENDBRANCH   1  12
TORSDOF 9
ENDMDL
MODEL 2
REMARK VINA RESULT:      -8.1      5.675      9.430
REMARK  Name = 4996
REMARK  9 active torsions:
REMARK  status: ('A' for Active; 'I' for Inactive)
REMARK    1  A    between atoms: C_1  and  C_2
REMARK    2  A    between atoms: C_1  and  C_12
REMARK    3  A    between atoms: C_2  and  C_3
REMARK    4  A    between atoms: C_3  and  C_4
REMARK    5  A    between atoms: C_4  and  C_5
REMARK    6  A    between atoms: C_5  and  C_8
REMARK    7  A    between atoms: N_7  and  O_10
REMARK    8  A    between atoms: C_12  and  C_15
REMARK    9  A    between atoms: N_14  and  C_18
REMARK                            x       y       z     vdW  Elec       q    Type
REMARK                         _______ _______ _______ _____ _____    ______ ____
ROOT
ATOM      1  C   UNL     1      34.062 -14.254 -22.113  0.00  0.00    +0.010 C 
ENDROOT
BRANCH   1   2
ATOM      2  C   UNL     1      32.538 -14.212 -21.968  0.00  0.00    +0.001 C 
BRANCH   2   3
ATOM      3  C   UNL     1      32.020 -12.771 -21.968  0.00  0.00    +0.001 C 
BRANCH   3   4
ATOM      4  C   UNL     1      31.897 -12.225 -20.543  0.00  0.00    +0.010 C 
BRANCH   4   5
ATOM      5  C   UNL     1      31.180 -10.877 -20.495  0.00  0.00    +0.087 C 
BRANCH   5   8
ATOM      6  O   UNL     1      32.200  -9.988 -18.513  0.00  0.00    -0.273 OA
ATOM      7  N   UNL     1      32.313  -8.752 -20.463  0.00  0.00    -0.197 N 
ATOM      8  C   UNL     1      31.950  -9.838 -19.706  0.00  0.00    +0.244 C 
ATOM      9  H   UNL     1      32.086  -8.683 -21.418  0.00  0.00    +0.182 HD
BRANCH   7  10
ATOM     10  O   UNL     1      33.025  -7.748 -19.793  0.00  0.00    -0.295 OA
ATOM     11  H   UNL     1      32.735  -7.710 -18.868  0.00  0.00    +0.241 HD
ENDBRANCH   7  10
ENDBRANCH   5   8
ENDBRANCH   4   5
ENDBRANCH   3   4
ENDBRANCH   2   3
ENDBRANCH   1   2
BRANCH   1  12
ATOM     12  C   UNL     1      34.568 -15.631 -22.540  0.00  0.00    +0.085 C 
BRANCH  12  15
ATOM     13  O   UNL     1      35.052 -16.264 -20.264  0.00  0.00    -0.275 OA
ATOM     14  N   UNL     1      34.443 -17.915 -21.820  0.00  0.00    -0.283 N 
ATOM     15  C   UNL     1      34.714 -16.619 -21.389  0.00  0.00    +0.226 C 
ATOM     16  H   UNL     1      34.203 -18.016 -22.769  0.00  0.00    +0.155 HD
BRANCH  14  18
ATOM     17  N   UNL     1      35.768 -20.802 -19.923  0.00  0.00    -0.241 NA
ATOM     18  C   UNL     1      34.471 -19.103 -21.051  0.00  0.00    +0.070 C 
ATOM     19  C   UNL     1      33.294 -19.737 -20.670  0.00  0.00    +0.018 C 
ATOM     20  C   UNL     1      35.672 -19.671 -20.656  0.00  0.00    +0.113 C 
ATOM     21  C   UNL     1      33.353 -20.904 -19.916  0.00  0.00    +0.022 C 
ATOM     22  C   UNL     1      34.604 -21.391 -19.571  0.00  0.00    +0.099 C 
ENDBRANCH  14  18
ENDBRANCH  12  15
ENDBRANCH   1  12
TORSDOF 9
ENDMDL
MODEL 3
REMARK VINA RESULT:      -8.0      3.014      8.862
REMARK  Name = 4996
REMARK  9 active torsions:
REMARK  status: ('A' for Active; 'I' for Inactive)
REMARK    1  A    between atoms: C_1  and  C_2
REMARK    2  A    between atoms: C_1  and  C_12
REMARK    3  A    between atoms: C_2  and  C_3
REMARK    4  A    between atoms: C_3  and  C_4
REMARK    5  A    between atoms: C_4  and  C_5
REMARK    6  A    between atoms: C_5  and  C_8
REMARK    7  A    between atoms: N_7  and  O_10
REMARK    8  A    between atoms: C_12  and  C_15
REMARK    9  A    between atoms: N_14  and  C_18
REMARK                            x       y       z     vdW  Elec       q    Type
REMARK                         _______ _______ _______ _____ _____    ______ ____
ROOT
ATOM      1  C   UNL     1      35.067 -22.047 -18.980  0.00  0.00    +0.010 C 
ENDROOT
BRANCH   1   2
ATOM      2  C   UNL     1      35.154 -20.913 -20.006  0.00  0.00    +0.001 C 
BRANCH   2   3
ATOM      3  C   UNL     1      33.766 -20.362 -20.343  0.00  0.00    +0.001 C 
BRANCH   3   4
ATOM      4  C   UNL     1      33.857 -19.181 -21.313  0.00  0.00    +0.010 C 
BRANCH   4   5
ATOM      5  C   UNL     1      35.015 -19.326 -22.300  0.00  0.00    +0.087 C 
BRANCH   5   8
ATOM      6  O   UNL     1      34.482 -18.448 -24.469  0.00  0.00    -0.273 OA
ATOM      7  N   UNL     1      35.619 -17.095 -22.978  0.00  0.00    -0.197 N 
ATOM      8  C   UNL     1      35.001 -18.255 -23.372  0.00  0.00    +0.244 C 
ATOM      9  H   UNL     1      36.018 -16.994 -22.084  0.00  0.00    +0.182 HD
BRANCH   7  10
ATOM     10  O   UNL     1      35.645 -16.063 -23.926  0.00  0.00    -0.295 OA
ATOM     11  H   UNL     1      36.445 -15.529 -23.798  0.00  0.00    +0.241 HD
ENDBRANCH   7  10
ENDBRANCH   5   8
ENDBRANCH   4   5
ENDBRANCH   3   4
ENDBRANCH   2   3
ENDBRANCH   1   2
BRANCH   1  12
ATOM     12  C   UNL     1      33.625 -22.466 -18.698  0.00  0.00    +0.085 C 
BRANCH  12  15
ATOM     13  O   UNL     1      34.335 -23.865 -16.867  0.00  0.00    -0.275 OA
ATOM     14  N   UNL     1      32.154 -22.994 -16.880  0.00  0.00    -0.283 N 
ATOM     15  C   UNL     1      33.441 -23.192 -17.371  0.00  0.00    +0.226 C 
ATOM     16  H   UNL     1      31.560 -22.435 -17.430  0.00  0.00    +0.155 HD
BRANCH  14  18
ATOM     17  N   UNL     1      31.573 -23.516 -13.263  0.00  0.00    -0.241 NA
ATOM     18  C   UNL     1      31.601 -23.502 -15.679  0.00  0.00    +0.070 C 
ATOM     19  C   UNL     1      30.585 -24.451 -15.705  0.00  0.00    +0.018 C 
ATOM     20  C   UNL     1      32.056 -23.071 -14.444  0.00  0.00    +0.113 C 
ATOM     21  C   UNL     1      30.063 -24.934 -14.509  0.00  0.00    +0.022 C 
ATOM     22  C   UNL     1      30.587 -24.438 -13.326  0.00  0.00    +0.099 C 
ENDBRANCH  14  18
ENDBRANCH  12  15
ENDBRANCH   1  12
TORSDOF 9
ENDMDL
MODEL 4
REMARK VINA RESULT:      -8.0      4.320      7.877
REMARK  Name = 4996
REMARK  9 active torsions:
REMARK  status: ('A' for Active; 'I' for Inactive)
REMARK    1  A    between atoms: C_1  and  C_2
REMARK    2  A    between atoms: C_1  and  C_12
REMARK    3  A    between atoms: C_2  and  C_3
REMARK    4  A    between atoms: C_3  and  C_4
REMARK    5  A    between atoms: C_4  and  C_5
REMARK    6  A    between atoms: C_5  and  C_8
REMARK    7  A    between atoms: N_7  and  O_10
REMARK    8  A    between atoms: C_12  and  C_15
REMARK    9  A    between atoms: N_14  and  C_18
REMARK                            x       y       z     vdW  Elec       q    Type
REMARK                         _______ _______ _______ _____ _____    ______ ____
ROOT
ATOM      1  C   UNL     1      34.728 -16.121 -23.754  0.00  0.00    +0.010 C 
ENDROOT
BRANCH   1   2
ATOM      2  C   UNL     1      33.703 -15.159 -24.364  0.00  0.00    +0.001 C 
BRANCH   2   3
ATOM      3  C   UNL     1      33.666 -13.832 -23.600  0.00  0.00    +0.001 C 
BRANCH   3   4
ATOM      4  C   UNL     1      32.388 -13.708 -22.765  0.00  0.00    +0.010 C 
BRANCH   4   5
ATOM      5  C   UNL     1      32.666 -13.753 -21.264  0.00  0.00    +0.087 C 
BRANCH   5   8
ATOM      6  O   UNL     1      32.447 -16.084 -20.737  0.00  0.00    -0.273 OA
ATOM      7  N   UNL     1      34.520 -15.087 -20.497  0.00  0.00    -0.197 N 
ATOM      8  C   UNL     1      33.183 -15.102 -20.809  0.00  0.00    +0.244 C 
ATOM      9  H   UNL     1      35.064 -14.271 -20.574  0.00  0.00    +0.182 HD
BRANCH   7  10
ATOM     10  O   UNL     1      35.061 -16.305 -20.064  0.00  0.00    -0.295 OA
ATOM     11  H   UNL     1      34.351 -16.868 -19.718  0.00  0.00    +0.241 HD
ENDBRANCH   7  10
ENDBRANCH   5   8
ENDBRANCH   4   5
ENDBRANCH   3   4
ENDBRANCH   2   3
ENDBRANCH   1   2
BRANCH   1  12
ATOM     12  C   UNL     1      34.948 -17.361 -24.620  0.00  0.00    +0.085 C 
BRANCH  12  15
ATOM     13  O   UNL     1      34.775 -19.760 -24.450  0.00  0.00    -0.275 OA
ATOM     14  N   UNL     1      34.559 -18.443 -22.517  0.00  0.00    -0.283 N 
ATOM     15  C   UNL     1      34.762 -18.676 -23.874  0.00  0.00    +0.226 C 
ATOM     16  H   UNL     1      34.563 -17.501 -22.232  0.00  0.00    +0.155 HD
BRANCH  14  18
ATOM     17  N   UNL     1      32.803 -20.615 -20.090  0.00  0.00    -0.241 NA
ATOM     18  C   UNL     1      34.349 -19.405 -21.499  0.00  0.00    +0.070 C 
ATOM     19  C   UNL     1      35.418 -20.071 -20.912  0.00  0.00    +0.018 C 
ATOM     20  C   UNL     1      33.072 -19.709 -21.056  0.00  0.00    +0.113 C 
ATOM     21  C   UNL     1      35.181 -21.009 -19.913  0.00  0.00    +0.022 C 
ATOM     22  C   UNL     1      33.867 -21.243 -19.541  0.00  0.00    +0.099 C 
ENDBRANCH  14  18
ENDBRANCH  12  15
ENDBRANCH   1  12
TORSDOF 9
ENDMDL
MODEL 5
REMARK VINA RESULT:      -7.9      4.186      8.152
REMARK  Name = 4996
REMARK  9 active torsions:
REMARK  status: ('A' for Active; 'I' for Inactive)
REMARK    1  A    between atoms: C_1  and  C_2
REMARK    2  A    between atoms: C_1  and  C_12
REMARK    3  A    between atoms: C_2  and  C_3
REMARK    4  A    between atoms: C_3  and  C_4
REMARK    5  A    between atoms: C_4  and  C_5
REMARK    6  A    between atoms: C_5  and  C_8
REMARK    7  A    between atoms: N_7  and  O_10
REMARK    8  A    between atoms: C_12  and  C_15
REMARK    9  A    between atoms: N_14  and  C_18
REMARK                            x       y       z     vdW  Elec       q    Type
REMARK                         _______ _______ _______ _____ _____    ______ ____
ROOT
ATOM      1  C   UNL     1      35.098 -18.831 -24.120  0.00  0.00    +0.010 C 
ENDROOT
BRANCH   1   2
ATOM      2  C   UNL     1      34.250 -17.980 -25.070  0.00  0.00    +0.001 C 
BRANCH   2   3
ATOM      3  C   UNL     1      34.705 -16.518 -25.060  0.00  0.00    +0.001 C 
BRANCH   3   4
ATOM      4  C   UNL     1      33.514 -15.567 -24.911  0.00  0.00    +0.010 C 
BRANCH   4   5
ATOM      5  C   UNL     1      33.801 -14.422 -23.941  0.00  0.00    +0.087 C 
BRANCH   5   8
ATOM      6  O   UNL     1      32.384 -15.083 -22.120  0.00  0.00    -0.273 OA
ATOM      7  N   UNL     1      34.638 -14.771 -21.710  0.00  0.00    -0.197 N 
ATOM      8  C   UNL     1      33.517 -14.797 -22.501  0.00  0.00    +0.244 C 
ATOM      9  H   UNL     1      35.524 -14.534 -22.068  0.00  0.00    +0.182 HD
BRANCH   7  10
ATOM     10  O   UNL     1      34.445 -15.104 -20.362  0.00  0.00    -0.295 OA
ATOM     11  H   UNL     1      35.304 -15.141 -19.913  0.00  0.00    +0.241 HD
ENDBRANCH   7  10
ENDBRANCH   5   8
ENDBRANCH   4   5
ENDBRANCH   3   4
ENDBRANCH   2   3
ENDBRANCH   1   2
BRANCH   1  12
ATOM     12  C   UNL     1      35.641 -18.022 -22.942  0.00  0.00    +0.085 C 
BRANCH  12  15
ATOM     13  O   UNL     1      34.894 -17.753 -20.665  0.00  0.00    -0.275 OA
ATOM     14  N   UNL     1      35.139 -19.913 -21.556  0.00  0.00    -0.283 N 
ATOM     15  C   UNL     1      35.170 -18.521 -21.582  0.00  0.00    +0.226 C 
ATOM     16  H   UNL     1      35.412 -20.369 -22.383  0.00  0.00    +0.155 HD
BRANCH  14  18
ATOM     17  N   UNL     1      35.399 -22.310 -18.749  0.00  0.00    -0.241 NA
ATOM     18  C   UNL     1      34.758 -20.747 -20.477  0.00  0.00    +0.070 C 
ATOM     19  C   UNL     1      33.428 -20.841 -20.080  0.00  0.00    +0.018 C 
ATOM     20  C   UNL     1      35.696 -21.495 -19.786  0.00  0.00    +0.113 C 
ATOM     21  C   UNL     1      33.083 -21.670 -19.018  0.00  0.00    +0.022 C 
ATOM     22  C   UNL     1      34.097 -22.377 -18.391  0.00  0.00    +0.099 C 
ENDBRANCH  14  18
ENDBRANCH  12  15
ENDBRANCH   1  12
TORSDOF 9
ENDMDL
MODEL 6
REMARK VINA RESULT:      -7.9      3.922      6.825
REMARK  Name = 4996
REMARK  9 active torsions:
REMARK  status: ('A' for Active; 'I' for Inactive)
REMARK    1  A    between atoms: C_1  and  C_2
REMARK    2  A    between atoms: C_1  and  C_12
REMARK    3  A    between atoms: C_2  and  C_3
REMARK    4  A    between atoms: C_3  and  C_4
REMARK    5  A    between atoms: C_4  and  C_5
REMARK    6  A    between atoms: C_5  and  C_8
REMARK    7  A    between atoms: N_7  and  O_10
REMARK    8  A    between atoms: C_12  and  C_15
REMARK    9  A    between atoms: N_14  and  C_18
REMARK                            x       y       z     vdW  Elec       q    Type
REMARK                         _______ _______ _______ _____ _____    ______ ____
ROOT
ATOM      1  C   UNL     1      34.201 -18.449 -24.725  0.00  0.00    +0.010 C 
ENDROOT
BRANCH   1   2
ATOM      2  C   UNL     1      35.124 -19.173 -23.739  0.00  0.00    +0.001 C 
BRANCH   2   3
ATOM      3  C   UNL     1      35.692 -18.204 -22.698  0.00  0.00    +0.001 C 
BRANCH   3   4
ATOM      4  C   UNL     1      35.509 -18.746 -21.278  0.00  0.00    +0.010 C 
BRANCH   4   5
ATOM      5  C   UNL     1      34.080 -19.219 -21.015  0.00  0.00    +0.087 C 
BRANCH   5   8
ATOM      6  O   UNL     1      35.049 -21.144 -19.958  0.00  0.00    -0.273 OA
ATOM      7  N   UNL     1      32.763 -20.835 -19.809  0.00  0.00    -0.197 N 
ATOM      8  C   UNL     1      34.033 -20.500 -20.207  0.00  0.00    +0.244 C 
ATOM      9  H   UNL     1      31.982 -20.281 -20.036  0.00  0.00    +0.182 HD
BRANCH   7  10
ATOM     10  O   UNL     1      32.647 -22.014 -19.059  0.00  0.00    -0.295 OA
ATOM     11  H   UNL     1      32.938 -22.767 -19.597  0.00  0.00    +0.241 HD
ENDBRANCH   7  10
ENDBRANCH   5   8
ENDBRANCH   4   5
ENDBRANCH   3   4
ENDBRANCH   2   3
ENDBRANCH   1   2
BRANCH   1  12
ATOM     12  C   UNL     1      34.841 -17.186 -25.300  0.00  0.00    +0.085 C 
BRANCH  12  15
ATOM     13  O   UNL     1      33.189 -15.624 -26.102  0.00  0.00    -0.275 OA
ATOM     14  N   UNL     1      34.187 -15.279 -24.004  0.00  0.00    -0.283 N 
ATOM     15  C   UNL     1      33.958 -15.949 -25.203  0.00  0.00    +0.226 C 
ATOM     16  H   UNL     1      34.858 -15.677 -23.404  0.00  0.00    +0.155 HD
BRANCH  14  18
ATOM     17  N   UNL     1      32.019 -13.026 -22.025  0.00  0.00    -0.241 NA
ATOM     18  C   UNL     1      33.564 -14.092 -23.547  0.00  0.00    +0.070 C 
ATOM     19  C   UNL     1      33.851 -12.863 -24.129  0.00  0.00    +0.018 C 
ATOM     20  C   UNL     1      32.648 -14.120 -22.507  0.00  0.00    +0.113 C 
ATOM     21  C   UNL     1      33.222 -11.714 -23.660  0.00  0.00    +0.022 C 
ATOM     22  C   UNL     1      32.322 -11.849 -22.615  0.00  0.00    +0.099 C 
ENDBRANCH  14  18
ENDBRANCH  12  15
ENDBRANCH   1  12
TORSDOF 9
ENDMDL
MODEL 7
REMARK VINA RESULT:      -7.8      4.450      8.750
REMARK  Name = 4996
REMARK  9 active torsions:
REMARK  status: ('A' for Active; 'I' for Inactive)
REMARK    1  A    between atoms: C_1  and  C_2
REMARK    2  A    between atoms: C_1  and  C_12
REMARK    3  A    between atoms: C_2  and  C_3
REMARK    4  A    between atoms: C_3  and  C_4
REMARK    5  A    between atoms: C_4  and  C_5
REMARK    6  A    between atoms: C_5  and  C_8
REMARK    7  A    between atoms: N_7  and  O_10
REMARK    8  A    between atoms: C_12  and  C_15
REMARK    9  A    between atoms: N_14  and  C_18
REMARK                            x       y       z     vdW  Elec       q    Type
REMARK                         _______ _______ _______ _____ _____    ______ ____
ROOT
ATOM      1  C   UNL     1      34.821 -16.136 -21.047  0.00  0.00    +0.010 C 
ENDROOT
BRANCH   1   2
ATOM      2  C   UNL     1      34.296 -14.701 -21.161  0.00  0.00    +0.001 C 
BRANCH   2   3
ATOM      3  C   UNL     1      32.781 -14.681 -21.378  0.00  0.00    +0.001 C 
BRANCH   3   4
ATOM      4  C   UNL     1      32.410 -13.890 -22.636  0.00  0.00    +0.010 C 
BRANCH   4   5
ATOM      5  C   UNL     1      33.638 -13.470 -23.442  0.00  0.00    +0.087 C 
BRANCH   5   8
ATOM      6  O   UNL     1      33.346 -12.870 -25.748  0.00  0.00    -0.273 OA
ATOM      7  N   UNL     1      33.535 -15.110 -25.204  0.00  0.00    -0.197 N 
ATOM      8  C   UNL     1      33.491 -13.767 -24.920  0.00  0.00    +0.244 C 
ATOM      9  H   UNL     1      33.654 -15.787 -24.500  0.00  0.00    +0.182 HD
BRANCH   7  10
ATOM     10  O   UNL     1      33.401 -15.455 -26.555  0.00  0.00    -0.295 OA
ATOM     11  H   UNL     1      34.180 -15.148 -27.045  0.00  0.00    +0.241 HD
ENDBRANCH   7  10
ENDBRANCH   5   8
ENDBRANCH   4   5
ENDBRANCH   3   4
ENDBRANCH   2   3
ENDBRANCH   1   2
BRANCH   1  12
ATOM     12  C   UNL     1      34.695 -16.907 -22.360  0.00  0.00    +0.085 C 
BRANCH  12  15
ATOM     13  O   UNL     1      34.948 -19.179 -23.126  0.00  0.00    -0.275 OA
ATOM     14  N   UNL     1      34.404 -18.769 -20.878  0.00  0.00    -0.283 N 
ATOM     15  C   UNL     1      34.712 -18.421 -22.191  0.00  0.00    +0.226 C 
ATOM     16  H   UNL     1      34.225 -18.024 -20.262  0.00  0.00    +0.155 HD
BRANCH  14  18
ATOM     17  N   UNL     1      32.946 -21.893 -19.535  0.00  0.00    -0.241 NA
ATOM     18  C   UNL     1      34.321 -20.071 -20.329  0.00  0.00    +0.070 C 
ATOM     19  C   UNL     1      35.468 -20.802 -20.042  0.00  0.00    +0.018 C 
ATOM     20  C   UNL     1      33.094 -20.656 -20.059  0.00  0.00    +0.113 C 
ATOM     21  C   UNL     1      35.356 -22.078 -19.501  0.00  0.00    +0.022 C 
ATOM     22  C   UNL     1      34.082 -22.574 -19.268  0.00  0.00    +0.099 C 
ENDBRANCH  14  18
ENDBRANCH  12  15
ENDBRANCH   1  12
TORSDOF 9
ENDMDL
MODEL 8
REMARK VINA RESULT:      -7.8      4.478      9.755
REMARK  Name = 4996
REMARK  9 active torsions:
REMARK  status: ('A' for Active; 'I' for Inactive)
REMARK    1  A    between atoms: C_1  and  C_2
REMARK    2  A    between atoms: C_1  and  C_12
REMARK    3  A    between atoms: C_2  and  C_3
REMARK    4  A    between atoms: C_3  and  C_4
REMARK    5  A    between atoms: C_4  and  C_5
REMARK    6  A    between atoms: C_5  and  C_8
REMARK    7  A    between atoms: N_7  and  O_10
REMARK    8  A    between atoms: C_12  and  C_15
REMARK    9  A    between atoms: N_14  and  C_18
REMARK                            x       y       z     vdW  Elec       q    Type
REMARK                         _______ _______ _______ _____ _____    ______ ____
ROOT
ATOM      1  C   UNL     1      34.917 -17.690 -24.174  0.00  0.00    +0.010 C 
ENDROOT
BRANCH   1   2
ATOM      2  C   UNL     1      34.168 -16.605 -24.954  0.00  0.00    +0.001 C 
BRANCH   2   3
ATOM      3  C   UNL     1      33.850 -15.401 -24.062  0.00  0.00    +0.001 C 
BRANCH   3   4
ATOM      4  C   UNL     1      33.153 -14.292 -24.854  0.00  0.00    +0.010 C 
BRANCH   4   5
ATOM      5  C   UNL     1      33.191 -12.947 -24.130  0.00  0.00    +0.087 C 
BRANCH   5   8
ATOM      6  O   UNL     1      33.886 -11.827 -26.136  0.00  0.00    -0.273 OA
ATOM      7  N   UNL     1      34.671 -11.047 -24.106  0.00  0.00    -0.197 N 
ATOM      8  C   UNL     1      33.944 -11.889 -24.910  0.00  0.00    +0.244 C 
ATOM      9  H   UNL     1      34.682 -11.141 -23.127  0.00  0.00    +0.182 HD
BRANCH   7  10
ATOM     10  O   UNL     1      35.396 -10.046 -24.765  0.00  0.00    -0.295 OA
ATOM     11  H   UNL     1      34.833  -9.629 -25.436  0.00  0.00    +0.241 HD
ENDBRANCH   7  10
ENDBRANCH   5   8
ENDBRANCH   4   5
ENDBRANCH   3   4
ENDBRANCH   2   3
ENDBRANCH   1   2
BRANCH   1  12
ATOM     12  C   UNL     1      35.634 -17.133 -22.945  0.00  0.00    +0.085 C 
BRANCH  12  15
ATOM     13  O   UNL     1      35.210 -17.192 -20.573  0.00  0.00    -0.275 OA
ATOM     14  N   UNL     1      34.922 -19.142 -21.848  0.00  0.00    -0.283 N 
ATOM     15  C   UNL     1      35.226 -17.800 -21.638  0.00  0.00    +0.226 C 
ATOM     16  H   UNL     1      35.007 -19.468 -22.773  0.00  0.00    +0.155 HD
BRANCH  14  18
ATOM     17  N   UNL     1      32.698 -21.145 -19.672  0.00  0.00    -0.241 NA
ATOM     18  C   UNL     1      34.503 -20.093 -20.885  0.00  0.00    +0.070 C 
ATOM     19  C   UNL     1      35.427 -20.889 -20.217  0.00  0.00    +0.018 C 
ATOM     20  C   UNL     1      33.162 -20.257 -20.579  0.00  0.00    +0.113 C 
ATOM     21  C   UNL     1      34.987 -21.813 -19.275  0.00  0.00    +0.022 C 
ATOM     22  C   UNL     1      33.623 -21.901 -19.042  0.00  0.00    +0.099 C 
ENDBRANCH  14  18
ENDBRANCH  12  15
ENDBRANCH   1  12
TORSDOF 9
ENDMDL
MODEL 9
REMARK VINA RESULT:      -7.8      4.341      6.107
REMARK  Name = 4996
REMARK  9 active torsions:
REMARK  status: ('A' for Active; 'I' for Inactive)
REMARK    1  A    between atoms: C_1  and  C_2
REMARK    2  A    between atoms: C_1  and  C_12
REMARK    3  A    between atoms: C_2  and  C_3
REMARK    4  A    between atoms: C_3  and  C_4
REMARK    5  A    between atoms: C_4  and  C_5
REMARK    6  A    between atoms: C_5  and  C_8
REMARK    7  A    between atoms: N_7  and  O_10
REMARK    8  A    between atoms: C_12  and  C_15
REMARK    9  A    between atoms: N_14  and  C_18
REMARK                            x       y       z     vdW  Elec       q    Type
REMARK                         _______ _______ _______ _____ _____    ______ ____
ROOT
ATOM      1  C   UNL     1      34.197 -18.633 -21.720  0.00  0.00    +0.010 C 
ENDROOT
BRANCH   1   2
ATOM      2  C   UNL     1      34.554 -19.916 -20.962  0.00  0.00    +0.001 C 
BRANCH   2   3
ATOM      3  C   UNL     1      33.319 -20.529 -20.297  0.00  0.00    +0.001 C 
BRANCH   3   4
ATOM      4  C   UNL     1      33.697 -21.719 -19.412  0.00  0.00    +0.010 C 
BRANCH   4   5
ATOM      5  C   UNL     1      35.197 -22.009 -19.436  0.00  0.00    +0.087 C 
BRANCH   5   8
ATOM      6  O   UNL     1      35.414 -22.745 -17.162  0.00  0.00    -0.273 OA
ATOM      7  N   UNL     1      36.827 -21.081 -17.926  0.00  0.00    -0.197 N 
ATOM      8  C   UNL     1      35.813 -21.998 -18.052  0.00  0.00    +0.244 C 
ATOM      9  H   UNL     1      37.108 -20.507 -18.673  0.00  0.00    +0.182 HD
BRANCH   7  10
ATOM     10  O   UNL     1      37.439 -21.015 -16.666  0.00  0.00    -0.295 OA
ATOM     11  H   UNL     1      37.988 -21.804 -16.533  0.00  0.00    +0.241 HD
ENDBRANCH   7  10
ENDBRANCH   5   8
ENDBRANCH   4   5
ENDBRANCH   3   4
ENDBRANCH   2   3
ENDBRANCH   1   2
BRANCH   1  12
ATOM     12  C   UNL     1      35.300 -17.579 -21.630  0.00  0.00    +0.085 C 
BRANCH  12  15
ATOM     13  O   UNL     1      34.935 -15.647 -20.233  0.00  0.00    -0.275 OA
ATOM     14  N   UNL     1      34.143 -15.644 -22.445  0.00  0.00    -0.283 N 
ATOM     15  C   UNL     1      34.789 -16.175 -21.331  0.00  0.00    +0.226 C 
ATOM     16  H   UNL     1      34.105 -16.220 -23.241  0.00  0.00    +0.155 HD
BRANCH  14  18
ATOM     17  N   UNL     1      31.902 -12.779 -21.763  0.00  0.00    -0.241 NA
ATOM     18  C   UNL     1      33.536 -14.370 -22.563  0.00  0.00    +0.070 C 
ATOM     19  C   UNL     1      33.939 -13.474 -23.547  0.00  0.00    +0.018 C 
ATOM     20  C   UNL     1      32.522 -13.979 -21.704  0.00  0.00    +0.113 C 
ATOM     21  C   UNL     1      33.323 -12.230 -23.640  0.00  0.00    +0.022 C 
ATOM     22  C   UNL     1      32.319 -11.934 -22.732  0.00  0.00    +0.099 C 
ENDBRANCH  14  18
ENDBRANCH  12  15
ENDBRANCH   1  12
TORSDOF 9
ENDMDL
