MODEL 1
REMARK VINA RESULT:     -11.2      0.000      0.000
REMARK  Name = 25109292
REMARK  3 active torsions:
REMARK  status: ('A' for Active; 'I' for Inactive)
REMARK    1  A    between atoms: C_3  and  S_20
REMARK    2  A    between atoms: C_7  and  C_10
REMARK    3  A    between atoms: S_20  and  C_23
REMARK                            x       y       z     vdW  Elec       q    Type
REMARK                         _______ _______ _______ _____ _____    ______ ____
ROOT
ATOM      1  O   UNL     1      34.547 -22.958 -17.009  0.00  0.00    -0.425 OA
ATOM      2  N   UNL     1      36.763 -22.483 -17.050  0.00  0.00    -0.368 NA
ATOM      3  C   UNL     1      36.737 -24.685 -14.031  0.00  0.00    +0.091 C 
ATOM      4  C   UNL     1      36.490 -23.311 -15.987  0.00  0.00    +0.153 C 
ATOM      5  C   UNL     1      35.135 -23.603 -15.960  0.00  0.00    +0.174 C 
ATOM      6  C   UNL     1      37.323 -23.861 -15.002  0.00  0.00    +0.107 C 
ATOM      7  C   UNL     1      35.586 -22.312 -17.610  0.00  0.00    +0.282 C 
ATOM      8  C   UNL     1      35.363 -24.955 -14.038  0.00  0.00    +0.018 C 
ATOM      9  C   UNL     1      34.519 -24.415 -15.015  0.00  0.00    +0.041 C 
ENDROOT
BRANCH   7  10
ATOM     10  C   UNL     1      35.233 -21.536 -18.774  0.00  0.00    +0.066 C 
ATOM     11  C   UNL     1      35.869 -19.988 -20.540  0.00  0.00    +0.000 C 
ATOM     12  C   UNL     1      34.546 -20.027 -21.041  0.00  0.00    +0.000 C 
ATOM     13  C   UNL     1      36.196 -20.748 -19.406  0.00  0.00    +0.006 C 
ATOM     14  C   UNL     1      33.933 -21.575 -19.267  0.00  0.00    +0.006 C 
ATOM     15  C   UNL     1      33.589 -20.826 -20.394  0.00  0.00    +0.000 C 
ATOM     16  C   UNL     1      36.825 -19.189 -21.188  0.00  0.00    +0.000 C 
ATOM     17  C   UNL     1      34.218 -19.267 -22.176  0.00  0.00    +0.000 C 
ATOM     18  C   UNL     1      36.482 -18.440 -22.313  0.00  0.00    +0.000 C 
ATOM     19  C   UNL     1      35.181 -18.479 -22.806  0.00  0.00    +0.000 C 
ENDBRANCH   7  10
BRANCH   3  20
ATOM     20  S   UNL     1      37.745 -25.389 -12.786  0.00  0.00    +0.005 S 
ATOM     21  O   UNL     1      36.889 -26.183 -11.917  0.00  0.00    -0.169 OA
ATOM     22  O   UNL     1      38.908 -25.999 -13.412  0.00  0.00    -0.169 OA
BRANCH  20  23
ATOM     23  C   UNL     1      38.328 -23.993 -11.852  0.00  0.00    +0.156 C 
ATOM     24  C   UNL     1      37.194 -23.063 -11.479  0.00  0.00    +0.028 C 
ENDBRANCH  20  23
ENDBRANCH   3  20
TORSDOF 3
ENDMDL
MODEL 2
REMARK VINA RESULT:     -10.7      4.290      7.170
REMARK  Name = 25109292
REMARK  3 active torsions:
REMARK  status: ('A' for Active; 'I' for Inactive)
REMARK    1  A    between atoms: C_3  and  S_20
REMARK    2  A    between atoms: C_7  and  C_10
REMARK    3  A    between atoms: S_20  and  C_23
REMARK                            x       y       z     vdW  Elec       q    Type
REMARK                         _______ _______ _______ _____ _____    ______ ____
ROOT
ATOM      1  O   UNL     1      35.474 -17.812 -21.724  0.00  0.00    -0.425 OA
ATOM      2  N   UNL     1      33.247 -18.116 -21.429  0.00  0.00    -0.368 NA
ATOM      3  C   UNL     1      34.446 -21.211 -19.712  0.00  0.00    +0.091 C 
ATOM      4  C   UNL     1      33.932 -19.164 -20.863  0.00  0.00    +0.153 C 
ATOM      5  C   UNL     1      35.295 -18.981 -21.042  0.00  0.00    +0.174 C 
ATOM      6  C   UNL     1      33.484 -20.305 -20.181  0.00  0.00    +0.107 C 
ATOM      7  C   UNL     1      34.204 -17.357 -21.917  0.00  0.00    +0.282 C 
ATOM      8  C   UNL     1      35.815 -20.989 -19.915  0.00  0.00    +0.018 C 
ATOM      9  C   UNL     1      36.277 -19.855 -20.592  0.00  0.00    +0.041 C 
ENDROOT
BRANCH   7  10
ATOM     10  C   UNL     1      34.103 -16.108 -22.630  0.00  0.00    +0.066 C 
ATOM     11  C   UNL     1      33.684 -14.894 -24.697  0.00  0.00    +0.000 C 
ATOM     12  C   UNL     1      33.905 -13.673 -24.017  0.00  0.00    +0.000 C 
ATOM     13  C   UNL     1      33.787 -16.103 -23.990  0.00  0.00    +0.006 C 
ATOM     14  C   UNL     1      34.320 -14.907 -21.962  0.00  0.00    +0.006 C 
ATOM     15  C   UNL     1      34.222 -13.696 -22.650  0.00  0.00    +0.000 C 
ATOM     16  C   UNL     1      33.367 -14.872 -26.065  0.00  0.00    +0.000 C 
ATOM     17  C   UNL     1      33.802 -12.465 -24.725  0.00  0.00    +0.000 C 
ATOM     18  C   UNL     1      33.269 -13.662 -26.753  0.00  0.00    +0.000 C 
ATOM     19  C   UNL     1      33.487 -12.461 -26.084  0.00  0.00    +0.000 C 
ENDBRANCH   7  10
BRANCH   3  20
ATOM     20  S   UNL     1      33.925 -22.646 -18.858  0.00  0.00    +0.005 S 
ATOM     21  O   UNL     1      32.569 -22.413 -18.383  0.00  0.00    -0.169 OA
ATOM     22  O   UNL     1      34.215 -23.812 -19.678  0.00  0.00    -0.169 OA
BRANCH  20  23
ATOM     23  C   UNL     1      34.996 -22.726 -17.441  0.00  0.00    +0.156 C 
ATOM     24  C   UNL     1      34.259 -23.221 -16.216  0.00  0.00    +0.028 C 
ENDBRANCH  20  23
ENDBRANCH   3  20
TORSDOF 3
ENDMDL
MODEL 3
REMARK VINA RESULT:     -10.7      9.804     14.096
REMARK  Name = 25109292
REMARK  3 active torsions:
REMARK  status: ('A' for Active; 'I' for Inactive)
REMARK    1  A    between atoms: C_3  and  S_20
REMARK    2  A    between atoms: C_7  and  C_10
REMARK    3  A    between atoms: S_20  and  C_23
REMARK                            x       y       z     vdW  Elec       q    Type
REMARK                         _______ _______ _______ _____ _____    ______ ____
ROOT
ATOM      1  O   UNL     1      32.461 -12.965 -22.532  0.00  0.00    -0.425 OA
ATOM      2  N   UNL     1      33.976 -12.199 -24.035  0.00  0.00    -0.368 NA
ATOM      3  C   UNL     1      32.299  -8.952 -23.253  0.00  0.00    +0.091 C 
ATOM      4  C   UNL     1      33.208 -11.153 -23.582  0.00  0.00    +0.153 C 
ATOM      5  C   UNL     1      32.280 -11.619 -22.663  0.00  0.00    +0.174 C 
ATOM      6  C   UNL     1      33.228  -9.785 -23.893  0.00  0.00    +0.107 C 
ATOM      7  C   UNL     1      33.491 -13.233 -23.384  0.00  0.00    +0.282 C 
ATOM      8  C   UNL     1      31.377  -9.463 -22.330  0.00  0.00    +0.018 C 
ATOM      9  C   UNL     1      31.347 -10.825 -22.009  0.00  0.00    +0.041 C 
ENDROOT
BRANCH   7  10
ATOM     10  C   UNL     1      33.894 -14.618 -23.441  0.00  0.00    +0.066 C 
ATOM     11  C   UNL     1      34.691 -16.624 -22.319  0.00  0.00    +0.000 C 
ATOM     12  C   UNL     1      34.676 -17.313 -23.555  0.00  0.00    +0.000 C 
ATOM     13  C   UNL     1      34.298 -15.277 -22.279  0.00  0.00    +0.006 C 
ATOM     14  C   UNL     1      33.878 -15.295 -24.656  0.00  0.00    +0.006 C 
ATOM     15  C   UNL     1      34.267 -16.635 -24.715  0.00  0.00    +0.000 C 
ATOM     16  C   UNL     1      35.100 -17.302 -21.160  0.00  0.00    +0.000 C 
ATOM     17  C   UNL     1      35.069 -18.660 -23.596  0.00  0.00    +0.000 C 
ATOM     18  C   UNL     1      35.488 -18.641 -21.218  0.00  0.00    +0.000 C 
ATOM     19  C   UNL     1      35.474 -19.318 -22.433  0.00  0.00    +0.000 C 
ENDBRANCH   7  10
BRANCH   3  20
ATOM     20  S   UNL     1      32.293  -7.241 -23.616  0.00  0.00    +0.005 S 
ATOM     21  O   UNL     1      33.635  -6.872 -24.044  0.00  0.00    -0.169 OA
ATOM     22  O   UNL     1      31.154  -6.946 -24.471  0.00  0.00    -0.169 OA
BRANCH  20  23
ATOM     23  C   UNL     1      31.984  -6.461 -22.048  0.00  0.00    +0.156 C 
ATOM     24  C   UNL     1      30.747  -5.591 -22.096  0.00  0.00    +0.028 C 
ENDBRANCH  20  23
ENDBRANCH   3  20
TORSDOF 3
ENDMDL
MODEL 4
REMARK VINA RESULT:     -10.6      7.342     11.884
REMARK  Name = 25109292
REMARK  3 active torsions:
REMARK  status: ('A' for Active; 'I' for Inactive)
REMARK    1  A    between atoms: C_3  and  S_20
REMARK    2  A    between atoms: C_7  and  C_10
REMARK    3  A    between atoms: S_20  and  C_23
REMARK                            x       y       z     vdW  Elec       q    Type
REMARK                         _______ _______ _______ _____ _____    ______ ____
ROOT
ATOM      1  O   UNL     1      33.363 -15.827 -21.291  0.00  0.00    -0.425 OA
ATOM      2  N   UNL     1      34.918 -15.759 -22.940  0.00  0.00    -0.368 NA
ATOM      3  C   UNL     1      33.330 -12.433 -23.557  0.00  0.00    +0.091 C 
ATOM      4  C   UNL     1      34.176 -14.602 -22.960  0.00  0.00    +0.153 C 
ATOM      5  C   UNL     1      33.225 -14.641 -21.952  0.00  0.00    +0.174 C 
ATOM      6  C   UNL     1      34.240 -13.474 -23.790  0.00  0.00    +0.107 C 
ATOM      7  C   UNL     1      34.394 -16.436 -21.942  0.00  0.00    +0.282 C 
ATOM      8  C   UNL     1      32.383 -12.512 -22.528  0.00  0.00    +0.018 C 
ATOM      9  C   UNL     1      32.308 -13.630 -21.691  0.00  0.00    +0.041 C 
ENDROOT
BRANCH   7  10
ATOM     10  C   UNL     1      34.756 -17.737 -21.433  0.00  0.00    +0.066 C 
ATOM     11  C   UNL     1      34.106 -19.865 -20.449  0.00  0.00    +0.000 C 
ATOM     12  C   UNL     1      35.462 -20.270 -20.445  0.00  0.00    +0.000 C 
ATOM     13  C   UNL     1      33.769 -18.596 -20.946  0.00  0.00    +0.006 C 
ATOM     14  C   UNL     1      36.089 -18.135 -21.430  0.00  0.00    +0.006 C 
ATOM     15  C   UNL     1      36.442 -19.394 -20.939  0.00  0.00    +0.000 C 
ATOM     16  C   UNL     1      33.126 -20.742 -19.955  0.00  0.00    +0.000 C 
ATOM     17  C   UNL     1      35.798 -21.540 -19.948  0.00  0.00    +0.000 C 
ATOM     18  C   UNL     1      33.479 -21.999 -19.465  0.00  0.00    +0.000 C 
ATOM     19  C   UNL     1      34.812 -22.397 -19.461  0.00  0.00    +0.000 C 
ENDBRANCH   7  10
BRANCH   3  20
ATOM     20  S   UNL     1      33.380 -11.010 -24.572  0.00  0.00    +0.005 S 
ATOM     21  O   UNL     1      33.196 -11.440 -25.950  0.00  0.00    -0.169 OA
ATOM     22  O   UNL     1      32.501  -9.997 -24.006  0.00  0.00    -0.169 OA
BRANCH  20  23
ATOM     23  C   UNL     1      35.044 -10.408 -24.403  0.00  0.00    +0.156 C 
ATOM     24  C   UNL     1      35.713 -10.240 -25.750  0.00  0.00    +0.028 C 
ENDBRANCH  20  23
ENDBRANCH   3  20
TORSDOF 3
ENDMDL
MODEL 5
REMARK VINA RESULT:     -10.6      8.244     11.942
REMARK  Name = 25109292
REMARK  3 active torsions:
REMARK  status: ('A' for Active; 'I' for Inactive)
REMARK    1  A    between atoms: C_3  and  S_20
REMARK    2  A    between atoms: C_7  and  C_10
REMARK    3  A    between atoms: S_20  and  C_23
REMARK                            x       y       z     vdW  Elec       q    Type
REMARK                         _______ _______ _______ _____ _____    ______ ____
ROOT
ATOM      1  O   UNL     1      33.319 -13.470 -24.678  0.00  0.00    -0.425 OA
ATOM      2  N   UNL     1      34.017 -13.749 -22.539  0.00  0.00    -0.368 NA
ATOM      3  C   UNL     1      34.645 -17.222 -23.770  0.00  0.00    +0.091 C 
ATOM      4  C   UNL     1      34.153 -14.932 -23.225  0.00  0.00    +0.153 C 
ATOM      5  C   UNL     1      33.727 -14.765 -24.533  0.00  0.00    +0.174 C 
ATOM      6  C   UNL     1      34.627 -16.189 -22.821  0.00  0.00    +0.107 C 
ATOM      7  C   UNL     1      33.524 -12.931 -23.443  0.00  0.00    +0.282 C 
ATOM      8  C   UNL     1      34.204 -17.011 -25.083  0.00  0.00    +0.018 C 
ATOM      9  C   UNL     1      33.730 -15.762 -25.501  0.00  0.00    +0.041 C 
ENDROOT
BRANCH   7  10
ATOM     10  C   UNL     1      33.166 -11.539 -23.315  0.00  0.00    +0.066 C 
ATOM     11  C   UNL     1      33.653  -9.195 -23.746  0.00  0.00    +0.000 C 
ATOM     12  C   UNL     1      32.467  -8.831 -23.066  0.00  0.00    +0.000 C 
ATOM     13  C   UNL     1      33.989 -10.554 -23.862  0.00  0.00    +0.006 C 
ATOM     14  C   UNL     1      32.000 -11.181 -22.647  0.00  0.00    +0.006 C 
ATOM     15  C   UNL     1      31.651  -9.835 -22.522  0.00  0.00    +0.000 C 
ATOM     16  C   UNL     1      34.470  -8.191 -24.291  0.00  0.00    +0.000 C 
ATOM     17  C   UNL     1      32.132  -7.472 -22.951  0.00  0.00    +0.000 C 
ATOM     18  C   UNL     1      34.121  -6.846 -24.166  0.00  0.00    +0.000 C 
ATOM     19  C   UNL     1      32.955  -6.487 -23.497  0.00  0.00    +0.000 C 
ENDBRANCH   7  10
BRANCH   3  20
ATOM     20  S   UNL     1      35.228 -18.803 -23.303  0.00  0.00    +0.005 S 
ATOM     21  O   UNL     1      34.979 -19.714 -24.410  0.00  0.00    -0.169 OA
ATOM     22  O   UNL     1      36.574 -18.667 -22.765  0.00  0.00    -0.169 OA
BRANCH  20  23
ATOM     23  C   UNL     1      34.173 -19.278 -21.953  0.00  0.00    +0.156 C 
ATOM     24  C   UNL     1      34.972 -19.830 -20.793  0.00  0.00    +0.028 C 
ENDBRANCH  20  23
ENDBRANCH   3  20
TORSDOF 3
ENDMDL
MODEL 6
REMARK VINA RESULT:     -10.5     10.484     14.832
REMARK  Name = 25109292
REMARK  3 active torsions:
REMARK  status: ('A' for Active; 'I' for Inactive)
REMARK    1  A    between atoms: C_3  and  S_20
REMARK    2  A    between atoms: C_7  and  C_10
REMARK    3  A    between atoms: S_20  and  C_23
REMARK                            x       y       z     vdW  Elec       q    Type
REMARK                         _______ _______ _______ _____ _____    ______ ____
ROOT
ATOM      1  O   UNL     1      34.474 -11.517 -24.392  0.00  0.00    -0.425 OA
ATOM      2  N   UNL     1      32.505 -11.791 -23.303  0.00  0.00    -0.368 NA
ATOM      3  C   UNL     1      32.728  -8.067 -23.088  0.00  0.00    +0.091 C 
ATOM      4  C   UNL     1      32.817 -10.454 -23.357  0.00  0.00    +0.153 C 
ATOM      5  C   UNL     1      34.021 -10.283 -24.023  0.00  0.00    +0.174 C 
ATOM      6  C   UNL     1      32.143  -9.323 -22.872  0.00  0.00    +0.107 C 
ATOM      7  C   UNL     1      33.512 -12.362 -23.926  0.00  0.00    +0.282 C 
ATOM      8  C   UNL     1      33.947  -7.938 -23.765  0.00  0.00    +0.018 C 
ATOM      9  C   UNL     1      34.630  -9.056 -24.255  0.00  0.00    +0.041 C 
ENDROOT
BRANCH   7  10
ATOM     10  C   UNL     1      33.747 -13.762 -24.187  0.00  0.00    +0.066 C 
ATOM     11  C   UNL     1      34.615 -15.918 -23.469  0.00  0.00    +0.000 C 
ATOM     12  C   UNL     1      34.203 -16.486 -24.698  0.00  0.00    +0.000 C 
ATOM     13  C   UNL     1      34.380 -14.554 -23.229  0.00  0.00    +0.006 C 
ATOM     14  C   UNL     1      33.341 -14.320 -25.395  0.00  0.00    +0.006 C 
ATOM     15  C   UNL     1      33.567 -15.673 -25.651  0.00  0.00    +0.000 C 
ATOM     16  C   UNL     1      35.251 -16.730 -22.516  0.00  0.00    +0.000 C 
ATOM     17  C   UNL     1      34.438 -17.849 -24.938  0.00  0.00    +0.000 C 
ATOM     18  C   UNL     1      35.477 -18.083 -22.771  0.00  0.00    +0.000 C 
ATOM     19  C   UNL     1      35.071 -18.641 -23.979  0.00  0.00    +0.000 C 
ENDBRANCH   7  10
BRANCH   3  20
ATOM     20  S   UNL     1      31.916  -6.634 -22.497  0.00  0.00    +0.005 S 
ATOM     21  O   UNL     1      30.482  -6.853 -22.617  0.00  0.00    -0.169 OA
ATOM     22  O   UNL     1      32.487  -6.267 -21.210  0.00  0.00    -0.169 OA
BRANCH  20  23
ATOM     23  C   UNL     1      32.375  -5.363 -23.652  0.00  0.00    +0.156 C 
ATOM     24  C   UNL     1      31.316  -5.171 -24.715  0.00  0.00    +0.028 C 
ENDBRANCH  20  23
ENDBRANCH   3  20
TORSDOF 3
ENDMDL
MODEL 7
REMARK VINA RESULT:     -10.4      9.995     14.191
REMARK  Name = 25109292
REMARK  3 active torsions:
REMARK  status: ('A' for Active; 'I' for Inactive)
REMARK    1  A    between atoms: C_3  and  S_20
REMARK    2  A    between atoms: C_7  and  C_10
REMARK    3  A    between atoms: S_20  and  C_23
REMARK                            x       y       z     vdW  Elec       q    Type
REMARK                         _______ _______ _______ _____ _____    ______ ____
ROOT
ATOM      1  O   UNL     1      32.450 -12.778 -22.169  0.00  0.00    -0.425 OA
ATOM      2  N   UNL     1      33.933 -12.131 -23.757  0.00  0.00    -0.368 NA
ATOM      3  C   UNL     1      32.210  -8.852 -23.257  0.00  0.00    +0.091 C 
ATOM      4  C   UNL     1      33.153 -11.059 -23.393  0.00  0.00    +0.153 C 
ATOM      5  C   UNL     1      32.245 -11.452 -22.422  0.00  0.00    +0.174 C 
ATOM      6  C   UNL     1      33.145  -9.727 -23.830  0.00  0.00    +0.107 C 
ATOM      7  C   UNL     1      33.474 -13.107 -23.007  0.00  0.00    +0.282 C 
ATOM      8  C   UNL     1      31.309  -9.290 -22.278  0.00  0.00    +0.018 C 
ATOM      9  C   UNL     1      31.306 -10.615 -21.831  0.00  0.00    +0.041 C 
ENDROOT
BRANCH   7  10
ATOM     10  C   UNL     1      33.899 -14.485 -22.941  0.00  0.00    +0.066 C 
ATOM     11  C   UNL     1      34.249 -16.632 -24.031  0.00  0.00    +0.000 C 
ATOM     12  C   UNL     1      34.730 -17.164 -22.811  0.00  0.00    +0.000 C 
ATOM     13  C   UNL     1      33.837 -15.290 -24.079  0.00  0.00    +0.006 C 
ATOM     14  C   UNL     1      34.374 -15.008 -21.742  0.00  0.00    +0.006 C 
ATOM     15  C   UNL     1      34.787 -16.340 -21.676  0.00  0.00    +0.000 C 
ATOM     16  C   UNL     1      34.192 -17.456 -25.166  0.00  0.00    +0.000 C 
ATOM     17  C   UNL     1      35.142 -18.506 -22.763  0.00  0.00    +0.000 C 
ATOM     18  C   UNL     1      34.605 -18.787 -25.100  0.00  0.00    +0.000 C 
ATOM     19  C   UNL     1      35.078 -19.311 -23.901  0.00  0.00    +0.000 C 
ENDBRANCH   7  10
BRANCH   3  20
ATOM     20  S   UNL     1      32.171  -7.182 -23.777  0.00  0.00    +0.005 S 
ATOM     21  O   UNL     1      33.471  -6.863 -24.348  0.00  0.00    -0.169 OA
ATOM     22  O   UNL     1      30.963  -6.962 -24.559  0.00  0.00    -0.169 OA
BRANCH  20  23
ATOM     23  C   UNL     1      31.992  -6.257 -22.270  0.00  0.00    +0.156 C 
ATOM     24  C   UNL     1      30.658  -5.547 -22.210  0.00  0.00    +0.028 C 
ENDBRANCH  20  23
ENDBRANCH   3  20
TORSDOF 3
ENDMDL
MODEL 8
REMARK VINA RESULT:     -10.2      3.939      6.324
REMARK  Name = 25109292
REMARK  3 active torsions:
REMARK  status: ('A' for Active; 'I' for Inactive)
REMARK    1  A    between atoms: C_3  and  S_20
REMARK    2  A    between atoms: C_7  and  C_10
REMARK    3  A    between atoms: S_20  and  C_23
REMARK                            x       y       z     vdW  Elec       q    Type
REMARK                         _______ _______ _______ _____ _____    ______ ____
ROOT
ATOM      1  O   UNL     1      35.547 -18.923 -21.291  0.00  0.00    -0.425 OA
ATOM      2  N   UNL     1      33.310 -19.180 -21.029  0.00  0.00    -0.368 NA
ATOM      3  C   UNL     1      34.434 -22.061 -18.931  0.00  0.00    +0.091 C 
ATOM      4  C   UNL     1      33.970 -20.158 -20.325  0.00  0.00    +0.153 C 
ATOM      5  C   UNL     1      35.339 -20.004 -20.484  0.00  0.00    +0.174 C 
ATOM      6  C   UNL     1      33.494 -21.211 -19.530  0.00  0.00    +0.107 C 
ATOM      7  C   UNL     1      34.286 -18.488 -21.573  0.00  0.00    +0.282 C 
ATOM      8  C   UNL     1      35.810 -21.871 -19.117  0.00  0.00    +0.018 C 
ATOM      9  C   UNL     1      36.300 -20.825 -19.906  0.00  0.00    +0.041 C 
ENDROOT
BRANCH   7  10
ATOM     10  C   UNL     1      34.216 -17.329 -22.429  0.00  0.00    +0.066 C 
ATOM     11  C   UNL     1      33.630 -14.990 -22.758  0.00  0.00    +0.000 C 
ATOM     12  C   UNL     1      34.082 -15.073 -24.097  0.00  0.00    +0.000 C 
ATOM     13  C   UNL     1      33.704 -16.127 -21.937  0.00  0.00    +0.006 C 
ATOM     14  C   UNL     1      34.660 -17.410 -23.745  0.00  0.00    +0.006 C 
ATOM     15  C   UNL     1      34.594 -16.290 -24.576  0.00  0.00    +0.000 C 
ATOM     16  C   UNL     1      33.118 -13.773 -22.280  0.00  0.00    +0.000 C 
ATOM     17  C   UNL     1      34.008 -13.936 -24.918  0.00  0.00    +0.000 C 
ATOM     18  C   UNL     1      33.052 -12.654 -23.110  0.00  0.00    +0.000 C 
ATOM     19  C   UNL     1      33.495 -12.736 -24.426  0.00  0.00    +0.000 C 
ENDBRANCH   7  10
BRANCH   3  20
ATOM     20  S   UNL     1      33.877 -23.385 -17.932  0.00  0.00    +0.005 S 
ATOM     21  O   UNL     1      33.607 -24.517 -18.805  0.00  0.00    -0.169 OA
ATOM     22  O   UNL     1      34.786 -23.539 -16.806  0.00  0.00    -0.169 OA
BRANCH  20  23
ATOM     23  C   UNL     1      32.326 -22.816 -17.275  0.00  0.00    +0.156 C 
ATOM     24  C   UNL     1      32.034 -23.437 -15.927  0.00  0.00    +0.028 C 
ENDBRANCH  20  23
ENDBRANCH   3  20
TORSDOF 3
ENDMDL
MODEL 9
REMARK VINA RESULT:     -10.1      8.438     11.783
REMARK  Name = 25109292
REMARK  3 active torsions:
REMARK  status: ('A' for Active; 'I' for Inactive)
REMARK    1  A    between atoms: C_3  and  S_20
REMARK    2  A    between atoms: C_7  and  C_10
REMARK    3  A    between atoms: S_20  and  C_23
REMARK                            x       y       z     vdW  Elec       q    Type
REMARK                         _______ _______ _______ _____ _____    ______ ____
ROOT
ATOM      1  O   UNL     1      32.703 -13.124 -21.827  0.00  0.00    -0.425 OA
ATOM      2  N   UNL     1      34.059 -13.305 -23.635  0.00  0.00    -0.368 NA
ATOM      3  C   UNL     1      34.343 -16.818 -22.391  0.00  0.00    +0.091 C 
ATOM      4  C   UNL     1      33.997 -14.514 -22.984  0.00  0.00    +0.153 C 
ATOM      5  C   UNL     1      33.168 -14.407 -21.877  0.00  0.00    +0.174 C 
ATOM      6  C   UNL     1      34.606 -15.747 -23.258  0.00  0.00    +0.107 C 
ATOM      7  C   UNL     1      33.280 -12.532 -22.910  0.00  0.00    +0.282 C 
ATOM      8  C   UNL     1      33.500 -16.667 -21.283  0.00  0.00    +0.018 C 
ATOM      9  C   UNL     1      32.884 -15.443 -20.997  0.00  0.00    +0.041 C 
ENDROOT
BRANCH   7  10
ATOM     10  C   UNL     1      32.948 -11.140 -23.097  0.00  0.00    +0.066 C 
ATOM     11  C   UNL     1      33.572  -8.913 -23.851  0.00  0.00    +0.000 C 
ATOM     12  C   UNL     1      32.299  -8.432 -23.462  0.00  0.00    +0.000 C 
ATOM     13  C   UNL     1      33.881 -10.269 -23.662  0.00  0.00    +0.006 C 
ATOM     14  C   UNL     1      31.697 -10.668 -22.715  0.00  0.00    +0.006 C 
ATOM     15  C   UNL     1      31.372  -9.322 -22.895  0.00  0.00    +0.000 C 
ATOM     16  C   UNL     1      34.498  -8.023 -24.418  0.00  0.00    +0.000 C 
ATOM     17  C   UNL     1      31.990  -7.076 -23.651  0.00  0.00    +0.000 C 
ATOM     18  C   UNL     1      34.174  -6.678 -24.598  0.00  0.00    +0.000 C 
ATOM     19  C   UNL     1      32.923  -6.205 -24.215  0.00  0.00    +0.000 C 
ENDBRANCH   7  10
BRANCH   3  20
ATOM     20  S   UNL     1      35.086 -18.371 -22.701  0.00  0.00    +0.005 S 
ATOM     21  O   UNL     1      34.802 -18.733 -24.082  0.00  0.00    -0.169 OA
ATOM     22  O   UNL     1      36.462 -18.337 -22.229  0.00  0.00    -0.169 OA
BRANCH  20  23
ATOM     23  C   UNL     1      34.202 -19.498 -21.647  0.00  0.00    +0.156 C 
ATOM     24  C   UNL     1      35.110 -20.106 -20.600  0.00  0.00    +0.028 C 
ENDBRANCH  20  23
ENDBRANCH   3  20
TORSDOF 3
ENDMDL
