MODEL 1
REMARK VINA RESULT:      -8.8      0.000      0.000
REMARK  Name = 447864
REMARK  4 active torsions:
REMARK  status: ('A' for Active; 'I' for Inactive)
REMARK    1  A    between atoms: N_2  and  C1*_12
REMARK    2  A    between atoms: C3*_13  and  O3*_16
REMARK    3  A    between atoms: C4*_15  and  C5*_18
REMARK    4  A    between atoms: C5*_18  and  O5*_19
REMARK                            x       y       z     vdW  Elec       q    Type
REMARK                         _______ _______ _______ _____ _____    ______ ____
ROOT
ATOM      1  F   UNL     1      37.592 -22.089 -17.381  0.00  0.00    -0.098 F 
ATOM      2  N   UNL     1      34.435 -20.440 -20.432  0.00  0.00    -0.238 N 
ATOM      3  N   UNL     1      32.737 -21.612 -19.578  0.00  0.00    -0.240 NA
ATOM      4  N   UNL     1      36.222 -21.167 -18.955  0.00  0.00    -0.300 NA
ATOM      5  N   UNL     1      35.410 -22.761 -17.294  0.00  0.00    -0.301 NA
ATOM      6  C   UNL     1      34.952 -21.159 -19.389  0.00  0.00    +0.222 C 
ATOM      7  C   UNL     1      33.099 -20.748 -20.503  0.00  0.00    +0.224 C 
ATOM      8  C   UNL     1      33.885 -21.876 -18.875  0.00  0.00    +0.167 C 
ATOM      9  C   UNL     1      34.149 -22.702 -17.786  0.00  0.00    +0.213 C 
ATOM     10  C   UNL     1      36.354 -22.001 -17.901  0.00  0.00    +0.300 C 
ATOM     11  N   UNL     1      33.126 -23.466 -17.199  0.00  0.00    -0.331 N 
ATOM     12  H   UNL     1      33.324 -24.046 -16.429  0.00  0.00    +0.145 HD
ATOM     13  H   UNL     1      32.209 -23.419 -17.557  0.00  0.00    +0.145 HD
ENDROOT
BRANCH   2  15
ATOM     14  O4* UNL     1      35.497 -18.324 -20.590  0.00  0.00    -0.335 OA
ATOM     15  C1* UNL     1      35.154 -19.522 -21.308  0.00  0.00    +0.198 C 
ATOM     16  C3* UNL     1      35.014 -17.755 -22.853  0.00  0.00    +0.144 C 
ATOM     17  C2* UNL     1      34.371 -19.086 -22.538  0.00  0.00    +0.083 C 
ATOM     18  C4* UNL     1      35.345 -17.194 -21.474  0.00  0.00    +0.173 C 
BRANCH  16  19
ATOM     19  O3* UNL     1      36.221 -17.997 -23.573  0.00  0.00    -0.382 OA
ATOM     20  H3* UNL     1      36.624 -18.822 -23.261  0.00  0.00    +0.210 HD
ENDBRANCH  16  19
BRANCH  18  21
ATOM     21  C5* UNL     1      34.239 -16.307 -20.921  0.00  0.00    +0.169 C 
BRANCH  21  22
ATOM     22  O5* UNL     1      34.831 -15.199 -20.264  0.00  0.00    -0.379 OA
ATOM     23  H5* UNL     1      34.136 -14.612 -19.930  0.00  0.00    +0.211 HD
ENDBRANCH  21  22
ENDBRANCH  18  21
ENDBRANCH   2  15
TORSDOF 4
ENDMDL
MODEL 2
REMARK VINA RESULT:      -8.6      5.455      7.969
REMARK  Name = 447864
REMARK  4 active torsions:
REMARK  status: ('A' for Active; 'I' for Inactive)
REMARK    1  A    between atoms: N_2  and  C1*_12
REMARK    2  A    between atoms: C3*_13  and  O3*_16
REMARK    3  A    between atoms: C4*_15  and  C5*_18
REMARK    4  A    between atoms: C5*_18  and  O5*_19
REMARK                            x       y       z     vdW  Elec       q    Type
REMARK                         _______ _______ _______ _____ _____    ______ ____
ROOT
ATOM      1  F   UNL     1      34.166 -22.420 -19.305  0.00  0.00    -0.098 F 
ATOM      2  N   UNL     1      34.466 -23.697 -14.803  0.00  0.00    -0.238 N 
ATOM      3  N   UNL     1      32.260 -23.646 -14.459  0.00  0.00    -0.240 NA
ATOM      4  N   UNL     1      34.533 -23.048 -17.143  0.00  0.00    -0.300 NA
ATOM      5  N   UNL     1      32.291 -22.653 -18.022  0.00  0.00    -0.301 NA
ATOM      6  C   UNL     1      33.902 -23.327 -15.993  0.00  0.00    +0.222 C 
ATOM      7  C   UNL     1      33.436 -23.877 -13.913  0.00  0.00    +0.224 C 
ATOM      8  C   UNL     1      32.537 -23.302 -15.758  0.00  0.00    +0.167 C 
ATOM      9  C   UNL     1      31.721 -22.948 -16.829  0.00  0.00    +0.213 C 
ATOM     10  C   UNL     1      33.642 -22.720 -18.103  0.00  0.00    +0.300 C 
ATOM     11  N   UNL     1      30.324 -22.898 -16.681  0.00  0.00    -0.331 N 
ATOM     12  H   UNL     1      29.757 -22.647 -17.445  0.00  0.00    +0.145 HD
ATOM     13  H   UNL     1      29.913 -23.115 -15.813  0.00  0.00    +0.145 HD
ENDROOT
BRANCH   2  15
ATOM     14  O4* UNL     1      36.487 -24.714 -15.518  0.00  0.00    -0.335 OA
ATOM     15  C1* UNL     1      35.887 -23.868 -14.520  0.00  0.00    +0.198 C 
ATOM     16  C3* UNL     1      37.539 -25.127 -13.419  0.00  0.00    +0.144 C 
ATOM     17  C2* UNL     1      36.185 -24.504 -13.170  0.00  0.00    +0.083 C 
ATOM     18  C4* UNL     1      37.455 -25.570 -14.876  0.00  0.00    +0.173 C 
BRANCH  16  19
ATOM     19  O3* UNL     1      38.534 -24.114 -13.285  0.00  0.00    -0.382 OA
ATOM     20  H3* UNL     1      38.143 -23.330 -12.869  0.00  0.00    +0.210 HD
ENDBRANCH  16  19
BRANCH  18  21
ATOM     21  C5* UNL     1      36.983 -27.010 -15.025  0.00  0.00    +0.169 C 
BRANCH  21  22
ATOM     22  O5* UNL     1      36.717 -27.261 -16.394  0.00  0.00    -0.379 OA
ATOM     23  H5* UNL     1      35.769 -27.149 -16.565  0.00  0.00    +0.211 HD
ENDBRANCH  21  22
ENDBRANCH  18  21
ENDBRANCH   2  15
TORSDOF 4
ENDMDL
MODEL 3
REMARK VINA RESULT:      -8.5      5.827      8.162
REMARK  Name = 447864
REMARK  4 active torsions:
REMARK  status: ('A' for Active; 'I' for Inactive)
REMARK    1  A    between atoms: N_2  and  C1*_12
REMARK    2  A    between atoms: C3*_13  and  O3*_16
REMARK    3  A    between atoms: C4*_15  and  C5*_18
REMARK    4  A    between atoms: C5*_18  and  O5*_19
REMARK                            x       y       z     vdW  Elec       q    Type
REMARK                         _______ _______ _______ _____ _____    ______ ____
ROOT
ATOM      1  F   UNL     1      34.518 -22.509 -19.137  0.00  0.00    -0.098 F 
ATOM      2  N   UNL     1      34.271 -23.987 -14.694  0.00  0.00    -0.238 N 
ATOM      3  N   UNL     1      32.056 -23.742 -14.550  0.00  0.00    -0.240 NA
ATOM      4  N   UNL     1      34.619 -23.255 -16.984  0.00  0.00    -0.300 NA
ATOM      5  N   UNL     1      32.516 -22.616 -18.043  0.00  0.00    -0.301 NA
ATOM      6  C   UNL     1      33.859 -23.518 -15.911  0.00  0.00    +0.222 C 
ATOM      7  C   UNL     1      33.150 -24.105 -13.912  0.00  0.00    +0.224 C 
ATOM      8  C   UNL     1      32.485 -23.374 -15.800  0.00  0.00    +0.167 C 
ATOM      9  C   UNL     1      31.810 -22.903 -16.923  0.00  0.00    +0.213 C 
ATOM     10  C   UNL     1      33.857 -22.807 -18.004  0.00  0.00    +0.300 C 
ATOM     11  N   UNL     1      30.416 -22.727 -16.901  0.00  0.00    -0.331 N 
ATOM     12  H   UNL     1      29.949 -22.394 -17.700  0.00  0.00    +0.145 HD
ATOM     13  H   UNL     1      29.906 -22.939 -16.085  0.00  0.00    +0.145 HD
ENDROOT
BRANCH   2  15
ATOM     14  O4* UNL     1      35.626 -25.103 -13.097  0.00  0.00    -0.335 OA
ATOM     15  C1* UNL     1      35.637 -24.303 -14.292  0.00  0.00    +0.198 C 
ATOM     16  C3* UNL     1      37.522 -23.660 -13.041  0.00  0.00    +0.144 C 
ATOM     17  C2* UNL     1      36.501 -23.085 -13.995  0.00  0.00    +0.083 C 
ATOM     18  C4* UNL     1      36.719 -24.689 -12.251  0.00  0.00    +0.173 C 
BRANCH  16  19
ATOM     19  O3* UNL     1      38.528 -24.323 -13.804  0.00  0.00    -0.382 OA
ATOM     20  H3* UNL     1      38.779 -25.149 -13.360  0.00  0.00    +0.210 HD
ENDBRANCH  16  19
BRANCH  18  21
ATOM     21  C5* UNL     1      36.134 -24.116 -10.968  0.00  0.00    +0.169 C 
BRANCH  21  22
ATOM     22  O5* UNL     1      35.303 -25.097 -10.371  0.00  0.00    -0.379 OA
ATOM     23  H5* UNL     1      35.734 -25.963 -10.428  0.00  0.00    +0.211 HD
ENDBRANCH  21  22
ENDBRANCH  18  21
ENDBRANCH   2  15
TORSDOF 4
ENDMDL
MODEL 4
REMARK VINA RESULT:      -8.4      7.263      8.951
REMARK  Name = 447864
REMARK  4 active torsions:
REMARK  status: ('A' for Active; 'I' for Inactive)
REMARK    1  A    between atoms: N_2  and  C1*_12
REMARK    2  A    between atoms: C3*_13  and  O3*_16
REMARK    3  A    between atoms: C4*_15  and  C5*_18
REMARK    4  A    between atoms: C5*_18  and  O5*_19
REMARK                            x       y       z     vdW  Elec       q    Type
REMARK                         _______ _______ _______ _____ _____    ______ ____
ROOT
ATOM      1  F   UNL     1      30.044 -24.399 -12.972  0.00  0.00    -0.098 F 
ATOM      2  N   UNL     1      34.516 -24.292 -14.379  0.00  0.00    -0.238 N 
ATOM      3  N   UNL     1      34.065 -23.289 -16.322  0.00  0.00    -0.240 NA
ATOM      4  N   UNL     1      32.271 -24.447 -13.463  0.00  0.00    -0.300 NA
ATOM      5  N   UNL     1      30.621 -23.493 -14.988  0.00  0.00    -0.301 NA
ATOM      6  C   UNL     1      33.162 -24.104 -14.406  0.00  0.00    +0.222 C 
ATOM      7  C   UNL     1      35.013 -23.784 -15.553  0.00  0.00    +0.224 C 
ATOM      8  C   UNL     1      32.904 -23.482 -15.617  0.00  0.00    +0.167 C 
ATOM      9  C   UNL     1      31.575 -23.175 -15.895  0.00  0.00    +0.213 C 
ATOM     10  C   UNL     1      31.023 -24.101 -13.845  0.00  0.00    +0.300 C 
ATOM     11  N   UNL     1      31.222 -22.541 -17.099  0.00  0.00    -0.331 N 
ATOM     12  H   UNL     1      30.279 -22.329 -17.286  0.00  0.00    +0.145 HD
ATOM     13  H   UNL     1      31.918 -22.309 -17.756  0.00  0.00    +0.145 HD
ENDROOT
BRANCH   2  15
ATOM     14  O4* UNL     1      35.347 -24.041 -12.170  0.00  0.00    -0.335 OA
ATOM     15  C1* UNL     1      35.295 -24.913 -13.313  0.00  0.00    +0.198 C 
ATOM     16  C3* UNL     1      37.414 -25.216 -12.340  0.00  0.00    +0.144 C 
ATOM     17  C2* UNL     1      36.735 -25.227 -13.690  0.00  0.00    +0.083 C 
ATOM     18  C4* UNL     1      36.662 -24.126 -11.582  0.00  0.00    +0.173 C 
BRANCH  16  19
ATOM     19  O3* UNL     1      37.188 -26.476 -11.711  0.00  0.00    -0.382 OA
ATOM     20  H3* UNL     1      36.585 -27.006 -12.255  0.00  0.00    +0.210 HD
ENDBRANCH  16  19
BRANCH  18  21
ATOM     21  C5* UNL     1      37.325 -22.761 -11.708  0.00  0.00    +0.169 C 
BRANCH  21  22
ATOM     22  O5* UNL     1      38.731 -22.936 -11.682  0.00  0.00    -0.379 OA
ATOM     23  H5* UNL     1      38.962 -23.768 -12.123  0.00  0.00    +0.211 HD
ENDBRANCH  21  22
ENDBRANCH  18  21
ENDBRANCH   2  15
TORSDOF 4
ENDMDL
MODEL 5
REMARK VINA RESULT:      -8.4      6.199      8.489
REMARK  Name = 447864
REMARK  4 active torsions:
REMARK  status: ('A' for Active; 'I' for Inactive)
REMARK    1  A    between atoms: N_2  and  C1*_12
REMARK    2  A    between atoms: C3*_13  and  O3*_16
REMARK    3  A    between atoms: C4*_15  and  C5*_18
REMARK    4  A    between atoms: C5*_18  and  O5*_19
REMARK                            x       y       z     vdW  Elec       q    Type
REMARK                         _______ _______ _______ _____ _____    ______ ____
ROOT
ATOM      1  F   UNL     1      31.446 -24.377 -13.974  0.00  0.00    -0.098 F 
ATOM      2  N   UNL     1      35.936 -23.480 -14.990  0.00  0.00    -0.238 N 
ATOM      3  N   UNL     1      35.507 -22.759 -17.059  0.00  0.00    -0.240 NA
ATOM      4  N   UNL     1      33.679 -24.011 -14.262  0.00  0.00    -0.300 NA
ATOM      5  N   UNL     1      32.047 -23.547 -16.016  0.00  0.00    -0.301 NA
ATOM      6  C   UNL     1      34.581 -23.575 -15.155  0.00  0.00    +0.222 C 
ATOM      7  C   UNL     1      36.445 -22.983 -16.163  0.00  0.00    +0.224 C 
ATOM      8  C   UNL     1      34.337 -23.124 -16.442  0.00  0.00    +0.167 C 
ATOM      9  C   UNL     1      33.011 -23.120 -16.866  0.00  0.00    +0.213 C 
ATOM     10  C   UNL     1      32.435 -23.961 -14.786  0.00  0.00    +0.300 C 
ATOM     11  N   UNL     1      32.672 -22.677 -18.156  0.00  0.00    -0.331 N 
ATOM     12  H   UNL     1      31.731 -22.678 -18.445  0.00  0.00    +0.145 HD
ATOM     13  H   UNL     1      33.375 -22.365 -18.770  0.00  0.00    +0.145 HD
ENDROOT
BRANCH   2  15
ATOM     14  O4* UNL     1      38.105 -23.621 -14.038  0.00  0.00    -0.335 OA
ATOM     15  C1* UNL     1      36.702 -23.836 -13.801  0.00  0.00    +0.198 C 
ATOM     16  C3* UNL     1      37.842 -25.521 -12.623  0.00  0.00    +0.144 C 
ATOM     17  C2* UNL     1      36.548 -25.287 -13.368  0.00  0.00    +0.083 C 
ATOM     18  C4* UNL     1      38.849 -24.682 -13.403  0.00  0.00    +0.173 C 
BRANCH  16  19
ATOM     19  O3* UNL     1      37.705 -24.998 -11.304  0.00  0.00    -0.382 OA
ATOM     20  H3* UNL     1      38.113 -25.609 -10.670  0.00  0.00    +0.210 HD
ENDBRANCH  16  19
BRANCH  18  21
ATOM     21  C5* UNL     1      39.559 -25.477 -14.490  0.00  0.00    +0.169 C 
BRANCH  21  22
ATOM     22  O5* UNL     1      40.879 -24.979 -14.628  0.00  0.00    -0.379 OA
ATOM     23  H5* UNL     1      41.192 -25.140 -15.531  0.00  0.00    +0.211 HD
ENDBRANCH  21  22
ENDBRANCH  18  21
ENDBRANCH   2  15
TORSDOF 4
ENDMDL
MODEL 6
REMARK VINA RESULT:      -8.3      5.264      8.055
REMARK  Name = 447864
REMARK  4 active torsions:
REMARK  status: ('A' for Active; 'I' for Inactive)
REMARK    1  A    between atoms: N_2  and  C1*_12
REMARK    2  A    between atoms: C3*_13  and  O3*_16
REMARK    3  A    between atoms: C4*_15  and  C5*_18
REMARK    4  A    between atoms: C5*_18  and  O5*_19
REMARK                            x       y       z     vdW  Elec       q    Type
REMARK                         _______ _______ _______ _____ _____    ______ ____
ROOT
ATOM      1  F   UNL     1      37.110 -21.503 -18.963  0.00  0.00    -0.098 F 
ATOM      2  N   UNL     1      35.667 -23.211 -14.841  0.00  0.00    -0.238 N 
ATOM      3  N   UNL     1      33.577 -23.591 -15.531  0.00  0.00    -0.240 NA
ATOM      4  N   UNL     1      36.615 -22.299 -16.883  0.00  0.00    -0.300 NA
ATOM      5  N   UNL     1      34.957 -22.209 -18.672  0.00  0.00    -0.301 NA
ATOM      6  C   UNL     1      35.617 -22.813 -16.149  0.00  0.00    +0.222 C 
ATOM      7  C   UNL     1      34.415 -23.671 -14.518  0.00  0.00    +0.224 C 
ATOM      8  C   UNL     1      34.316 -23.057 -16.556  0.00  0.00    +0.167 C 
ATOM      9  C   UNL     1      33.998 -22.734 -17.872  0.00  0.00    +0.213 C 
ATOM     10  C   UNL     1      36.188 -22.026 -18.135  0.00  0.00    +0.300 C 
ATOM     11  N   UNL     1      32.702 -22.948 -18.371  0.00  0.00    -0.331 N 
ATOM     12  H   UNL     1      32.488 -22.716 -19.303  0.00  0.00    +0.145 HD
ATOM     13  H   UNL     1      32.007 -23.332 -17.788  0.00  0.00    +0.145 HD
ENDROOT
BRANCH   2  15
ATOM     14  O4* UNL     1      37.855 -24.035 -14.436  0.00  0.00    -0.335 OA
ATOM     15  C1* UNL     1      36.821 -23.160 -13.951  0.00  0.00    +0.198 C 
ATOM     16  C3* UNL     1      37.887 -24.048 -12.053  0.00  0.00    +0.144 C 
ATOM     17  C2* UNL     1      36.527 -23.582 -12.519  0.00  0.00    +0.083 C 
ATOM     18  C4* UNL     1      38.488 -24.673 -13.308  0.00  0.00    +0.173 C 
BRANCH  16  19
ATOM     19  O3* UNL     1      38.651 -22.906 -11.676  0.00  0.00    -0.382 OA
ATOM     20  H3* UNL     1      38.210 -22.449 -10.942  0.00  0.00    +0.210 HD
ENDBRANCH  16  19
BRANCH  18  21
ATOM     21  C5* UNL     1      38.224 -26.170 -13.402  0.00  0.00    +0.169 C 
BRANCH  21  22
ATOM     22  O5* UNL     1      38.935 -26.686 -14.515  0.00  0.00    -0.379 OA
ATOM     23  H5* UNL     1      39.885 -26.540 -14.387  0.00  0.00    +0.211 HD
ENDBRANCH  21  22
ENDBRANCH  18  21
ENDBRANCH   2  15
TORSDOF 4
ENDMDL
MODEL 7
REMARK VINA RESULT:      -8.0      5.972      7.807
REMARK  Name = 447864
REMARK  4 active torsions:
REMARK  status: ('A' for Active; 'I' for Inactive)
REMARK    1  A    between atoms: N_2  and  C1*_12
REMARK    2  A    between atoms: C3*_13  and  O3*_16
REMARK    3  A    between atoms: C4*_15  and  C5*_18
REMARK    4  A    between atoms: C5*_18  and  O5*_19
REMARK                            x       y       z     vdW  Elec       q    Type
REMARK                         _______ _______ _______ _____ _____    ______ ____
ROOT
ATOM      1  F   UNL     1      37.119 -23.880 -12.108  0.00  0.00    -0.098 F 
ATOM      2  N   UNL     1      33.661 -23.772 -15.274  0.00  0.00    -0.238 N 
ATOM      3  N   UNL     1      34.962 -23.027 -16.929  0.00  0.00    -0.240 NA
ATOM      4  N   UNL     1      35.301 -23.902 -13.487  0.00  0.00    -0.300 NA
ATOM      5  N   UNL     1      37.510 -23.201 -14.253  0.00  0.00    -0.301 NA
ATOM      6  C   UNL     1      34.915 -23.640 -14.744  0.00  0.00    +0.222 C 
ATOM      7  C   UNL     1      33.742 -23.391 -16.590  0.00  0.00    +0.224 C 
ATOM      8  C   UNL     1      35.704 -23.178 -15.785  0.00  0.00    +0.167 C 
ATOM      9  C   UNL     1      37.050 -22.957 -15.504  0.00  0.00    +0.213 C 
ATOM     10  C   UNL     1      36.620 -23.651 -13.336  0.00  0.00    +0.300 C 
ATOM     11  N   UNL     1      37.924 -22.490 -16.500  0.00  0.00    -0.331 N 
ATOM     12  H   UNL     1      38.873 -22.338 -16.291  0.00  0.00    +0.145 HD
ATOM     13  H   UNL     1      37.587 -22.316 -17.409  0.00  0.00    +0.145 HD
ENDROOT
BRANCH   2  15
ATOM     14  O4* UNL     1      31.385 -24.397 -15.524  0.00  0.00    -0.335 OA
ATOM     15  C1* UNL     1      32.460 -24.227 -14.583  0.00  0.00    +0.198 C 
ATOM     16  C3* UNL     1      30.486 -23.623 -13.457  0.00  0.00    +0.144 C 
ATOM     17  C2* UNL     1      31.955 -23.273 -13.510  0.00  0.00    +0.083 C 
ATOM     18  C4* UNL     1      30.156 -23.959 -14.908  0.00  0.00    +0.173 C 
BRANCH  16  19
ATOM     19  O3* UNL     1      30.328 -24.788 -12.650  0.00  0.00    -0.382 OA
ATOM     20  H3* UNL     1      29.648 -24.626 -11.977  0.00  0.00    +0.210 HD
ENDBRANCH  16  19
BRANCH  18  21
ATOM     21  C5* UNL     1      29.640 -22.757 -15.686  0.00  0.00    +0.169 C 
BRANCH  21  22
ATOM     22  O5* UNL     1      30.343 -22.676 -16.915  0.00  0.00    -0.379 OA
ATOM     23  H5* UNL     1      29.981 -21.951 -17.447  0.00  0.00    +0.211 HD
ENDBRANCH  21  22
ENDBRANCH  18  21
ENDBRANCH   2  15
TORSDOF 4
ENDMDL
MODEL 8
REMARK VINA RESULT:      -7.9      4.928      7.257
REMARK  Name = 447864
REMARK  4 active torsions:
REMARK  status: ('A' for Active; 'I' for Inactive)
REMARK    1  A    between atoms: N_2  and  C1*_12
REMARK    2  A    between atoms: C3*_13  and  O3*_16
REMARK    3  A    between atoms: C4*_15  and  C5*_18
REMARK    4  A    between atoms: C5*_18  and  O5*_19
REMARK                            x       y       z     vdW  Elec       q    Type
REMARK                         _______ _______ _______ _____ _____    ______ ____
ROOT
ATOM      1  F   UNL     1      32.830 -13.800 -21.480  0.00  0.00    -0.098 F 
ATOM      2  N   UNL     1      34.804 -17.323 -23.865  0.00  0.00    -0.238 N 
ATOM      3  N   UNL     1      34.256 -16.506 -25.870  0.00  0.00    -0.240 NA
ATOM      4  N   UNL     1      33.848 -15.601 -22.443  0.00  0.00    -0.300 NA
ATOM      5  N   UNL     1      32.778 -13.849 -23.764  0.00  0.00    -0.301 NA
ATOM      6  C   UNL     1      34.130 -16.156 -23.631  0.00  0.00    +0.222 C 
ATOM      7  C   UNL     1      34.853 -17.488 -25.227  0.00  0.00    +0.224 C 
ATOM      8  C   UNL     1      33.800 -15.667 -24.885  0.00  0.00    +0.167 C 
ATOM      9  C   UNL     1      33.097 -14.466 -24.927  0.00  0.00    +0.213 C 
ATOM     10  C   UNL     1      33.167 -14.446 -22.611  0.00  0.00    +0.300 C 
ATOM     11  N   UNL     1      32.723 -13.896 -26.155  0.00  0.00    -0.331 N 
ATOM     12  H   UNL     1      32.226 -13.047 -26.173  0.00  0.00    +0.145 HD
ATOM     13  H   UNL     1      32.958 -14.346 -26.999  0.00  0.00    +0.145 HD
ENDROOT
BRANCH   2  15
ATOM     14  O4* UNL     1      34.552 -19.410 -22.763  0.00  0.00    -0.335 OA
ATOM     15  C1* UNL     1      35.365 -18.227 -22.868  0.00  0.00    +0.198 C 
ATOM     16  C3* UNL     1      35.423 -18.879 -20.609  0.00  0.00    +0.144 C 
ATOM     17  C2* UNL     1      35.459 -17.636 -21.468  0.00  0.00    +0.083 C 
ATOM     18  C4* UNL     1      34.486 -19.805 -21.377  0.00  0.00    +0.173 C 
BRANCH  16  19
ATOM     19  O3* UNL     1      36.731 -19.444 -20.577  0.00  0.00    -0.382 OA
ATOM     20  H3* UNL     1      37.349 -18.807 -20.184  0.00  0.00    +0.210 HD
ENDBRANCH  16  19
BRANCH  18  21
ATOM     21  C5* UNL     1      33.038 -19.685 -20.921  0.00  0.00    +0.169 C 
BRANCH  21  22
ATOM     22  O5* UNL     1      32.697 -20.848 -20.185  0.00  0.00    -0.379 OA
ATOM     23  H5* UNL     1      33.199 -20.864 -19.356  0.00  0.00    +0.211 HD
ENDBRANCH  21  22
ENDBRANCH  18  21
ENDBRANCH   2  15
TORSDOF 4
ENDMDL
MODEL 9
REMARK VINA RESULT:      -7.9      5.998      7.822
REMARK  Name = 447864
REMARK  4 active torsions:
REMARK  status: ('A' for Active; 'I' for Inactive)
REMARK    1  A    between atoms: N_2  and  C1*_12
REMARK    2  A    between atoms: C3*_13  and  O3*_16
REMARK    3  A    between atoms: C4*_15  and  C5*_18
REMARK    4  A    between atoms: C5*_18  and  O5*_19
REMARK                            x       y       z     vdW  Elec       q    Type
REMARK                         _______ _______ _______ _____ _____    ______ ____
ROOT
ATOM      1  F   UNL     1      30.809 -23.903 -12.743  0.00  0.00    -0.098 F 
ATOM      2  N   UNL     1      33.838 -23.431 -16.292  0.00  0.00    -0.238 N 
ATOM      3  N   UNL     1      32.277 -22.848 -17.779  0.00  0.00    -0.240 NA
ATOM      4  N   UNL     1      32.443 -23.730 -14.326  0.00  0.00    -0.300 NA
ATOM      5  N   UNL     1      30.095 -23.288 -14.824  0.00  0.00    -0.301 NA
ATOM      6  C   UNL     1      32.647 -23.437 -15.619  0.00  0.00    +0.222 C 
ATOM      7  C   UNL     1      33.561 -23.070 -17.587  0.00  0.00    +0.224 C 
ATOM      8  C   UNL     1      31.695 -23.073 -16.557  0.00  0.00    +0.167 C 
ATOM      9  C   UNL     1      30.376 -23.004 -16.119  0.00  0.00    +0.213 C 
ATOM     10  C   UNL     1      31.131 -23.629 -14.020  0.00  0.00    +0.300 C 
ATOM     11  N   UNL     1      29.344 -22.642 -17.002  0.00  0.00    -0.331 N 
ATOM     12  H   UNL     1      28.415 -22.596 -16.682  0.00  0.00    +0.145 HD
ATOM     13  H   UNL     1      29.551 -22.434 -17.943  0.00  0.00    +0.145 HD
ENDROOT
BRANCH   2  15
ATOM     14  O4* UNL     1      35.057 -24.852 -14.835  0.00  0.00    -0.335 OA
ATOM     15  C1* UNL     1      35.155 -23.746 -15.750  0.00  0.00    +0.198 C 
ATOM     16  C3* UNL     1      36.734 -23.349 -14.054  0.00  0.00    +0.144 C 
ATOM     17  C2* UNL     1      35.808 -22.603 -14.987  0.00  0.00    +0.083 C 
ATOM     18  C4* UNL     1      35.951 -24.616 -13.727  0.00  0.00    +0.173 C 
BRANCH  16  19
ATOM     19  O3* UNL     1      37.918 -23.692 -14.772  0.00  0.00    -0.382 OA
ATOM     20  H3* UNL     1      38.670 -23.721 -14.160  0.00  0.00    +0.210 HD
ENDBRANCH  16  19
BRANCH  18  21
ATOM     21  C5* UNL     1      35.111 -24.476 -12.464  0.00  0.00    +0.169 C 
BRANCH  21  22
ATOM     22  O5* UNL     1      35.647 -25.327 -11.466  0.00  0.00    -0.379 OA
ATOM     23  H5* UNL     1      34.991 -25.454 -10.763  0.00  0.00    +0.211 HD
ENDBRANCH  21  22
ENDBRANCH  18  21
ENDBRANCH   2  15
TORSDOF 4
ENDMDL
