MODEL 1
REMARK VINA RESULT:      -9.8      0.000      0.000
REMARK  Name = 216326
REMARK  2 active torsions:
REMARK  status: ('A' for Active; 'I' for Inactive)
REMARK    1  A    between atoms: N_2  and  C_14
REMARK    2  A    between atoms: C_7  and  N_20
REMARK                            x       y       z     vdW  Elec       q    Type
REMARK                         _______ _______ _______ _____ _____    ______ ____
ROOT
ATOM      1  O   UNL     1      37.591 -18.655 -21.787  0.00  0.00    -0.270 OA
ATOM      2  N   UNL     1      35.257 -18.383 -22.043  0.00  0.00    -0.265 N 
ATOM      3  C   UNL     1      34.055 -19.001 -21.497  0.00  0.00    +0.122 C 
ATOM      4  C   UNL     1      34.625 -20.026 -20.577  0.00  0.00    +0.015 C 
ATOM      5  C   UNL     1      36.432 -18.935 -21.544  0.00  0.00    +0.249 C 
ATOM      6  C   UNL     1      36.019 -19.986 -20.605  0.00  0.00    +0.052 C 
ATOM      7  C   UNL     1      33.969 -20.934 -19.766  0.00  0.00    +0.039 C 
ATOM      8  C   UNL     1      36.806 -20.829 -19.845  0.00  0.00    +0.004 C 
ATOM      9  C   UNL     1      34.742 -21.801 -18.987  0.00  0.00    +0.014 C 
ATOM     10  C   UNL     1      36.148 -21.748 -19.026  0.00  0.00    +0.001 C 
ENDROOT
BRANCH   2  14
ATOM     11  O   UNL     1      34.860 -19.027 -24.666  0.00  0.00    -0.273 OA
ATOM     12  O   UNL     1      33.294 -14.818 -25.682  0.00  0.00    -0.275 OA
ATOM     13  N   UNL     1      34.065 -16.917 -25.126  0.00  0.00    -0.254 N 
ATOM     14  C   UNL     1      35.232 -17.312 -23.003  0.00  0.00    +0.153 C 
ATOM     15  C   UNL     1      34.387 -16.152 -22.501  0.00  0.00    +0.039 C 
ATOM     16  C   UNL     1      34.361 -15.056 -23.551  0.00  0.00    +0.088 C 
ATOM     17  C   UNL     1      34.692 -17.860 -24.312  0.00  0.00    +0.246 C 
ATOM     18  C   UNL     1      33.837 -15.568 -24.872  0.00  0.00    +0.228 C 
ATOM     19  H   UNL     1      33.741 -17.250 -25.994  0.00  0.00    +0.158 HD
ENDBRANCH   2  14
BRANCH   7  20
ATOM     20  N   UNL     1      32.566 -20.993 -19.719  0.00  0.00    -0.357 N 
ATOM     21  H   UNL     1      32.088 -20.721 -18.902  0.00  0.00    +0.142 HD
ATOM     22  H   UNL     1      32.060 -21.307 -20.504  0.00  0.00    +0.142 HD
ENDBRANCH   7  20
TORSDOF 2
ENDMDL
MODEL 2
REMARK VINA RESULT:      -9.6      2.057      6.217
REMARK  Name = 216326
REMARK  2 active torsions:
REMARK  status: ('A' for Active; 'I' for Inactive)
REMARK    1  A    between atoms: N_2  and  C_14
REMARK    2  A    between atoms: C_7  and  N_20
REMARK                            x       y       z     vdW  Elec       q    Type
REMARK                         _______ _______ _______ _____ _____    ______ ____
ROOT
ATOM      1  O   UNL     1      34.943 -19.711 -24.024  0.00  0.00    -0.270 OA
ATOM      2  N   UNL     1      34.898 -18.967 -21.781  0.00  0.00    -0.265 N 
ATOM      3  C   UNL     1      34.745 -17.691 -21.093  0.00  0.00    +0.122 C 
ATOM      4  C   UNL     1      34.594 -16.742 -22.233  0.00  0.00    +0.015 C 
ATOM      5  C   UNL     1      34.851 -18.852 -23.166  0.00  0.00    +0.249 C 
ATOM      6  C   UNL     1      34.655 -17.426 -23.448  0.00  0.00    +0.052 C 
ATOM      7  C   UNL     1      34.412 -15.372 -22.212  0.00  0.00    +0.039 C 
ATOM      8  C   UNL     1      34.542 -16.790 -24.670  0.00  0.00    +0.004 C 
ATOM      9  C   UNL     1      34.295 -14.702 -23.435  0.00  0.00    +0.014 C 
ATOM     10  C   UNL     1      34.359 -15.406 -24.652  0.00  0.00    +0.001 C 
ENDROOT
BRANCH   2  14
ATOM     11  O   UNL     1      37.349 -19.486 -20.697  0.00  0.00    -0.273 OA
ATOM     12  O   UNL     1      35.613 -22.501 -17.680  0.00  0.00    -0.275 OA
ATOM     13  N   UNL     1      36.438 -20.970 -19.193  0.00  0.00    -0.254 N 
ATOM     14  C   UNL     1      35.080 -20.219 -21.096  0.00  0.00    +0.153 C 
ATOM     15  C   UNL     1      33.906 -20.511 -20.175  0.00  0.00    +0.039 C 
ATOM     16  C   UNL     1      34.148 -21.823 -19.450  0.00  0.00    +0.088 C 
ATOM     17  C   UNL     1      36.384 -20.151 -20.321  0.00  0.00    +0.246 C 
ATOM     18  C   UNL     1      35.444 -21.795 -18.674  0.00  0.00    +0.228 C 
ATOM     19  H   UNL     1      37.289 -20.963 -18.701  0.00  0.00    +0.158 HD
ENDBRANCH   2  14
BRANCH   7  20
ATOM     20  N   UNL     1      34.345 -14.661 -21.001  0.00  0.00    -0.357 N 
ATOM     21  H   UNL     1      33.486 -14.572 -20.529  0.00  0.00    +0.142 HD
ATOM     22  H   UNL     1      35.159 -14.252 -20.625  0.00  0.00    +0.142 HD
ENDBRANCH   7  20
TORSDOF 2
ENDMDL
MODEL 3
REMARK VINA RESULT:      -9.1      5.819      9.745
REMARK  Name = 216326
REMARK  2 active torsions:
REMARK  status: ('A' for Active; 'I' for Inactive)
REMARK    1  A    between atoms: N_2  and  C_14
REMARK    2  A    between atoms: C_7  and  N_20
REMARK                            x       y       z     vdW  Elec       q    Type
REMARK                         _______ _______ _______ _____ _____    ______ ____
ROOT
ATOM      1  O   UNL     1      37.643 -22.671 -15.859  0.00  0.00    -0.270 OA
ATOM      2  N   UNL     1      35.385 -23.369 -15.823  0.00  0.00    -0.265 N 
ATOM      3  C   UNL     1      34.219 -23.223 -16.687  0.00  0.00    +0.122 C 
ATOM      4  C   UNL     1      34.767 -22.411 -17.811  0.00  0.00    +0.015 C 
ATOM      5  C   UNL     1      36.519 -22.740 -16.323  0.00  0.00    +0.249 C 
ATOM      6  C   UNL     1      36.117 -22.129 -17.596  0.00  0.00    +0.052 C 
ATOM      7  C   UNL     1      34.130 -21.949 -18.947  0.00  0.00    +0.039 C 
ATOM      8  C   UNL     1      36.876 -21.390 -18.483  0.00  0.00    +0.004 C 
ATOM      9  C   UNL     1      34.876 -21.198 -19.862  0.00  0.00    +0.014 C 
ATOM     10  C   UNL     1      36.236 -20.921 -19.632  0.00  0.00    +0.001 C 
ENDROOT
BRANCH   2  14
ATOM     11  O   UNL     1      35.826 -26.062 -15.902  0.00  0.00    -0.273 OA
ATOM     12  O   UNL     1      37.191 -26.182 -11.506  0.00  0.00    -0.275 OA
ATOM     13  N   UNL     1      36.520 -26.074 -13.708  0.00  0.00    -0.254 N 
ATOM     14  C   UNL     1      35.363 -24.091 -14.580  0.00  0.00    +0.153 C 
ATOM     15  C   UNL     1      36.148 -23.353 -13.507  0.00  0.00    +0.039 C 
ATOM     16  C   UNL     1      36.127 -24.159 -12.221  0.00  0.00    +0.088 C 
ATOM     17  C   UNL     1      35.936 -25.476 -14.825  0.00  0.00    +0.246 C 
ATOM     18  C   UNL     1      36.681 -25.549 -12.430  0.00  0.00    +0.228 C 
ATOM     19  H   UNL     1      36.864 -26.986 -13.843  0.00  0.00    +0.158 HD
ENDBRANCH   2  14
BRANCH   7  20
ATOM     20  N   UNL     1      32.773 -22.221 -19.187  0.00  0.00    -0.357 N 
ATOM     21  H   UNL     1      32.091 -21.940 -18.534  0.00  0.00    +0.142 HD
ATOM     22  H   UNL     1      32.502 -22.691 -20.009  0.00  0.00    +0.142 HD
ENDBRANCH   7  20
TORSDOF 2
ENDMDL
MODEL 4
REMARK VINA RESULT:      -9.0      8.379     10.713
REMARK  Name = 216326
REMARK  2 active torsions:
REMARK  status: ('A' for Active; 'I' for Inactive)
REMARK    1  A    between atoms: N_2  and  C_14
REMARK    2  A    between atoms: C_7  and  N_20
REMARK                            x       y       z     vdW  Elec       q    Type
REMARK                         _______ _______ _______ _____ _____    ______ ____
ROOT
ATOM      1  O   UNL     1      33.878 -24.495 -12.496  0.00  0.00    -0.270 OA
ATOM      2  N   UNL     1      35.164 -24.513 -14.478  0.00  0.00    -0.265 N 
ATOM      3  C   UNL     1      34.959 -24.149 -15.875  0.00  0.00    +0.122 C 
ATOM      4  C   UNL     1      33.546 -23.674 -15.866  0.00  0.00    +0.015 C 
ATOM      5  C   UNL     1      34.041 -24.301 -13.686  0.00  0.00    +0.249 C 
ATOM      6  C   UNL     1      33.010 -23.763 -14.581  0.00  0.00    +0.052 C 
ATOM      7  C   UNL     1      32.779 -23.193 -16.910  0.00  0.00    +0.039 C 
ATOM      8  C   UNL     1      31.713 -23.388 -14.285  0.00  0.00    +0.004 C 
ATOM      9  C   UNL     1      31.462 -22.806 -16.639  0.00  0.00    +0.014 C 
ATOM     10  C   UNL     1      30.935 -22.902 -15.337  0.00  0.00    +0.001 C 
ENDROOT
BRANCH   2  14
ATOM     11  O   UNL     1      36.258 -26.662 -15.756  0.00  0.00    -0.273 OA
ATOM     12  O   UNL     1      40.485 -25.707 -14.198  0.00  0.00    -0.275 OA
ATOM     13  N   UNL     1      38.357 -26.138 -14.972  0.00  0.00    -0.254 N 
ATOM     14  C   UNL     1      36.403 -25.039 -13.971  0.00  0.00    +0.153 C 
ATOM     15  C   UNL     1      37.384 -23.919 -13.662  0.00  0.00    +0.039 C 
ATOM     16  C   UNL     1      38.687 -24.515 -13.158  0.00  0.00    +0.088 C 
ATOM     17  C   UNL     1      36.970 -25.998 -15.002  0.00  0.00    +0.246 C 
ATOM     18  C   UNL     1      39.275 -25.483 -14.157  0.00  0.00    +0.228 C 
ATOM     19  H   UNL     1      38.736 -26.783 -15.611  0.00  0.00    +0.158 HD
ENDBRANCH   2  14
BRANCH   7  20
ATOM     20  N   UNL     1      33.296 -23.093 -18.213  0.00  0.00    -0.357 N 
ATOM     21  H   UNL     1      34.229 -23.350 -18.394  0.00  0.00    +0.142 HD
ATOM     22  H   UNL     1      32.725 -22.765 -18.946  0.00  0.00    +0.142 HD
ENDBRANCH   7  20
TORSDOF 2
ENDMDL
MODEL 5
REMARK VINA RESULT:      -9.0      1.507      2.075
REMARK  Name = 216326
REMARK  2 active torsions:
REMARK  status: ('A' for Active; 'I' for Inactive)
REMARK    1  A    between atoms: N_2  and  C_14
REMARK    2  A    between atoms: C_7  and  N_20
REMARK                            x       y       z     vdW  Elec       q    Type
REMARK                         _______ _______ _______ _____ _____    ______ ____
ROOT
ATOM      1  O   UNL     1      36.788 -19.203 -21.406  0.00  0.00    -0.270 OA
ATOM      2  N   UNL     1      34.471 -19.656 -21.519  0.00  0.00    -0.265 N 
ATOM      3  C   UNL     1      33.514 -20.464 -20.773  0.00  0.00    +0.122 C 
ATOM      4  C   UNL     1      34.380 -21.081 -19.728  0.00  0.00    +0.015 C 
ATOM      5  C   UNL     1      35.767 -19.744 -21.023  0.00  0.00    +0.249 C 
ATOM      6  C   UNL     1      35.701 -20.657 -19.876  0.00  0.00    +0.052 C 
ATOM      7  C   UNL     1      34.037 -21.954 -18.713  0.00  0.00    +0.039 C 
ATOM      8  C   UNL     1      36.718 -21.074 -19.039  0.00  0.00    +0.004 C 
ATOM      9  C   UNL     1      35.048 -22.394 -17.851  0.00  0.00    +0.014 C 
ATOM     10  C   UNL     1      36.376 -21.957 -18.012  0.00  0.00    +0.001 C 
ENDROOT
BRANCH   2  14
ATOM     11  O   UNL     1      34.502 -16.943 -21.223  0.00  0.00    -0.273 OA
ATOM     12  O   UNL     1      35.002 -16.241 -25.747  0.00  0.00    -0.275 OA
ATOM     13  N   UNL     1      34.772 -16.637 -23.488  0.00  0.00    -0.254 N 
ATOM     14  C   UNL     1      34.111 -18.851 -22.656  0.00  0.00    +0.153 C 
ATOM     15  C   UNL     1      34.789 -19.357 -23.919  0.00  0.00    +0.039 C 
ATOM     16  C   UNL     1      34.409 -18.466 -25.088  0.00  0.00    +0.088 C 
ATOM     17  C   UNL     1      34.501 -17.413 -22.361  0.00  0.00    +0.246 C 
ATOM     18  C   UNL     1      34.773 -17.024 -24.825  0.00  0.00    +0.228 C 
ATOM     19  H   UNL     1      34.991 -15.694 -23.315  0.00  0.00    +0.158 HD
ENDBRANCH   2  14
BRANCH   7  20
ATOM     20  N   UNL     1      32.714 -22.395 -18.542  0.00  0.00    -0.357 N 
ATOM     21  H   UNL     1      31.975 -21.925 -18.992  0.00  0.00    +0.142 HD
ATOM     22  H   UNL     1      32.525 -23.177 -17.972  0.00  0.00    +0.142 HD
ENDBRANCH   7  20
TORSDOF 2
ENDMDL
MODEL 6
REMARK VINA RESULT:      -8.8      8.493     10.534
REMARK  Name = 216326
REMARK  2 active torsions:
REMARK  status: ('A' for Active; 'I' for Inactive)
REMARK    1  A    between atoms: N_2  and  C_14
REMARK    2  A    between atoms: C_7  and  N_20
REMARK                            x       y       z     vdW  Elec       q    Type
REMARK                         _______ _______ _______ _____ _____    ______ ____
ROOT
ATOM      1  O   UNL     1      35.215 -23.372 -16.404  0.00  0.00    -0.270 OA
ATOM      2  N   UNL     1      34.662 -24.480 -14.391  0.00  0.00    -0.265 N 
ATOM      3  C   UNL     1      33.441 -24.791 -13.657  0.00  0.00    +0.122 C 
ATOM      4  C   UNL     1      32.393 -24.190 -14.531  0.00  0.00    +0.015 C 
ATOM      5  C   UNL     1      34.429 -23.779 -15.569  0.00  0.00    +0.249 C 
ATOM      6  C   UNL     1      32.975 -23.598 -15.652  0.00  0.00    +0.052 C 
ATOM      7  C   UNL     1      31.022 -24.164 -14.360  0.00  0.00    +0.039 C 
ATOM      8  C   UNL     1      32.233 -22.965 -16.632  0.00  0.00    +0.004 C 
ATOM      9  C   UNL     1      30.247 -23.529 -15.336  0.00  0.00    +0.014 C 
ATOM     10  C   UNL     1      30.848 -22.936 -16.462  0.00  0.00    +0.001 C 
ENDROOT
BRANCH   2  14
ATOM     11  O   UNL     1      35.921 -26.516 -15.701  0.00  0.00    -0.273 OA
ATOM     12  O   UNL     1      40.089 -25.080 -14.369  0.00  0.00    -0.275 OA
ATOM     13  N   UNL     1      37.986 -25.753 -15.030  0.00  0.00    -0.254 N 
ATOM     14  C   UNL     1      35.974 -24.859 -13.942  0.00  0.00    +0.153 C 
ATOM     15  C   UNL     1      36.840 -23.634 -13.694  0.00  0.00    +0.039 C 
ATOM     16  C   UNL     1      38.224 -24.076 -13.251  0.00  0.00    +0.088 C 
ATOM     17  C   UNL     1      36.591 -25.767 -14.991  0.00  0.00    +0.246 C 
ATOM     18  C   UNL     1      38.865 -24.990 -14.269  0.00  0.00    +0.228 C 
ATOM     19  H   UNL     1      38.401 -26.362 -15.681  0.00  0.00    +0.158 HD
ENDBRANCH   2  14
BRANCH   7  20
ATOM     20  N   UNL     1      30.412 -24.754 -13.239  0.00  0.00    -0.357 N 
ATOM     21  H   UNL     1      30.962 -25.214 -12.565  0.00  0.00    +0.142 HD
ATOM     22  H   UNL     1      29.435 -24.707 -13.129  0.00  0.00    +0.142 HD
ENDBRANCH   7  20
TORSDOF 2
ENDMDL
MODEL 7
REMARK VINA RESULT:      -8.8      3.224      5.296
REMARK  Name = 216326
REMARK  2 active torsions:
REMARK  status: ('A' for Active; 'I' for Inactive)
REMARK    1  A    between atoms: N_2  and  C_14
REMARK    2  A    between atoms: C_7  and  N_20
REMARK                            x       y       z     vdW  Elec       q    Type
REMARK                         _______ _______ _______ _____ _____    ______ ____
ROOT
ATOM      1  O   UNL     1      33.344 -15.527 -26.162  0.00  0.00    -0.270 OA
ATOM      2  N   UNL     1      33.602 -14.704 -23.961  0.00  0.00    -0.265 N 
ATOM      3  C   UNL     1      34.104 -15.219 -22.692  0.00  0.00    +0.122 C 
ATOM      4  C   UNL     1      34.505 -16.607 -23.059  0.00  0.00    +0.015 C 
ATOM      5  C   UNL     1      33.672 -15.632 -24.994  0.00  0.00    +0.249 C 
ATOM      6  C   UNL     1      34.251 -16.847 -24.409  0.00  0.00    +0.052 C 
ATOM      7  C   UNL     1      35.056 -17.595 -22.266  0.00  0.00    +0.039 C 
ATOM      8  C   UNL     1      34.529 -18.056 -25.018  0.00  0.00    +0.004 C 
ATOM      9  C   UNL     1      35.346 -18.830 -22.856  0.00  0.00    +0.014 C 
ATOM     10  C   UNL     1      35.085 -19.058 -24.220  0.00  0.00    +0.001 C 
ENDROOT
BRANCH   2  14
ATOM     11  O   UNL     1      31.829 -13.780 -22.104  0.00  0.00    -0.273 OA
ATOM     12  O   UNL     1      32.793  -9.380 -23.060  0.00  0.00    -0.275 OA
ATOM     13  N   UNL     1      32.355 -11.595 -22.598  0.00  0.00    -0.254 N 
ATOM     14  C   UNL     1      33.087 -13.372 -24.127  0.00  0.00    +0.153 C 
ATOM     15  C   UNL     1      34.199 -12.397 -24.479  0.00  0.00    +0.039 C 
ATOM     16  C   UNL     1      33.621 -11.000 -24.617  0.00  0.00    +0.088 C 
ATOM     17  C   UNL     1      32.389 -12.969 -22.840  0.00  0.00    +0.246 C 
ATOM     18  C   UNL     1      32.910 -10.569 -23.356  0.00  0.00    +0.228 C 
ATOM     19  H   UNL     1      31.875 -11.317 -21.786  0.00  0.00    +0.158 HD
ENDBRANCH   2  14
BRANCH   7  20
ATOM     20  N   UNL     1      35.322 -17.378 -20.903  0.00  0.00    -0.357 N 
ATOM     21  H   UNL     1      34.580 -17.215 -20.276  0.00  0.00    +0.142 HD
ATOM     22  H   UNL     1      36.250 -17.389 -20.574  0.00  0.00    +0.142 HD
ENDBRANCH   7  20
TORSDOF 2
ENDMDL
MODEL 8
REMARK VINA RESULT:      -8.7      2.080      6.225
REMARK  Name = 216326
REMARK  2 active torsions:
REMARK  status: ('A' for Active; 'I' for Inactive)
REMARK    1  A    between atoms: N_2  and  C_14
REMARK    2  A    between atoms: C_7  and  N_20
REMARK                            x       y       z     vdW  Elec       q    Type
REMARK                         _______ _______ _______ _____ _____    ______ ____
ROOT
ATOM      1  O   UNL     1      35.070 -16.766 -20.223  0.00  0.00    -0.270 OA
ATOM      2  N   UNL     1      34.720 -18.069 -22.163  0.00  0.00    -0.265 N 
ATOM      3  C   UNL     1      34.349 -17.820 -23.551  0.00  0.00    +0.122 C 
ATOM      4  C   UNL     1      34.194 -16.338 -23.569  0.00  0.00    +0.015 C 
ATOM      5  C   UNL     1      34.791 -16.910 -21.399  0.00  0.00    +0.249 C 
ATOM      6  C   UNL     1      34.454 -15.806 -22.306  0.00  0.00    +0.052 C 
ATOM      7  C   UNL     1      33.850 -15.507 -24.619  0.00  0.00    +0.039 C 
ATOM      8  C   UNL     1      34.384 -14.452 -22.036  0.00  0.00    +0.004 C 
ATOM      9  C   UNL     1      33.770 -14.132 -24.374  0.00  0.00    +0.014 C 
ATOM     10  C   UNL     1      34.036 -13.609 -23.094  0.00  0.00    +0.001 C 
ENDROOT
BRANCH   2  14
ATOM     11  O   UNL     1      37.303 -18.704 -21.550  0.00  0.00    -0.273 OA
ATOM     12  O   UNL     1      36.017 -21.983 -18.584  0.00  0.00    -0.275 OA
ATOM     13  N   UNL     1      36.617 -20.319 -20.062  0.00  0.00    -0.254 N 
ATOM     14  C   UNL     1      34.984 -19.382 -21.637  0.00  0.00    +0.153 C 
ATOM     15  C   UNL     1      33.969 -19.754 -20.568  0.00  0.00    +0.039 C 
ATOM     16  C   UNL     1      34.298 -21.130 -20.018  0.00  0.00    +0.088 C 
ATOM     17  C   UNL     1      36.398 -19.396 -21.084  0.00  0.00    +0.246 C 
ATOM     18  C   UNL     1      35.704 -21.184 -19.466  0.00  0.00    +0.228 C 
ATOM     19  H   UNL     1      37.537 -20.365 -19.717  0.00  0.00    +0.158 HD
ENDBRANCH   2  14
BRANCH   7  20
ATOM     20  N   UNL     1      33.584 -16.019 -25.900  0.00  0.00    -0.357 N 
ATOM     21  H   UNL     1      33.787 -16.960 -26.107  0.00  0.00    +0.142 HD
ATOM     22  H   UNL     1      33.194 -15.436 -26.592  0.00  0.00    +0.142 HD
ENDBRANCH   7  20
TORSDOF 2
ENDMDL
MODEL 9
REMARK VINA RESULT:      -8.6      8.637     10.789
REMARK  Name = 216326
REMARK  2 active torsions:
REMARK  status: ('A' for Active; 'I' for Inactive)
REMARK    1  A    between atoms: N_2  and  C_14
REMARK    2  A    between atoms: C_7  and  N_20
REMARK                            x       y       z     vdW  Elec       q    Type
REMARK                         _______ _______ _______ _____ _____    ______ ____
ROOT
ATOM      1  O   UNL     1      32.504  -6.906 -20.250  0.00  0.00    -0.270 OA
ATOM      2  N   UNL     1      32.522  -7.948 -22.371  0.00  0.00    -0.265 N 
ATOM      3  C   UNL     1      32.283  -9.289 -22.892  0.00  0.00    +0.122 C 
ATOM      4  C   UNL     1      31.966 -10.051 -21.651  0.00  0.00    +0.015 C 
ATOM      5  C   UNL     1      32.378  -7.863 -20.991  0.00  0.00    +0.249 C 
ATOM      6  C   UNL     1      32.022  -9.213 -20.537  0.00  0.00    +0.052 C 
ATOM      7  C   UNL     1      31.647 -11.388 -21.503  0.00  0.00    +0.039 C 
ATOM      8  C   UNL     1      31.770  -9.658 -19.253  0.00  0.00    +0.004 C 
ATOM      9  C   UNL     1      31.389 -11.866 -20.214  0.00  0.00    +0.014 C 
ATOM     10  C   UNL     1      31.449 -11.008 -19.099  0.00  0.00    +0.001 C 
ENDROOT
BRANCH   2  14
ATOM     11  O   UNL     1      35.088  -7.788 -23.287  0.00  0.00    -0.273 OA
ATOM     12  O   UNL     1      33.882  -5.111 -26.834  0.00  0.00    -0.275 OA
ATOM     13  N   UNL     1      34.439  -6.468 -25.057  0.00  0.00    -0.254 N 
ATOM     14  C   UNL     1      32.872  -6.827 -23.202  0.00  0.00    +0.153 C 
ATOM     15  C   UNL     1      31.806  -6.578 -24.257  0.00  0.00    +0.039 C 
ATOM     16  C   UNL     1      32.225  -5.408 -25.130  0.00  0.00    +0.088 C 
ATOM     17  C   UNL     1      34.221  -7.110 -23.837  0.00  0.00    +0.246 C 
ATOM     18  C   UNL     1      33.570  -5.651 -25.772  0.00  0.00    +0.228 C 
ATOM     19  H   UNL     1      35.323  -6.614 -25.464  0.00  0.00    +0.158 HD
ENDBRANCH   2  14
BRANCH   7  20
ATOM     20  N   UNL     1      31.583 -12.252 -22.609  0.00  0.00    -0.357 N 
ATOM     21  H   UNL     1      32.157 -13.051 -22.644  0.00  0.00    +0.142 HD
ATOM     22  H   UNL     1      30.963 -12.058 -23.350  0.00  0.00    +0.142 HD
ENDBRANCH   7  20
TORSDOF 2
ENDMDL
