MODEL 1
REMARK VINA RESULT:      15.3      0.000      0.000
REMARK  Name = 6918835
REMARK  4 active torsions:
REMARK  status: ('A' for Active; 'I' for Inactive)
REMARK    1  A    between atoms: C_6  and  O_33
REMARK    2  A    between atoms: C_8  and  O_35
REMARK    3  A    between atoms: C_18  and  C_24
REMARK    4  A    between atoms: C_26  and  C_29
REMARK                            x       y       z     vdW  Elec       q    Type
REMARK                         _______ _______ _______ _____ _____    ______ ____
ROOT
ATOM      1  O   UNL     1      32.532  -9.782 -20.208  0.00  0.00    -0.296 OA
ATOM      2  O   UNL     1      31.129  -6.831 -24.561  0.00  0.00    -0.448 OA
ATOM      3  O   UNL     1      29.228  -7.750 -25.504  0.00  0.00    -0.250 OA
ATOM      4  C   UNL     1      31.464 -10.443 -22.273  0.00  0.00    +0.077 C 
ATOM      5  C   UNL     1      33.346  -8.526 -22.092  0.00  0.00    +0.085 C 
ATOM      6  C   UNL     1      31.001  -9.782 -23.602  0.00  0.00    +0.128 C 
ATOM      7  C   UNL     1      32.434  -9.572 -21.424  0.00  0.00    +0.154 C 
ATOM      8  C   UNL     1      33.902  -7.513 -21.049  0.00  0.00    +0.121 C 
ATOM      9  C   UNL     1      32.840  -6.589 -20.390  0.00  0.00    +0.049 C 
ATOM     10  C   UNL     1      32.179 -11.789 -22.554  0.00  0.00    +0.010 C 
ATOM     11  C   UNL     1      30.242 -10.770 -21.386  0.00  0.00    +0.010 C 
ATOM     12  C   UNL     1      30.066  -8.585 -23.402  0.00  0.00    +0.139 C 
ATOM     13  C   UNL     1      34.496  -9.243 -22.810  0.00  0.00    +0.010 C 
ATOM     14  C   UNL     1      33.469  -5.728 -19.285  0.00  0.00    +0.007 C 
ATOM     15  C   UNL     1      32.137  -5.670 -21.366  0.00  0.00    -0.028 C 
ATOM     16  C   UNL     1      30.066  -7.685 -24.614  0.00  0.00    +0.320 C 
ATOM     17  C   UNL     1      30.807  -5.477 -21.385  0.00  0.00    -0.026 C 
ATOM     18  C   UNL     1      31.293  -5.904 -25.656  0.00  0.00    +0.192 C 
ATOM     19  C   UNL     1      30.017  -4.556 -22.283  0.00  0.00    +0.047 C 
ATOM     20  C   UNL     1      30.437  -4.650 -25.407  0.00  0.00    +0.073 C 
ATOM     21  C   UNL     1      30.822  -3.572 -23.103  0.00  0.00    -0.044 C 
ATOM     22  C   UNL     1      31.008  -3.649 -24.435  0.00  0.00    -0.030 C 
ATOM     23  C   UNL     1      31.404  -2.412 -22.332  0.00  0.00    +0.026 C 
ENDROOT
BRANCH  18  24
ATOM     24  C   UNL     1      32.755  -5.629 -25.814  0.00  0.00    -0.002 C 
ATOM     25  C   UNL     1      33.612  -6.196 -24.712  0.00  0.00    +0.030 C 
ATOM     26  C   UNL     1      33.319  -4.963 -26.841  0.00  0.00    +0.023 C 
BRANCH  26  29
ATOM     27  S   UNL     1      37.207  -4.837 -27.277  0.00  0.00    -0.079 S 
ATOM     28  N   UNL     1      35.071  -3.380 -27.331  0.00  0.00    -0.404 NA
ATOM     29  C   UNL     1      34.711  -4.670 -27.045  0.00  0.00    +0.120 C 
ATOM     30  C   UNL     1      35.704  -5.604 -26.971  0.00  0.00    +0.123 C 
ATOM     31  C   UNL     1      36.378  -3.347 -27.476  0.00  0.00    +0.135 C 
ATOM     32  C   UNL     1      37.154  -2.129 -27.792  0.00  0.00    +0.074 C 
ENDBRANCH  26  29
ENDBRANCH  18  24
BRANCH   6  33
ATOM     33  O   UNL     1      30.334 -10.734 -24.439  0.00  0.00    -0.383 OA
ATOM     34  H   UNL     1      29.424 -10.858 -24.126  0.00  0.00    +0.210 HD
ENDBRANCH   6  33
BRANCH   8  35
ATOM     35  O   UNL     1      34.904  -6.706 -21.678  0.00  0.00    -0.384 OA
ATOM     36  H   UNL     1      35.768  -7.137 -21.590  0.00  0.00    +0.210 HD
ENDBRANCH   8  35
TORSDOF 4
ENDMDL
MODEL 2
REMARK VINA RESULT:      15.3     15.934     19.600
REMARK  Name = 6918835
REMARK  4 active torsions:
REMARK  status: ('A' for Active; 'I' for Inactive)
REMARK    1  A    between atoms: C_6  and  O_33
REMARK    2  A    between atoms: C_8  and  O_35
REMARK    3  A    between atoms: C_18  and  C_24
REMARK    4  A    between atoms: C_26  and  C_29
REMARK                            x       y       z     vdW  Elec       q    Type
REMARK                         _______ _______ _______ _____ _____    ______ ____
ROOT
ATOM      1  O   UNL     1      30.764 -24.813 -16.504  0.00  0.00    -0.296 OA
ATOM      2  O   UNL     1      35.381 -23.536 -13.919  0.00  0.00    -0.448 OA
ATOM      3  O   UNL     1      34.985 -23.535 -11.641  0.00  0.00    -0.250 OA
ATOM      4  C   UNL     1      31.124 -23.626 -14.429  0.00  0.00    +0.077 C 
ATOM      5  C   UNL     1      32.757 -23.465 -16.564  0.00  0.00    +0.085 C 
ATOM      6  C   UNL     1      32.321 -23.162 -13.551  0.00  0.00    +0.128 C 
ATOM      7  C   UNL     1      31.512 -24.054 -15.874  0.00  0.00    +0.154 C 
ATOM      8  C   UNL     1      33.178 -24.321 -17.794  0.00  0.00    +0.121 C 
ATOM      9  C   UNL     1      33.683 -25.754 -17.465  0.00  0.00    +0.049 C 
ATOM     10  C   UNL     1      30.067 -22.498 -14.551  0.00  0.00    +0.010 C 
ATOM     11  C   UNL     1      30.413 -24.827 -13.768  0.00  0.00    +0.010 C 
ATOM     12  C   UNL     1      33.280 -24.293 -13.170  0.00  0.00    +0.139 C 
ATOM     13  C   UNL     1      32.465 -22.022 -16.988  0.00  0.00    +0.010 C 
ATOM     14  C   UNL     1      33.940 -26.554 -18.750  0.00  0.00    +0.007 C 
ATOM     15  C   UNL     1      34.942 -25.782 -16.626  0.00  0.00    -0.028 C 
ATOM     16  C   UNL     1      34.638 -23.752 -12.795  0.00  0.00    +0.320 C 
ATOM     17  C   UNL     1      35.109 -26.580 -15.557  0.00  0.00    -0.026 C 
ATOM     18  C   UNL     1      36.712 -23.001 -13.745  0.00  0.00    +0.192 C 
ATOM     19  C   UNL     1      36.334 -26.715 -14.685  0.00  0.00    +0.047 C 
ATOM     20  C   UNL     1      37.699 -24.147 -13.467  0.00  0.00    +0.073 C 
ATOM     21  C   UNL     1      37.593 -26.050 -15.195  0.00  0.00    -0.044 C 
ATOM     22  C   UNL     1      38.143 -24.937 -14.673  0.00  0.00    -0.030 C 
ATOM     23  C   UNL     1      38.270 -26.748 -16.350  0.00  0.00    +0.026 C 
ENDROOT
BRANCH  18  24
ATOM     24  C   UNL     1      37.041 -22.183 -14.954  0.00  0.00    -0.002 C 
ATOM     25  C   UNL     1      38.257 -21.308 -14.794  0.00  0.00    +0.030 C 
ATOM     26  C   UNL     1      36.365 -22.203 -16.120  0.00  0.00    +0.023 C 
BRANCH  26  29
ATOM     27  S   UNL     1      37.569 -19.811 -18.974  0.00  0.00    -0.079 S 
ATOM     28  N   UNL     1      35.908 -21.718 -18.437  0.00  0.00    -0.404 NA
ATOM     29  C   UNL     1      36.633 -21.443 -17.309  0.00  0.00    +0.120 C 
ATOM     30  C   UNL     1      37.575 -20.456 -17.385  0.00  0.00    +0.123 C 
ATOM     31  C   UNL     1      36.318 -20.910 -19.390  0.00  0.00    +0.135 C 
ATOM     32  C   UNL     1      35.777 -20.896 -20.766  0.00  0.00    +0.074 C 
ENDBRANCH  26  29
ENDBRANCH  18  24
BRANCH   6  33
ATOM     33  O   UNL     1      31.857 -22.543 -12.345  0.00  0.00    -0.383 OA
ATOM     34  H   UNL     1      32.176 -21.629 -12.307  0.00  0.00    +0.210 HD
ENDBRANCH   6  33
BRANCH   8  35
ATOM     35  O   UNL     1      34.194 -23.619 -18.519  0.00  0.00    -0.384 OA
ATOM     36  H   UNL     1      34.210 -23.930 -19.438  0.00  0.00    +0.210 HD
ENDBRANCH   8  35
TORSDOF 4
ENDMDL
MODEL 3
REMARK VINA RESULT:      17.2      8.250     12.599
REMARK  Name = 6918835
REMARK  4 active torsions:
REMARK  status: ('A' for Active; 'I' for Inactive)
REMARK    1  A    between atoms: C_6  and  O_33
REMARK    2  A    between atoms: C_8  and  O_35
REMARK    3  A    between atoms: C_18  and  C_24
REMARK    4  A    between atoms: C_26  and  C_29
REMARK                            x       y       z     vdW  Elec       q    Type
REMARK                         _______ _______ _______ _____ _____    ______ ____
ROOT
ATOM      1  O   UNL     1      32.973 -22.262 -20.509  0.00  0.00    -0.296 OA
ATOM      2  O   UNL     1      35.604 -17.810 -22.206  0.00  0.00    -0.448 OA
ATOM      3  O   UNL     1      37.879 -18.218 -22.143  0.00  0.00    -0.250 OA
ATOM      4  C   UNL     1      35.130 -21.377 -19.872  0.00  0.00    +0.077 C 
ATOM      5  C   UNL     1      32.998 -19.856 -20.500  0.00  0.00    +0.085 C 
ATOM      6  C   UNL     1      36.029 -20.155 -20.216  0.00  0.00    +0.128 C 
ATOM      7  C   UNL     1      33.652 -21.241 -20.341  0.00  0.00    +0.154 C 
ATOM      8  C   UNL     1      31.701 -19.939 -21.356  0.00  0.00    +0.121 C 
ATOM      9  C   UNL     1      31.913 -20.328 -22.846  0.00  0.00    +0.049 C 
ATOM     10  C   UNL     1      35.105 -21.622 -18.342  0.00  0.00    +0.010 C 
ATOM     11  C   UNL     1      35.702 -22.659 -20.516  0.00  0.00    +0.010 C 
ATOM     12  C   UNL     1      36.312 -20.001 -21.714  0.00  0.00    +0.139 C 
ATOM     13  C   UNL     1      32.690 -19.280 -19.113  0.00  0.00    +0.010 C 
ATOM     14  C   UNL     1      30.567 -20.515 -23.563  0.00  0.00    +0.007 C 
ATOM     15  C   UNL     1      32.735 -19.329 -23.630  0.00  0.00    -0.028 C 
ATOM     16  C   UNL     1      36.715 -18.586 -22.048  0.00  0.00    +0.320 C 
ATOM     17  C   UNL     1      33.738 -19.671 -24.458  0.00  0.00    -0.026 C 
ATOM     18  C   UNL     1      35.806 -16.413 -22.516  0.00  0.00    +0.192 C 
ATOM     19  C   UNL     1      34.585 -18.760 -25.313  0.00  0.00    +0.047 C 
ATOM     20  C   UNL     1      35.985 -16.240 -24.034  0.00  0.00    +0.073 C 
ATOM     21  C   UNL     1      34.115 -17.327 -25.429  0.00  0.00    -0.044 C 
ATOM     22  C   UNL     1      34.717 -16.269 -24.851  0.00  0.00    -0.030 C 
ATOM     23  C   UNL     1      32.903 -17.112 -26.303  0.00  0.00    +0.026 C 
ENDROOT
BRANCH  18  24
ATOM     24  C   UNL     1      34.661 -15.642 -21.939  0.00  0.00    -0.002 C 
ATOM     25  C   UNL     1      33.819 -16.423 -20.965  0.00  0.00    +0.030 C 
ATOM     26  C   UNL     1      34.373 -14.353 -22.207  0.00  0.00    +0.023 C 
BRANCH  26  29
ATOM     27  S   UNL     1      31.520 -12.567 -20.210  0.00  0.00    -0.079 S 
ATOM     28  N   UNL     1      32.722 -12.621 -22.499  0.00  0.00    -0.404 NA
ATOM     29  C   UNL     1      33.293 -13.563 -21.686  0.00  0.00    +0.120 C 
ATOM     30  C   UNL     1      32.796 -13.694 -20.421  0.00  0.00    +0.123 C 
ATOM     31  C   UNL     1      31.765 -12.026 -21.820  0.00  0.00    +0.135 C 
ATOM     32  C   UNL     1      30.908 -10.945 -22.353  0.00  0.00    +0.074 C 
ENDBRANCH  26  29
ENDBRANCH  18  24
BRANCH   6  33
ATOM     33  O   UNL     1      37.284 -20.239 -19.530  0.00  0.00    -0.383 OA
ATOM     34  H   UNL     1      37.269 -19.657 -18.755  0.00  0.00    +0.210 HD
ENDBRANCH   6  33
BRANCH   8  35
ATOM     35  O   UNL     1      31.023 -18.679 -21.291  0.00  0.00    -0.384 OA
ATOM     36  H   UNL     1      31.103 -18.224 -22.144  0.00  0.00    +0.210 HD
ENDBRANCH   8  35
TORSDOF 4
ENDMDL
