MODEL 1
REMARK VINA RESULT:      -6.4      0.000      0.000
REMARK  Name = 215436
REMARK  3 active torsions:
REMARK  status: ('A' for Active; 'I' for Inactive)
REMARK    1  A    between atoms: C_3  and  C_10
REMARK    2  A    between atoms: C_10  and  O_11
REMARK    3  A    between atoms: O_11  and  C_12
REMARK                            x       y       z     vdW  Elec       q    Type
REMARK                         _______ _______ _______ _____ _____    ______ ____
ROOT
ATOM      1  N   UNL     1      35.216 -16.700 -23.914  0.00  0.00    -0.280 N 
ATOM      2  N   UNL     1      35.148 -15.709 -23.009  0.00  0.00    -0.177 NA
ATOM      3  C   UNL     1      34.647 -17.732 -22.075  0.00  0.00    +0.104 A 
ATOM      4  C   UNL     1      34.925 -17.932 -23.406  0.00  0.00    +0.059 A 
ATOM      5  C   UNL     1      34.800 -16.346 -21.888  0.00  0.00    +0.086 A 
ATOM      6  C   UNL     1      34.946 -19.143 -24.243  0.00  0.00    +0.052 C 
ATOM      7  C   UNL     1      34.621 -15.577 -20.643  0.00  0.00    +0.054 C 
ATOM      8  H   UNL     1      35.456 -16.552 -24.857  0.00  0.00    +0.189 HD
ENDROOT
BRANCH   3  10
ATOM      9  O   UNL     1      33.111 -19.050 -20.844  0.00  0.00    -0.245 OA
ATOM     10  C   UNL     1      34.284 -18.745 -21.130  0.00  0.00    +0.344 C 
BRANCH  10  11
ATOM     11  O   UNL     1      35.359 -19.382 -20.538  0.00  0.00    -0.445 OA
BRANCH  11  12
ATOM     12  C   UNL     1      35.175 -20.744 -20.139  0.00  0.00    +0.209 C 
ATOM     13  C   UNL     1      36.426 -21.226 -19.435  0.00  0.00    +0.051 C 
ENDBRANCH  11  12
ENDBRANCH  10  11
ENDBRANCH   3  10
TORSDOF 3
ENDMDL
MODEL 2
REMARK VINA RESULT:      -6.3      3.613      5.127
REMARK  Name = 215436
REMARK  3 active torsions:
REMARK  status: ('A' for Active; 'I' for Inactive)
REMARK    1  A    between atoms: C_3  and  C_10
REMARK    2  A    between atoms: C_10  and  O_11
REMARK    3  A    between atoms: O_11  and  C_12
REMARK                            x       y       z     vdW  Elec       q    Type
REMARK                         _______ _______ _______ _____ _____    ______ ____
ROOT
ATOM      1  N   UNL     1      36.429 -20.092 -19.605  0.00  0.00    -0.280 N 
ATOM      2  N   UNL     1      35.521 -19.524 -20.418  0.00  0.00    -0.177 NA
ATOM      3  C   UNL     1      34.723 -21.452 -19.490  0.00  0.00    +0.104 A 
ATOM      4  C   UNL     1      36.000 -21.249 -19.024  0.00  0.00    +0.059 A 
ATOM      5  C   UNL     1      34.482 -20.359 -20.343  0.00  0.00    +0.086 A 
ATOM      6  C   UNL     1      36.853 -22.019 -18.102  0.00  0.00    +0.052 C 
ATOM      7  C   UNL     1      33.261 -20.068 -21.117  0.00  0.00    +0.054 C 
ATOM      8  H   UNL     1      37.321 -19.708 -19.443  0.00  0.00    +0.189 HD
ENDROOT
BRANCH   3  10
ATOM      9  O   UNL     1      34.003 -23.706 -19.595  0.00  0.00    -0.245 OA
ATOM     10  C   UNL     1      33.868 -22.550 -19.151  0.00  0.00    +0.344 C 
BRANCH  10  11
ATOM     11  O   UNL     1      32.851 -22.230 -18.273  0.00  0.00    -0.445 OA
BRANCH  11  12
ATOM     12  C   UNL     1      32.694 -23.064 -17.120  0.00  0.00    +0.209 C 
ATOM     13  C   UNL     1      31.280 -22.920 -16.596  0.00  0.00    +0.051 C 
ENDBRANCH  11  12
ENDBRANCH  10  11
ENDBRANCH   3  10
TORSDOF 3
ENDMDL
MODEL 3
REMARK VINA RESULT:      -6.2      3.711      5.653
REMARK  Name = 215436
REMARK  3 active torsions:
REMARK  status: ('A' for Active; 'I' for Inactive)
REMARK    1  A    between atoms: C_3  and  C_10
REMARK    2  A    between atoms: C_10  and  O_11
REMARK    3  A    between atoms: O_11  and  C_12
REMARK                            x       y       z     vdW  Elec       q    Type
REMARK                         _______ _______ _______ _____ _____    ______ ____
ROOT
ATOM      1  N   UNL     1      35.037 -17.310 -24.712  0.00  0.00    -0.280 N 
ATOM      2  N   UNL     1      34.448 -16.829 -25.821  0.00  0.00    -0.177 NA
ATOM      3  C   UNL     1      33.926 -15.575 -23.984  0.00  0.00    +0.104 A 
ATOM      4  C   UNL     1      34.756 -16.595 -23.585  0.00  0.00    +0.059 A 
ATOM      5  C   UNL     1      33.772 -15.770 -25.369  0.00  0.00    +0.086 A 
ATOM      6  C   UNL     1      35.308 -16.966 -22.271  0.00  0.00    +0.052 C 
ATOM      7  C   UNL     1      32.978 -14.961 -26.313  0.00  0.00    +0.054 C 
ATOM      8  H   UNL     1      35.618 -18.104 -24.713  0.00  0.00    +0.189 HD
ENDROOT
BRANCH   3  10
ATOM      9  O   UNL     1      32.361 -14.726 -22.421  0.00  0.00    -0.245 OA
ATOM     10  C   UNL     1      33.367 -14.564 -23.138  0.00  0.00    +0.344 C 
BRANCH  10  11
ATOM     11  O   UNL     1      34.041 -13.358 -23.171  0.00  0.00    -0.445 OA
BRANCH  11  12
ATOM     12  C   UNL     1      33.309 -12.211 -23.618  0.00  0.00    +0.209 C 
ATOM     13  C   UNL     1      33.988 -11.640 -24.845  0.00  0.00    +0.051 C 
ENDBRANCH  11  12
ENDBRANCH  10  11
ENDBRANCH   3  10
TORSDOF 3
ENDMDL
MODEL 4
REMARK VINA RESULT:      -6.2      1.281      1.598
REMARK  Name = 215436
REMARK  3 active torsions:
REMARK  status: ('A' for Active; 'I' for Inactive)
REMARK    1  A    between atoms: C_3  and  C_10
REMARK    2  A    between atoms: C_10  and  O_11
REMARK    3  A    between atoms: O_11  and  C_12
REMARK                            x       y       z     vdW  Elec       q    Type
REMARK                         _______ _______ _______ _____ _____    ______ ____
ROOT
ATOM      1  N   UNL     1      34.554 -16.102 -24.046  0.00  0.00    -0.280 N 
ATOM      2  N   UNL     1      34.479 -15.253 -23.007  0.00  0.00    -0.177 NA
ATOM      3  C   UNL     1      34.753 -17.409 -22.307  0.00  0.00    +0.104 A 
ATOM      4  C   UNL     1      34.718 -17.406 -23.681  0.00  0.00    +0.059 A 
ATOM      5  C   UNL     1      34.602 -16.057 -21.948  0.00  0.00    +0.086 A 
ATOM      6  C   UNL     1      34.821 -18.485 -24.677  0.00  0.00    +0.052 C 
ATOM      7  C   UNL     1      34.567 -15.480 -20.592  0.00  0.00    +0.054 C 
ATOM      8  H   UNL     1      34.497 -15.810 -24.984  0.00  0.00    +0.189 HD
ENDROOT
BRANCH   3  10
ATOM      9  O   UNL     1      35.817 -18.700 -20.630  0.00  0.00    -0.245 OA
ATOM     10  C   UNL     1      34.910 -18.562 -21.472  0.00  0.00    +0.344 C 
BRANCH  10  11
ATOM     11  O   UNL     1      33.957 -19.543 -21.671  0.00  0.00    -0.445 OA
BRANCH  11  12
ATOM     12  C   UNL     1      32.956 -19.698 -20.660  0.00  0.00    +0.209 C 
ATOM     13  C   UNL     1      33.264 -20.937 -19.845  0.00  0.00    +0.051 C 
ENDBRANCH  11  12
ENDBRANCH  10  11
ENDBRANCH   3  10
TORSDOF 3
ENDMDL
MODEL 5
REMARK VINA RESULT:      -6.2      1.334      2.814
REMARK  Name = 215436
REMARK  3 active torsions:
REMARK  status: ('A' for Active; 'I' for Inactive)
REMARK    1  A    between atoms: C_3  and  C_10
REMARK    2  A    between atoms: C_10  and  O_11
REMARK    3  A    between atoms: O_11  and  C_12
REMARK                            x       y       z     vdW  Elec       q    Type
REMARK                         _______ _______ _______ _____ _____    ______ ____
ROOT
ATOM      1  N   UNL     1      34.356 -15.598 -23.127  0.00  0.00    -0.280 N 
ATOM      2  N   UNL     1      34.389 -16.372 -24.226  0.00  0.00    -0.177 NA
ATOM      3  C   UNL     1      34.815 -17.581 -22.335  0.00  0.00    +0.104 A 
ATOM      4  C   UNL     1      34.604 -16.274 -21.969  0.00  0.00    +0.059 A 
ATOM      5  C   UNL     1      34.669 -17.582 -23.735  0.00  0.00    +0.086 A 
ATOM      6  C   UNL     1      34.613 -15.597 -20.661  0.00  0.00    +0.052 C 
ATOM      7  C   UNL     1      34.792 -18.727 -24.656  0.00  0.00    +0.054 C 
ATOM      8  H   UNL     1      34.168 -14.632 -23.156  0.00  0.00    +0.189 HD
ENDROOT
BRANCH   3  10
ATOM      9  O   UNL     1      36.053 -18.664 -20.631  0.00  0.00    -0.245 OA
ATOM     10  C   UNL     1      35.114 -18.666 -21.449  0.00  0.00    +0.344 C 
BRANCH  10  11
ATOM     11  O   UNL     1      34.264 -19.749 -21.568  0.00  0.00    -0.445 OA
BRANCH  11  12
ATOM     12  C   UNL     1      33.096 -19.759 -20.740  0.00  0.00    +0.209 C 
ATOM     13  C   UNL     1      33.186 -20.923 -19.775  0.00  0.00    +0.051 C 
ENDBRANCH  11  12
ENDBRANCH  10  11
ENDBRANCH   3  10
TORSDOF 3
ENDMDL
MODEL 6
REMARK VINA RESULT:      -6.1      3.411      4.985
REMARK  Name = 215436
REMARK  3 active torsions:
REMARK  status: ('A' for Active; 'I' for Inactive)
REMARK    1  A    between atoms: C_3  and  C_10
REMARK    2  A    between atoms: C_10  and  O_11
REMARK    3  A    between atoms: O_11  and  C_12
REMARK                            x       y       z     vdW  Elec       q    Type
REMARK                         _______ _______ _______ _____ _____    ______ ____
ROOT
ATOM      1  N   UNL     1      34.841 -17.300 -24.711  0.00  0.00    -0.280 N 
ATOM      2  N   UNL     1      34.271 -16.865 -25.849  0.00  0.00    -0.177 NA
ATOM      3  C   UNL     1      33.918 -15.409 -24.125  0.00  0.00    +0.104 A 
ATOM      4  C   UNL     1      34.658 -16.464 -23.650  0.00  0.00    +0.059 A 
ATOM      5  C   UNL     1      33.710 -15.710 -25.484  0.00  0.00    +0.086 A 
ATOM      6  C   UNL     1      35.206 -16.769 -22.317  0.00  0.00    +0.052 C 
ATOM      7  C   UNL     1      32.972 -14.916 -26.484  0.00  0.00    +0.054 C 
ATOM      8  H   UNL     1      35.344 -18.144 -24.650  0.00  0.00    +0.189 HD
ENDROOT
BRANCH   3  10
ATOM      9  O   UNL     1      34.031 -13.162 -23.386  0.00  0.00    -0.245 OA
ATOM     10  C   UNL     1      33.479 -14.278 -23.365  0.00  0.00    +0.344 C 
BRANCH  10  11
ATOM     11  O   UNL     1      32.367 -14.516 -22.580  0.00  0.00    -0.445 OA
BRANCH  11  12
ATOM     12  C   UNL     1      32.348 -13.929 -21.275  0.00  0.00    +0.209 C 
ATOM     13  C   UNL     1      32.781 -14.967 -20.260  0.00  0.00    +0.051 C 
ENDBRANCH  11  12
ENDBRANCH  10  11
ENDBRANCH   3  10
TORSDOF 3
ENDMDL
MODEL 7
REMARK VINA RESULT:      -6.1      3.355      4.892
REMARK  Name = 215436
REMARK  3 active torsions:
REMARK  status: ('A' for Active; 'I' for Inactive)
REMARK    1  A    between atoms: C_3  and  C_10
REMARK    2  A    between atoms: C_10  and  O_11
REMARK    3  A    between atoms: O_11  and  C_12
REMARK                            x       y       z     vdW  Elec       q    Type
REMARK                         _______ _______ _______ _____ _____    ______ ____
ROOT
ATOM      1  N   UNL     1      34.223 -22.034 -19.047  0.00  0.00    -0.280 N 
ATOM      2  N   UNL     1      33.011 -21.604 -19.438  0.00  0.00    -0.177 NA
ATOM      3  C   UNL     1      34.682 -20.327 -20.330  0.00  0.00    +0.104 A 
ATOM      4  C   UNL     1      35.257 -21.304 -19.553  0.00  0.00    +0.059 A 
ATOM      5  C   UNL     1      33.299 -20.562 -20.222  0.00  0.00    +0.086 A 
ATOM      6  C   UNL     1      36.661 -21.620 -19.238  0.00  0.00    +0.052 C 
ATOM      7  C   UNL     1      32.202 -19.807 -20.855  0.00  0.00    +0.054 C 
ATOM      8  H   UNL     1      34.353 -22.807 -18.450  0.00  0.00    +0.189 HD
ENDROOT
BRANCH   3  10
ATOM      9  O   UNL     1      35.986 -18.361 -20.545  0.00  0.00    -0.245 OA
ATOM     10  C   UNL     1      35.381 -19.317 -21.066  0.00  0.00    +0.344 C 
BRANCH  10  11
ATOM     11  O   UNL     1      35.335 -19.478 -22.438  0.00  0.00    -0.445 OA
BRANCH  11  12
ATOM     12  C   UNL     1      34.850 -18.376 -23.212  0.00  0.00    +0.209 C 
ATOM     13  C   UNL     1      34.517 -18.861 -24.607  0.00  0.00    +0.051 C 
ENDBRANCH  11  12
ENDBRANCH  10  11
ENDBRANCH   3  10
TORSDOF 3
ENDMDL
MODEL 8
REMARK VINA RESULT:      -6.1      3.351      4.941
REMARK  Name = 215436
REMARK  3 active torsions:
REMARK  status: ('A' for Active; 'I' for Inactive)
REMARK    1  A    between atoms: C_3  and  C_10
REMARK    2  A    between atoms: C_10  and  O_11
REMARK    3  A    between atoms: O_11  and  C_12
REMARK                            x       y       z     vdW  Elec       q    Type
REMARK                         _______ _______ _______ _____ _____    ______ ____
ROOT
ATOM      1  N   UNL     1      33.146 -21.457 -19.369  0.00  0.00    -0.280 N 
ATOM      2  N   UNL     1      34.291 -22.016 -18.940  0.00  0.00    -0.177 NA
ATOM      3  C   UNL     1      34.689 -20.278 -20.368  0.00  0.00    +0.104 A 
ATOM      4  C   UNL     1      33.329 -20.413 -20.226  0.00  0.00    +0.059 A 
ATOM      5  C   UNL     1      35.229 -21.290 -19.553  0.00  0.00    +0.086 A 
ATOM      6  C   UNL     1      32.194 -19.673 -20.805  0.00  0.00    +0.052 C 
ATOM      7  C   UNL     1      36.652 -21.607 -19.328  0.00  0.00    +0.054 C 
ATOM      8  H   UNL     1      32.256 -21.773 -19.089  0.00  0.00    +0.189 HD
ENDROOT
BRANCH   3  10
ATOM      9  O   UNL     1      35.998 -18.337 -20.728  0.00  0.00    -0.245 OA
ATOM     10  C   UNL     1      35.359 -19.306 -21.178  0.00  0.00    +0.344 C 
BRANCH  10  11
ATOM     11  O   UNL     1      35.243 -19.522 -22.539  0.00  0.00    -0.445 OA
BRANCH  11  12
ATOM     12  C   UNL     1      35.429 -18.394 -23.400  0.00  0.00    +0.209 C 
ATOM     13  C   UNL     1      34.552 -18.557 -24.624  0.00  0.00    +0.051 C 
ENDBRANCH  11  12
ENDBRANCH  10  11
ENDBRANCH   3  10
TORSDOF 3
ENDMDL
MODEL 9
REMARK VINA RESULT:      -6.0      8.032     10.476
REMARK  Name = 215436
REMARK  3 active torsions:
REMARK  status: ('A' for Active; 'I' for Inactive)
REMARK    1  A    between atoms: C_3  and  C_10
REMARK    2  A    between atoms: C_10  and  O_11
REMARK    3  A    between atoms: O_11  and  C_12
REMARK                            x       y       z     vdW  Elec       q    Type
REMARK                         _______ _______ _______ _____ _____    ______ ____
ROOT
ATOM      1  N   UNL     1      36.464 -26.841 -14.982  0.00  0.00    -0.280 N 
ATOM      2  N   UNL     1      37.764 -27.157 -14.854  0.00  0.00    -0.177 NA
ATOM      3  C   UNL     1      37.427 -24.905 -14.671  0.00  0.00    +0.104 A 
ATOM      4  C   UNL     1      36.209 -25.505 -14.880  0.00  0.00    +0.059 A 
ATOM      5  C   UNL     1      38.347 -25.970 -14.664  0.00  0.00    +0.086 A 
ATOM      6  C   UNL     1      34.844 -24.963 -14.994  0.00  0.00    +0.052 C 
ATOM      7  C   UNL     1      39.808 -25.902 -14.479  0.00  0.00    +0.054 C 
ATOM      8  H   UNL     1      35.759 -27.512 -15.134  0.00  0.00    +0.189 HD
ENDROOT
BRANCH   3  10
ATOM      9  O   UNL     1      37.693 -22.922 -13.403  0.00  0.00    -0.245 OA
ATOM     10  C   UNL     1      37.657 -23.501 -14.505  0.00  0.00    +0.344 C 
BRANCH  10  11
ATOM     11  O   UNL     1      37.841 -22.811 -15.688  0.00  0.00    -0.445 OA
BRANCH  11  12
ATOM     12  C   UNL     1      36.761 -21.988 -16.141  0.00  0.00    +0.209 C 
ATOM     13  C   UNL     1      36.864 -21.822 -17.643  0.00  0.00    +0.051 C 
ENDBRANCH  11  12
ENDBRANCH  10  11
ENDBRANCH   3  10
TORSDOF 3
ENDMDL
