MODEL 1
REMARK VINA RESULT:      -8.4      0.000      0.000
REMARK  Name = 13916
REMARK  2 active torsions:
REMARK  status: ('A' for Active; 'I' for Inactive)
REMARK    1  A    between atoms: C_2  and  C_10
REMARK    2  A    between atoms: C_3  and  N_17
REMARK                            x       y       z     vdW  Elec       q    Type
REMARK                         _______ _______ _______ _____ _____    ______ ____
ROOT
ATOM      1 CL   UNL     1      34.559 -14.700 -23.314  0.00  0.00    -0.081 Cl
ATOM      2  C   UNL     1      34.404 -18.647 -22.537  0.00  0.00    +0.025 C 
ATOM      3  C   UNL     1      34.385 -17.262 -22.368  0.00  0.00    +0.153 C 
ATOM      4  C   UNL     1      34.612 -19.191 -23.804  0.00  0.00    +0.002 C 
ATOM      5  C   UNL     1      34.573 -16.423 -23.466  0.00  0.00    +0.080 C 
ATOM      6  C   UNL     1      34.800 -18.352 -24.902  0.00  0.00    +0.001 C 
ATOM      7  C   UNL     1      34.781 -16.968 -24.733  0.00  0.00    +0.013 C 
ENDROOT
BRANCH   2  10
ATOM      8 CL   UNL     1      36.833 -19.848 -20.548  0.00  0.00    -0.081 Cl
ATOM      9  N   UNL     1      33.128 -20.840 -19.994  0.00  0.00    -0.310 N 
ATOM     10  C   UNL     1      34.214 -19.548 -21.430  0.00  0.00    +0.028 C 
ATOM     11  C   UNL     1      35.154 -20.110 -20.536  0.00  0.00    +0.074 C 
ATOM     12  C   UNL     1      32.970 -20.013 -21.075  0.00  0.00    +0.063 C 
ATOM     13  C   UNL     1      34.454 -20.907 -19.657  0.00  0.00    +0.073 C 
ATOM     14  H   UNL     1      32.400 -21.315 -19.532  0.00  0.00    +0.152 HD
ENDBRANCH   2  10
BRANCH   3  17
ATOM     15  O   UNL     1      35.157 -16.557 -20.312  0.00  0.00    -0.126 OA
ATOM     16  O   UNL     1      33.009 -16.391 -20.735  0.00  0.00    -0.126 OA
ATOM     17  N   UNL     1      34.172 -16.707 -21.069  0.00  0.00    +0.059 N 
ENDBRANCH   3  17
TORSDOF 2
ENDMDL
MODEL 2
REMARK VINA RESULT:      -8.1      1.627      1.999
REMARK  Name = 13916
REMARK  2 active torsions:
REMARK  status: ('A' for Active; 'I' for Inactive)
REMARK    1  A    between atoms: C_2  and  C_10
REMARK    2  A    between atoms: C_3  and  N_17
REMARK                            x       y       z     vdW  Elec       q    Type
REMARK                         _______ _______ _______ _____ _____    ______ ____
ROOT
ATOM      1 CL   UNL     1      33.208 -14.224 -23.168  0.00  0.00    -0.081 Cl
ATOM      2  C   UNL     1      34.832 -17.879 -22.713  0.00  0.00    +0.025 C 
ATOM      3  C   UNL     1      34.261 -16.639 -22.427  0.00  0.00    +0.153 C 
ATOM      4  C   UNL     1      35.062 -18.251 -24.037  0.00  0.00    +0.002 C 
ATOM      5  C   UNL     1      33.919 -15.773 -23.465  0.00  0.00    +0.080 C 
ATOM      6  C   UNL     1      34.719 -17.385 -25.075  0.00  0.00    +0.001 C 
ATOM      7  C   UNL     1      34.148 -16.145 -24.789  0.00  0.00    +0.013 C 
ENDROOT
BRANCH   2  10
ATOM      8 CL   UNL     1      32.732 -19.946 -21.094  0.00  0.00    -0.081 Cl
ATOM      9  N   UNL     1      36.512 -19.876 -20.244  0.00  0.00    -0.310 N 
ATOM     10  C   UNL     1      35.200 -18.803 -21.670  0.00  0.00    +0.028 C 
ATOM     11  C   UNL     1      34.407 -19.709 -20.930  0.00  0.00    +0.074 C 
ATOM     12  C   UNL     1      36.496 -18.925 -21.230  0.00  0.00    +0.063 C 
ATOM     13  C   UNL     1      35.245 -20.361 -20.053  0.00  0.00    +0.073 C 
ATOM     14  H   UNL     1      37.312 -20.167 -19.749  0.00  0.00    +0.152 HD
ENDBRANCH   2  10
BRANCH   3  17
ATOM     15  O   UNL     1      32.875 -16.393 -20.599  0.00  0.00    -0.126 OA
ATOM     16  O   UNL     1      34.982 -15.808 -20.400  0.00  0.00    -0.126 OA
ATOM     17  N   UNL     1      34.027 -16.260 -21.069  0.00  0.00    +0.059 N 
ENDBRANCH   3  17
TORSDOF 2
ENDMDL
MODEL 3
REMARK VINA RESULT:      -7.3      2.543      3.117
REMARK  Name = 13916
REMARK  2 active torsions:
REMARK  status: ('A' for Active; 'I' for Inactive)
REMARK    1  A    between atoms: C_2  and  C_10
REMARK    2  A    between atoms: C_3  and  N_17
REMARK                            x       y       z     vdW  Elec       q    Type
REMARK                         _______ _______ _______ _____ _____    ______ ____
ROOT
ATOM      1 CL   UNL     1      34.078 -15.652 -25.072  0.00  0.00    -0.081 Cl
ATOM      2  C   UNL     1      34.874 -17.389 -21.529  0.00  0.00    +0.025 C 
ATOM      3  C   UNL     1      34.667 -17.203 -22.895  0.00  0.00    +0.153 C 
ATOM      4  C   UNL     1      34.757 -16.309 -20.654  0.00  0.00    +0.002 C 
ATOM      5  C   UNL     1      34.344 -15.939 -23.387  0.00  0.00    +0.080 C 
ATOM      6  C   UNL     1      34.435 -15.044 -21.145  0.00  0.00    +0.001 C 
ATOM      7  C   UNL     1      34.228 -14.859 -22.512  0.00  0.00    +0.013 C 
ENDROOT
BRANCH   2  10
ATOM      8 CL   UNL     1      32.689 -19.837 -20.799  0.00  0.00    -0.081 Cl
ATOM      9  N   UNL     1      36.488 -20.309 -20.197  0.00  0.00    -0.310 N 
ATOM     10  C   UNL     1      35.210 -18.678 -20.981  0.00  0.00    +0.028 C 
ATOM     11  C   UNL     1      34.380 -19.770 -20.640  0.00  0.00    +0.074 C 
ATOM     12  C   UNL     1      36.507 -19.034 -20.699  0.00  0.00    +0.063 C 
ATOM     13  C   UNL     1      35.198 -20.768 -20.156  0.00  0.00    +0.073 C 
ATOM     14  H   UNL     1      37.281 -20.817 -19.908  0.00  0.00    +0.152 HD
ENDBRANCH   2  10
BRANCH   3  17
ATOM     15  O   UNL     1      35.930 -18.748 -24.053  0.00  0.00    -0.126 OA
ATOM     16  O   UNL     1      33.747 -18.804 -24.278  0.00  0.00    -0.126 OA
ATOM     17  N   UNL     1      34.788 -18.311 -23.790  0.00  0.00    +0.059 N 
ENDBRANCH   3  17
TORSDOF 2
ENDMDL
MODEL 4
REMARK VINA RESULT:      -7.2      9.769     11.409
REMARK  Name = 13916
REMARK  2 active torsions:
REMARK  status: ('A' for Active; 'I' for Inactive)
REMARK    1  A    between atoms: C_2  and  C_10
REMARK    2  A    between atoms: C_3  and  N_17
REMARK                            x       y       z     vdW  Elec       q    Type
REMARK                         _______ _______ _______ _____ _____    ______ ____
ROOT
ATOM      1 CL   UNL     1      34.262  -5.930 -25.975  0.00  0.00    -0.081 Cl
ATOM      2  C   UNL     1      32.166  -6.880 -22.672  0.00  0.00    +0.025 C 
ATOM      3  C   UNL     1      33.146  -6.883 -23.664  0.00  0.00    +0.153 C 
ATOM      4  C   UNL     1      31.114  -5.966 -22.734  0.00  0.00    +0.002 C 
ATOM      5  C   UNL     1      33.074  -5.972 -24.718  0.00  0.00    +0.080 C 
ATOM      6  C   UNL     1      31.043  -5.054 -23.787  0.00  0.00    +0.001 C 
ATOM      7  C   UNL     1      32.023  -5.057 -24.779  0.00  0.00    +0.013 C 
ENDROOT
BRANCH   2  10
ATOM      8 CL   UNL     1      31.098 -10.066 -22.746  0.00  0.00    -0.081 Cl
ATOM      9  N   UNL     1      32.597  -8.538 -19.515  0.00  0.00    -0.310 N 
ATOM     10  C   UNL     1      32.203  -7.804 -21.567  0.00  0.00    +0.028 C 
ATOM     11  C   UNL     1      31.786  -9.152 -21.489  0.00  0.00    +0.074 C 
ATOM     12  C   UNL     1      32.701  -7.447 -20.337  0.00  0.00    +0.063 C 
ATOM     13  C   UNL     1      32.041  -9.583 -20.205  0.00  0.00    +0.073 C 
ATOM     14  H   UNL     1      32.878  -8.567 -18.571  0.00  0.00    +0.152 HD
ENDBRANCH   2  10
BRANCH   3  17
ATOM     15  O   UNL     1      34.063  -8.952 -24.107  0.00  0.00    -0.126 OA
ATOM     16  O   UNL     1      35.284  -7.476 -23.036  0.00  0.00    -0.126 OA
ATOM     17  N   UNL     1      34.222  -7.820 -23.599  0.00  0.00    +0.059 N 
ENDBRANCH   3  17
TORSDOF 2
ENDMDL
MODEL 5
REMARK VINA RESULT:      -7.2      2.261      4.889
REMARK  Name = 13916
REMARK  2 active torsions:
REMARK  status: ('A' for Active; 'I' for Inactive)
REMARK    1  A    between atoms: C_2  and  C_10
REMARK    2  A    between atoms: C_3  and  N_17
REMARK                            x       y       z     vdW  Elec       q    Type
REMARK                         _______ _______ _______ _____ _____    ______ ____
ROOT
ATOM      1 CL   UNL     1      33.215 -22.144 -18.891  0.00  0.00    -0.081 Cl
ATOM      2  C   UNL     1      35.314 -19.394 -20.948  0.00  0.00    +0.025 C 
ATOM      3  C   UNL     1      34.250 -20.125 -20.421  0.00  0.00    +0.153 C 
ATOM      4  C   UNL     1      36.626 -19.743 -20.628  0.00  0.00    +0.002 C 
ATOM      5  C   UNL     1      34.497 -21.204 -19.574  0.00  0.00    +0.080 C 
ATOM      6  C   UNL     1      36.873 -20.822 -19.779  0.00  0.00    +0.001 C 
ATOM      7  C   UNL     1      35.808 -21.553 -19.252  0.00  0.00    +0.013 C 
ENDROOT
BRANCH   2  10
ATOM      8 CL   UNL     1      34.850 -19.570 -24.273  0.00  0.00    -0.081 Cl
ATOM      9  N   UNL     1      34.850 -16.157 -22.437  0.00  0.00    -0.310 N 
ATOM     10  C   UNL     1      35.102 -18.273 -21.828  0.00  0.00    +0.028 C 
ATOM     11  C   UNL     1      34.898 -18.233 -23.226  0.00  0.00    +0.074 C 
ATOM     12  C   UNL     1      35.068 -16.979 -21.363  0.00  0.00    +0.063 C 
ATOM     13  C   UNL     1      34.745 -16.909 -23.577  0.00  0.00    +0.073 C 
ATOM     14  H   UNL     1      34.781 -15.176 -22.396  0.00  0.00    +0.152 HD
ENDBRANCH   2  10
BRANCH   3  17
ATOM     15  O   UNL     1      32.455 -18.679 -20.326  0.00  0.00    -0.126 OA
ATOM     16  O   UNL     1      32.232 -20.548 -21.455  0.00  0.00    -0.126 OA
ATOM     17  N   UNL     1      32.907 -19.765 -20.752  0.00  0.00    +0.059 N 
ENDBRANCH   3  17
TORSDOF 2
ENDMDL
MODEL 6
REMARK VINA RESULT:      -7.1     10.036     11.389
REMARK  Name = 13916
REMARK  2 active torsions:
REMARK  status: ('A' for Active; 'I' for Inactive)
REMARK    1  A    between atoms: C_2  and  C_10
REMARK    2  A    between atoms: C_3  and  N_17
REMARK                            x       y       z     vdW  Elec       q    Type
REMARK                         _______ _______ _______ _____ _____    ______ ____
ROOT
ATOM      1 CL   UNL     1      31.825  -4.776 -25.615  0.00  0.00    -0.081 Cl
ATOM      2  C   UNL     1      33.193  -7.377 -22.864  0.00  0.00    +0.025 C 
ATOM      3  C   UNL     1      32.363  -6.492 -23.552  0.00  0.00    +0.153 C 
ATOM      4  C   UNL     1      34.473  -7.649 -23.347  0.00  0.00    +0.002 C 
ATOM      5  C   UNL     1      32.812  -5.881 -24.722  0.00  0.00    +0.080 C 
ATOM      6  C   UNL     1      34.922  -7.039 -24.518  0.00  0.00    +0.001 C 
ATOM      7  C   UNL     1      34.092  -6.154 -25.205  0.00  0.00    +0.013 C 
ENDROOT
BRANCH   2  10
ATOM      8 CL   UNL     1      31.670 -10.368 -22.679  0.00  0.00    -0.081 Cl
ATOM      9  N   UNL     1      32.447  -8.324 -19.480  0.00  0.00    -0.310 N 
ATOM     10  C   UNL     1      32.767  -8.030 -21.653  0.00  0.00    +0.028 C 
ATOM     11  C   UNL     1      32.125  -9.274 -21.461  0.00  0.00    +0.074 C 
ATOM     12  C   UNL     1      32.957  -7.462 -20.415  0.00  0.00    +0.063 C 
ATOM     13  C   UNL     1      31.938  -9.431 -20.105  0.00  0.00    +0.073 C 
ATOM     14  H   UNL     1      32.447  -8.170 -18.508  0.00  0.00    +0.152 HD
ENDBRANCH   2  10
BRANCH   3  17
ATOM     15  O   UNL     1      30.117  -6.984 -23.369  0.00  0.00    -0.126 OA
ATOM     16  O   UNL     1      30.887  -5.213 -22.325  0.00  0.00    -0.126 OA
ATOM     17  N   UNL     1      31.053  -6.215 -23.055  0.00  0.00    +0.059 N 
ENDBRANCH   3  17
TORSDOF 2
ENDMDL
MODEL 7
REMARK VINA RESULT:      -6.9      2.036      4.978
REMARK  Name = 13916
REMARK  2 active torsions:
REMARK  status: ('A' for Active; 'I' for Inactive)
REMARK    1  A    between atoms: C_2  and  C_10
REMARK    2  A    between atoms: C_3  and  N_17
REMARK                            x       y       z     vdW  Elec       q    Type
REMARK                         _______ _______ _______ _____ _____    ______ ____
ROOT
ATOM      1 CL   UNL     1      34.520 -19.396 -20.736  0.00  0.00    -0.081 Cl
ATOM      2  C   UNL     1      34.364 -16.604 -23.632  0.00  0.00    +0.025 C 
ATOM      3  C   UNL     1      34.309 -17.219 -22.381  0.00  0.00    +0.153 C 
ATOM      4  C   UNL     1      34.685 -17.354 -24.763  0.00  0.00    +0.002 C 
ATOM      5  C   UNL     1      34.574 -18.582 -22.262  0.00  0.00    +0.080 C 
ATOM      6  C   UNL     1      34.951 -18.718 -24.644  0.00  0.00    +0.001 C 
ATOM      7  C   UNL     1      34.895 -19.332 -23.393  0.00  0.00    +0.013 C 
ENDROOT
BRANCH   2  10
ATOM      8 CL   UNL     1      32.745 -15.210 -26.227  0.00  0.00    -0.081 Cl
ATOM      9  N   UNL     1      34.094 -13.036 -23.316  0.00  0.00    -0.310 N 
ATOM     10  C   UNL     1      34.097 -15.198 -23.798  0.00  0.00    +0.028 C 
ATOM     11  C   UNL     1      33.431 -14.511 -24.838  0.00  0.00    +0.074 C 
ATOM     12  C   UNL     1      34.496 -14.267 -22.869  0.00  0.00    +0.063 C 
ATOM     13  C   UNL     1      33.444 -13.172 -24.515  0.00  0.00    +0.073 C 
ATOM     14  H   UNL     1      34.249 -12.184 -22.848  0.00  0.00    +0.152 HD
ENDBRANCH   2  10
BRANCH   3  17
ATOM     15  O   UNL     1      34.909 -16.023 -20.502  0.00  0.00    -0.126 OA
ATOM     16  O   UNL     1      32.775 -16.226 -20.973  0.00  0.00    -0.126 OA
ATOM     17  N   UNL     1      33.980 -16.448 -21.224  0.00  0.00    +0.059 N 
ENDBRANCH   3  17
TORSDOF 2
ENDMDL
MODEL 8
REMARK VINA RESULT:      -6.9      7.679      9.622
REMARK  Name = 13916
REMARK  2 active torsions:
REMARK  status: ('A' for Active; 'I' for Inactive)
REMARK    1  A    between atoms: C_2  and  C_10
REMARK    2  A    between atoms: C_3  and  N_17
REMARK                            x       y       z     vdW  Elec       q    Type
REMARK                         _______ _______ _______ _____ _____    ______ ____
ROOT
ATOM      1 CL   UNL     1      33.504 -23.355 -17.241  0.00  0.00    -0.081 Cl
ATOM      2  C   UNL     1      37.078 -23.512 -15.395  0.00  0.00    +0.025 C 
ATOM      3  C   UNL     1      35.764 -23.801 -15.763  0.00  0.00    +0.153 C 
ATOM      4  C   UNL     1      37.758 -22.461 -16.010  0.00  0.00    +0.002 C 
ATOM      5  C   UNL     1      35.131 -23.040 -16.746  0.00  0.00    +0.080 C 
ATOM      6  C   UNL     1      37.126 -21.701 -16.993  0.00  0.00    +0.001 C 
ATOM      7  C   UNL     1      35.812 -21.990 -17.361  0.00  0.00    +0.013 C 
ENDROOT
BRANCH   2  10
ATOM      8 CL   UNL     1      36.769 -23.093 -12.074  0.00  0.00    -0.081 Cl
ATOM      9  N   UNL     1      39.126 -25.801 -13.532  0.00  0.00    -0.310 N 
ATOM     10  C   UNL     1      37.767 -24.273 -14.385  0.00  0.00    +0.028 C 
ATOM     11  C   UNL     1      37.712 -24.182 -12.975  0.00  0.00    +0.074 C 
ATOM     12  C   UNL     1      38.646 -25.280 -14.705  0.00  0.00    +0.063 C 
ATOM     13  C   UNL     1      38.564 -25.141 -12.472  0.00  0.00    +0.073 C 
ATOM     14  H   UNL     1      39.776 -26.538 -13.463  0.00  0.00    +0.152 HD
ENDBRANCH   2  10
BRANCH   3  17
ATOM     15  O   UNL     1      34.264 -24.613 -14.210  0.00  0.00    -0.126 OA
ATOM     16  O   UNL     1      35.288 -26.045 -15.522  0.00  0.00    -0.126 OA
ATOM     17  N   UNL     1      35.069 -24.877 -15.131  0.00  0.00    +0.059 N 
ENDBRANCH   3  17
TORSDOF 2
ENDMDL
MODEL 9
REMARK VINA RESULT:      -6.9      2.386      4.875
REMARK  Name = 13916
REMARK  2 active torsions:
REMARK  status: ('A' for Active; 'I' for Inactive)
REMARK    1  A    between atoms: C_2  and  C_10
REMARK    2  A    between atoms: C_3  and  N_17
REMARK                            x       y       z     vdW  Elec       q    Type
REMARK                         _______ _______ _______ _____ _____    ______ ____
ROOT
ATOM      1 CL   UNL     1      36.320 -21.871 -19.232  0.00  0.00    -0.081 Cl
ATOM      2  C   UNL     1      34.277 -18.965 -21.127  0.00  0.00    +0.025 C 
ATOM      3  C   UNL     1      35.325 -19.710 -20.586  0.00  0.00    +0.153 C 
ATOM      4  C   UNL     1      32.964 -19.417 -21.001  0.00  0.00    +0.002 C 
ATOM      5  C   UNL     1      35.059 -20.906 -19.921  0.00  0.00    +0.080 C 
ATOM      6  C   UNL     1      32.698 -20.613 -20.336  0.00  0.00    +0.001 C 
ATOM      7  C   UNL     1      33.746 -21.358 -19.795  0.00  0.00    +0.013 C 
ENDROOT
BRANCH   2  10
ATOM      8 CL   UNL     1      34.679 -18.623 -24.447  0.00  0.00    -0.081 Cl
ATOM      9  N   UNL     1      34.812 -15.547 -22.094  0.00  0.00    -0.310 N 
ATOM     10  C   UNL     1      34.509 -17.725 -21.822  0.00  0.00    +0.028 C 
ATOM     11  C   UNL     1      34.690 -17.469 -23.200  0.00  0.00    +0.074 C 
ATOM     12  C   UNL     1      34.588 -16.523 -21.159  0.00  0.00    +0.063 C 
ATOM     13  C   UNL     1      34.876 -16.111 -23.341  0.00  0.00    +0.073 C 
ATOM     14  H   UNL     1      34.913 -14.587 -21.899  0.00  0.00    +0.152 HD
ENDBRANCH   2  10
BRANCH   3  17
ATOM     15  O   UNL     1      37.133 -19.063 -21.864  0.00  0.00    -0.126 OA
ATOM     16  O   UNL     1      37.336 -19.037 -19.679  0.00  0.00    -0.126 OA
ATOM     17  N   UNL     1      36.670 -19.245 -20.716  0.00  0.00    +0.059 N 
ENDBRANCH   3  17
TORSDOF 2
ENDMDL
