MODEL 1
REMARK VINA RESULT:      -9.8      0.000      0.000
REMARK  Name = 3083544
REMARK  10 active torsions:
REMARK  status: ('A' for Active; 'I' for Inactive)
REMARK    1  A    between atoms: C_1  and  N_2
REMARK    2  A    between atoms: C_1  and  C_16
REMARK    3  A    between atoms: N_2  and  C_5
REMARK    4  A    between atoms: C_5  and  C_7
REMARK    5  A    between atoms: C_7  and  C_8
REMARK    6  A    between atoms: C_13  and  O_14
REMARK    7  A    between atoms: C_16  and  C_17
REMARK    8  A    between atoms: C_16  and  O_29
REMARK    9  A    between atoms: C_20  and  N_24
REMARK   10  A    between atoms: C_22  and  O_27
REMARK                            x       y       z     vdW  Elec       q    Type
REMARK                         _______ _______ _______ _____ _____    ______ ____
ROOT
ATOM      1  C   UNL     1      34.607 -15.652 -22.883  0.00  0.00    -0.047 C 
ENDROOT
BRANCH   1   2
ATOM      2  N   UNL     1      35.453 -16.576 -23.620  0.00  0.00    +0.387 N 
ATOM      3  H   UNL     1      35.168 -16.583 -24.598  0.00  0.00    -0.084 HD
ATOM      4  H   UNL     1      36.423 -16.272 -23.536  0.00  0.00    -0.084 HD
BRANCH   2   5
ATOM      5  C   UNL     1      35.335 -17.931 -23.074  0.00  0.00    -0.057 C 
ATOM      6  C   UNL     1      34.685 -18.822 -24.133  0.00  0.00    -0.023 C 
BRANCH   5   7
ATOM      7  C   UNL     1      34.529 -17.891 -21.763  0.00  0.00    +0.005 C 
BRANCH   7   8
ATOM      8  C   UNL     1      34.544 -19.197 -21.004  0.00  0.00    -0.024 C 
ATOM      9  C   UNL     1      33.343 -19.787 -20.646  0.00  0.00    -0.001 C 
ATOM     10  C   UNL     1      35.759 -19.781 -20.683  0.00  0.00    -0.001 C 
ATOM     11  C   UNL     1      33.356 -20.994 -19.947  0.00  0.00    +0.037 C 
ATOM     12  C   UNL     1      35.773 -20.988 -19.984  0.00  0.00    +0.037 C 
ATOM     13  C   UNL     1      34.571 -21.594 -19.616  0.00  0.00    +0.139 C 
BRANCH  13  14
ATOM     14  O   UNL     1      34.586 -22.772 -18.933  0.00  0.00    -0.471 OA
ATOM     15  C   UNL     1      33.548 -22.981 -17.977  0.00  0.00    +0.252 C 
ENDBRANCH  13  14
ENDBRANCH   7   8
ENDBRANCH   5   7
ENDBRANCH   2   5
ENDBRANCH   1   2
BRANCH   1  16
ATOM     16  C   UNL     1      33.454 -15.150 -23.761  0.00  0.00    +0.112 C 
BRANCH  16  17
ATOM     17  C   UNL     1      33.173 -13.684 -23.520  0.00  0.00    +0.004 C 
ATOM     18  C   UNL     1      32.166 -13.324 -22.641  0.00  0.00    +0.016 C 
ATOM     19  C   UNL     1      33.929 -12.733 -24.183  0.00  0.00    +0.001 C 
ATOM     20  C   UNL     1      31.907 -11.971 -22.419  0.00  0.00    +0.085 C 
ATOM     21  C   UNL     1      33.670 -11.380 -23.961  0.00  0.00    +0.038 C 
ATOM     22  C   UNL     1      32.659 -11.000 -23.079  0.00  0.00    +0.147 C 
BRANCH  20  24
ATOM     23  O   UNL     1      32.016 -11.120 -19.509  0.00  0.00    -0.265 OA
ATOM     24  N   UNL     1      30.890 -11.606 -21.533  0.00  0.00    -0.274 N 
ATOM     25  C   UNL     1      31.014 -11.224 -20.202  0.00  0.00    +0.304 C 
ATOM     26  H   UNL     1      29.976 -11.620 -21.895  0.00  0.00    +0.155 HD
ENDBRANCH  20  24
BRANCH  22  27
ATOM     27  O   UNL     1      32.421  -9.673 -22.876  0.00  0.00    -0.504 OA
ATOM     28  H   UNL     1      32.869  -9.215 -22.192  0.00  0.00    +0.292 HD
ENDBRANCH  22  27
ENDBRANCH  16  17
BRANCH  16  29
ATOM     29  O   UNL     1      33.772 -15.323 -25.141  0.00  0.00    -0.382 OA
ATOM     30  H   UNL     1      34.689 -15.050 -25.298  0.00  0.00    +0.211 HD
ENDBRANCH  16  29
ENDBRANCH   1  16
TORSDOF 10
ENDMDL
MODEL 2
REMARK VINA RESULT:      -9.6      0.919      1.911
REMARK  Name = 3083544
REMARK  10 active torsions:
REMARK  status: ('A' for Active; 'I' for Inactive)
REMARK    1  A    between atoms: C_1  and  N_2
REMARK    2  A    between atoms: C_1  and  C_16
REMARK    3  A    between atoms: N_2  and  C_5
REMARK    4  A    between atoms: C_5  and  C_7
REMARK    5  A    between atoms: C_7  and  C_8
REMARK    6  A    between atoms: C_13  and  O_14
REMARK    7  A    between atoms: C_16  and  C_17
REMARK    8  A    between atoms: C_16  and  O_29
REMARK    9  A    between atoms: C_20  and  N_24
REMARK   10  A    between atoms: C_22  and  O_27
REMARK                            x       y       z     vdW  Elec       q    Type
REMARK                         _______ _______ _______ _____ _____    ______ ____
ROOT
ATOM      1  C   UNL     1      34.820 -15.759 -22.975  0.00  0.00    -0.047 C 
ENDROOT
BRANCH   1   2
ATOM      2  N   UNL     1      35.269 -16.801 -23.882  0.00  0.00    +0.387 N 
ATOM      3  H   UNL     1      34.642 -16.840 -24.685  0.00  0.00    -0.084 HD
ATOM      4  H   UNL     1      36.218 -16.587 -24.185  0.00  0.00    -0.084 HD
BRANCH   2   5
ATOM      5  C   UNL     1      35.272 -18.104 -23.209  0.00  0.00    -0.057 C 
ATOM      6  C   UNL     1      34.594 -19.121 -24.128  0.00  0.00    -0.023 C 
BRANCH   5   7
ATOM      7  C   UNL     1      34.568 -17.981 -21.846  0.00  0.00    +0.005 C 
BRANCH   7   8
ATOM      8  C   UNL     1      34.588 -19.259 -21.039  0.00  0.00    -0.024 C 
ATOM      9  C   UNL     1      33.390 -19.824 -20.634  0.00  0.00    -0.001 C 
ATOM     10  C   UNL     1      35.805 -19.841 -20.721  0.00  0.00    -0.001 C 
ATOM     11  C   UNL     1      33.408 -21.005 -19.891  0.00  0.00    +0.037 C 
ATOM     12  C   UNL     1      35.823 -21.022 -19.978  0.00  0.00    +0.037 C 
ATOM     13  C   UNL     1      34.625 -21.603 -19.563  0.00  0.00    +0.139 C 
BRANCH  13  14
ATOM     14  O   UNL     1      34.644 -22.754 -18.837  0.00  0.00    -0.471 OA
ATOM     15  C   UNL     1      33.503 -23.029 -18.025  0.00  0.00    +0.252 C 
ENDBRANCH  13  14
ENDBRANCH   7   8
ENDBRANCH   5   7
ENDBRANCH   2   5
ENDBRANCH   1   2
BRANCH   1  16
ATOM     16  C   UNL     1      33.514 -15.127 -23.475  0.00  0.00    +0.112 C 
BRANCH  16  17
ATOM     17  C   UNL     1      32.939 -14.168 -22.456  0.00  0.00    +0.004 C 
ATOM     18  C   UNL     1      32.423 -12.956 -22.884  0.00  0.00    +0.016 C 
ATOM     19  C   UNL     1      32.940 -14.521 -21.118  0.00  0.00    +0.001 C 
ATOM     20  C   UNL     1      31.893 -12.071 -21.945  0.00  0.00    +0.085 C 
ATOM     21  C   UNL     1      32.408 -13.637 -20.179  0.00  0.00    +0.038 C 
ATOM     22  C   UNL     1      31.886 -12.412 -20.592  0.00  0.00    +0.147 C 
BRANCH  20  24
ATOM     23  O   UNL     1      33.249  -9.663 -23.196  0.00  0.00    -0.265 OA
ATOM     24  N   UNL     1      31.373 -10.848 -22.375  0.00  0.00    -0.274 N 
ATOM     25  C   UNL     1      32.058  -9.781 -22.944  0.00  0.00    +0.304 C 
ATOM     26  H   UNL     1      30.403 -10.727 -22.260  0.00  0.00    +0.155 HD
ENDBRANCH  20  24
BRANCH  22  27
ATOM     27  O   UNL     1      31.372 -11.562 -19.659  0.00  0.00    -0.504 OA
ATOM     28  H   UNL     1      31.909 -11.264 -18.951  0.00  0.00    +0.292 HD
ENDBRANCH  22  27
ENDBRANCH  16  17
BRANCH  16  29
ATOM     29  O   UNL     1      33.745 -14.407 -24.685  0.00  0.00    -0.382 OA
ATOM     30  H   UNL     1      33.523 -13.472 -24.553  0.00  0.00    +0.211 HD
ENDBRANCH  16  29
ENDBRANCH   1  16
TORSDOF 10
ENDMDL
MODEL 3
REMARK VINA RESULT:      -9.6      1.656      2.128
REMARK  Name = 3083544
REMARK  10 active torsions:
REMARK  status: ('A' for Active; 'I' for Inactive)
REMARK    1  A    between atoms: C_1  and  N_2
REMARK    2  A    between atoms: C_1  and  C_16
REMARK    3  A    between atoms: N_2  and  C_5
REMARK    4  A    between atoms: C_5  and  C_7
REMARK    5  A    between atoms: C_7  and  C_8
REMARK    6  A    between atoms: C_13  and  O_14
REMARK    7  A    between atoms: C_16  and  C_17
REMARK    8  A    between atoms: C_16  and  O_29
REMARK    9  A    between atoms: C_20  and  N_24
REMARK   10  A    between atoms: C_22  and  O_27
REMARK                            x       y       z     vdW  Elec       q    Type
REMARK                         _______ _______ _______ _____ _____    ______ ____
ROOT
ATOM      1  C   UNL     1      34.398 -15.752 -21.367  0.00  0.00    -0.047 C 
ENDROOT
BRANCH   1   2
ATOM      2  N   UNL     1      34.954 -16.890 -20.654  0.00  0.00    +0.387 N 
ATOM      3  H   UNL     1      35.793 -16.595 -20.155  0.00  0.00    -0.084 HD
ATOM      4  H   UNL     1      34.257 -17.239 -19.997  0.00  0.00    -0.084 HD
BRANCH   2   5
ATOM      5  C   UNL     1      35.302 -17.964 -21.588  0.00  0.00    -0.057 C 
ATOM      6  C   UNL     1      35.603 -17.339 -22.951  0.00  0.00    -0.023 C 
BRANCH   5   7
ATOM      7  C   UNL     1      34.152 -18.986 -21.650  0.00  0.00    +0.005 C 
BRANCH   7   8
ATOM      8  C   UNL     1      34.290 -20.112 -20.652  0.00  0.00    -0.024 C 
ATOM      9  C   UNL     1      35.555 -20.567 -20.314  0.00  0.00    -0.001 C 
ATOM     10  C   UNL     1      33.150 -20.666 -20.092  0.00  0.00    -0.001 C 
ATOM     11  C   UNL     1      35.682 -21.606 -19.391  0.00  0.00    +0.037 C 
ATOM     12  C   UNL     1      33.278 -21.704 -19.169  0.00  0.00    +0.037 C 
ATOM     13  C   UNL     1      34.544 -22.174 -18.819  0.00  0.00    +0.139 C 
BRANCH  13  14
ATOM     14  O   UNL     1      34.668 -23.187 -17.919  0.00  0.00    -0.471 OA
ATOM     15  C   UNL     1      33.709 -23.238 -16.864  0.00  0.00    +0.252 C 
ENDBRANCH  13  14
ENDBRANCH   7   8
ENDBRANCH   5   7
ENDBRANCH   2   5
ENDBRANCH   1   2
BRANCH   1  16
ATOM     16  C   UNL     1      33.136 -15.234 -20.666  0.00  0.00    +0.112 C 
BRANCH  16  17
ATOM     17  C   UNL     1      32.700 -13.899 -21.229  0.00  0.00    +0.004 C 
ATOM     18  C   UNL     1      31.989 -13.026 -20.424  0.00  0.00    +0.016 C 
ATOM     19  C   UNL     1      33.022 -13.578 -22.537  0.00  0.00    +0.001 C 
ATOM     20  C   UNL     1      31.587 -11.794 -20.943  0.00  0.00    +0.085 C 
ATOM     21  C   UNL     1      32.621 -12.347 -23.055  0.00  0.00    +0.038 C 
ATOM     22  C   UNL     1      31.903 -11.456 -22.259  0.00  0.00    +0.147 C 
BRANCH  20  24
ATOM     23  O   UNL     1      32.528  -9.696 -18.964  0.00  0.00    -0.265 OA
ATOM     24  N   UNL     1      30.868 -10.912 -20.133  0.00  0.00    -0.274 N 
ATOM     25  C   UNL     1      31.369  -9.969 -19.243  0.00  0.00    +0.304 C 
ATOM     26  H   UNL     1      29.888 -10.965 -20.200  0.00  0.00    +0.155 HD
ENDBRANCH  20  24
BRANCH  22  27
ATOM     27  O   UNL     1      31.519 -10.258 -22.785  0.00  0.00    -0.504 OA
ATOM     28  H   UNL     1      30.959 -10.234 -23.536  0.00  0.00    +0.292 HD
ENDBRANCH  22  27
ENDBRANCH  16  17
BRANCH  16  29
ATOM     29  O   UNL     1      32.063 -16.160 -20.833  0.00  0.00    -0.382 OA
ATOM     30  H   UNL     1      31.439 -15.817 -21.491  0.00  0.00    +0.211 HD
ENDBRANCH  16  29
ENDBRANCH   1  16
TORSDOF 10
ENDMDL
MODEL 4
REMARK VINA RESULT:      -9.5      4.049     10.201
REMARK  Name = 3083544
REMARK  10 active torsions:
REMARK  status: ('A' for Active; 'I' for Inactive)
REMARK    1  A    between atoms: C_1  and  N_2
REMARK    2  A    between atoms: C_1  and  C_16
REMARK    3  A    between atoms: N_2  and  C_5
REMARK    4  A    between atoms: C_5  and  C_7
REMARK    5  A    between atoms: C_7  and  C_8
REMARK    6  A    between atoms: C_13  and  O_14
REMARK    7  A    between atoms: C_16  and  C_17
REMARK    8  A    between atoms: C_16  and  O_29
REMARK    9  A    between atoms: C_20  and  N_24
REMARK   10  A    between atoms: C_22  and  O_27
REMARK                            x       y       z     vdW  Elec       q    Type
REMARK                         _______ _______ _______ _____ _____    ______ ____
ROOT
ATOM      1  C   UNL     1      33.840 -21.498 -19.360  0.00  0.00    -0.047 C 
ENDROOT
BRANCH   1   2
ATOM      2  N   UNL     1      34.969 -20.653 -19.710  0.00  0.00    +0.387 N 
ATOM      3  H   UNL     1      35.324 -20.202 -18.867  0.00  0.00    -0.084 HD
ATOM      4  H   UNL     1      35.694 -21.231 -20.134  0.00  0.00    -0.084 HD
BRANCH   2   5
ATOM      5  C   UNL     1      34.564 -19.623 -20.672  0.00  0.00    -0.057 C 
ATOM      6  C   UNL     1      33.120 -19.899 -21.093  0.00  0.00    -0.023 C 
BRANCH   5   7
ATOM      7  C   UNL     1      35.536 -19.623 -21.866  0.00  0.00    +0.005 C 
BRANCH   7   8
ATOM      8  C   UNL     1      35.133 -18.676 -22.971  0.00  0.00    -0.024 C 
ATOM      9  C   UNL     1      35.197 -17.309 -22.751  0.00  0.00    -0.001 C 
ATOM     10  C   UNL     1      34.709 -19.191 -24.186  0.00  0.00    -0.001 C 
ATOM     11  C   UNL     1      34.827 -16.434 -23.772  0.00  0.00    +0.037 C 
ATOM     12  C   UNL     1      34.339 -18.316 -25.207  0.00  0.00    +0.037 C 
ATOM     13  C   UNL     1      34.397 -16.938 -25.000  0.00  0.00    +0.139 C 
BRANCH  13  14
ATOM     14  O   UNL     1      34.036 -16.085 -25.997  0.00  0.00    -0.471 OA
ATOM     15  C   UNL     1      33.289 -14.928 -25.623  0.00  0.00    +0.252 C 
ENDBRANCH  13  14
ENDBRANCH   7   8
ENDBRANCH   5   7
ENDBRANCH   2   5
ENDBRANCH   1   2
BRANCH   1  16
ATOM     16  C   UNL     1      34.318 -22.826 -18.759  0.00  0.00    +0.112 C 
BRANCH  16  17
ATOM     17  C   UNL     1      33.765 -23.035 -17.367  0.00  0.00    +0.004 C 
ATOM     18  C   UNL     1      32.396 -23.136 -17.192  0.00  0.00    +0.016 C 
ATOM     19  C   UNL     1      34.639 -23.119 -16.298  0.00  0.00    +0.001 C 
ATOM     20  C   UNL     1      31.885 -23.329 -15.908  0.00  0.00    +0.085 C 
ATOM     21  C   UNL     1      34.129 -23.312 -15.014  0.00  0.00    +0.038 C 
ATOM     22  C   UNL     1      32.752 -23.416 -14.819  0.00  0.00    +0.147 C 
BRANCH  20  24
ATOM     23  O   UNL     1      30.168 -25.647 -14.970  0.00  0.00    -0.265 OA
ATOM     24  N   UNL     1      30.503 -23.431 -15.729  0.00  0.00    -0.274 N 
ATOM     25  C   UNL     1      29.778 -24.534 -15.292  0.00  0.00    +0.304 C 
ATOM     26  H   UNL     1      29.980 -22.625 -15.938  0.00  0.00    +0.155 HD
ENDBRANCH  20  24
BRANCH  22  27
ATOM     27  O   UNL     1      32.274 -23.603 -13.556  0.00  0.00    -0.504 OA
ATOM     28  H   UNL     1      31.384 -23.865 -13.426  0.00  0.00    +0.292 HD
ENDBRANCH  22  27
ENDBRANCH  16  17
BRANCH  16  29
ATOM     29  O   UNL     1      33.896 -23.918 -19.576  0.00  0.00    -0.382 OA
ATOM     30  H   UNL     1      34.126 -24.754 -19.142  0.00  0.00    +0.211 HD
ENDBRANCH  16  29
ENDBRANCH   1  16
TORSDOF 10
ENDMDL
MODEL 5
REMARK VINA RESULT:      -9.5      4.400     10.744
REMARK  Name = 3083544
REMARK  10 active torsions:
REMARK  status: ('A' for Active; 'I' for Inactive)
REMARK    1  A    between atoms: C_1  and  N_2
REMARK    2  A    between atoms: C_1  and  C_16
REMARK    3  A    between atoms: N_2  and  C_5
REMARK    4  A    between atoms: C_5  and  C_7
REMARK    5  A    between atoms: C_7  and  C_8
REMARK    6  A    between atoms: C_13  and  O_14
REMARK    7  A    between atoms: C_16  and  C_17
REMARK    8  A    between atoms: C_16  and  O_29
REMARK    9  A    between atoms: C_20  and  N_24
REMARK   10  A    between atoms: C_22  and  O_27
REMARK                            x       y       z     vdW  Elec       q    Type
REMARK                         _______ _______ _______ _____ _____    ______ ____
ROOT
ATOM      1  C   UNL     1      34.710 -21.989 -18.851  0.00  0.00    -0.047 C 
ENDROOT
BRANCH   1   2
ATOM      2  N   UNL     1      34.412 -20.895 -19.759  0.00  0.00    +0.387 N 
ATOM      3  H   UNL     1      33.640 -21.166 -20.367  0.00  0.00    -0.084 HD
ATOM      4  H   UNL     1      34.159 -20.073 -19.212  0.00  0.00    -0.084 HD
BRANCH   2   5
ATOM      5  C   UNL     1      35.582 -20.573 -20.581  0.00  0.00    -0.057 C 
ATOM      6  C   UNL     1      36.809 -21.233 -19.951  0.00  0.00    -0.023 C 
BRANCH   5   7
ATOM      7  C   UNL     1      35.728 -19.045 -20.693  0.00  0.00    +0.005 C 
BRANCH   7   8
ATOM      8  C   UNL     1      35.322 -18.497 -22.041  0.00  0.00    -0.024 C 
ATOM      9  C   UNL     1      35.296 -17.125 -22.237  0.00  0.00    -0.001 C 
ATOM     10  C   UNL     1      34.984 -19.377 -23.057  0.00  0.00    -0.001 C 
ATOM     11  C   UNL     1      34.922 -16.619 -23.482  0.00  0.00    +0.037 C 
ATOM     12  C   UNL     1      34.610 -18.871 -24.303  0.00  0.00    +0.037 C 
ATOM     13  C   UNL     1      34.579 -17.492 -24.514  0.00  0.00    +0.139 C 
BRANCH  13  14
ATOM     14  O   UNL     1      34.214 -16.999 -25.729  0.00  0.00    -0.471 OA
ATOM     15  C   UNL     1      33.613 -15.706 -25.751  0.00  0.00    +0.252 C 
ENDBRANCH  13  14
ENDBRANCH   7   8
ENDBRANCH   5   7
ENDBRANCH   2   5
ENDBRANCH   1   2
BRANCH   1  16
ATOM     16  C   UNL     1      33.432 -22.751 -18.476  0.00  0.00    +0.112 C 
BRANCH  16  17
ATOM     17  C   UNL     1      33.485 -23.252 -17.050  0.00  0.00    +0.004 C 
ATOM     18  C   UNL     1      34.687 -23.710 -16.538  0.00  0.00    +0.016 C 
ATOM     19  C   UNL     1      32.331 -23.242 -16.286  0.00  0.00    +0.001 C 
ATOM     20  C   UNL     1      34.737 -24.172 -15.223  0.00  0.00    +0.085 C 
ATOM     21  C   UNL     1      32.380 -23.703 -14.971  0.00  0.00    +0.038 C 
ATOM     22  C   UNL     1      33.582 -24.169 -14.440  0.00  0.00    +0.147 C 
BRANCH  20  24
ATOM     23  O   UNL     1      36.262 -26.745 -15.729  0.00  0.00    -0.265 OA
ATOM     24  N   UNL     1      35.948 -24.635 -14.705  0.00  0.00    -0.274 N 
ATOM     25  C   UNL     1      36.594 -25.834 -14.984  0.00  0.00    +0.304 C 
ATOM     26  H   UNL     1      36.400 -24.039 -14.065  0.00  0.00    +0.155 HD
ENDBRANCH  20  24
BRANCH  22  27
ATOM     27  O   UNL     1      33.609 -24.617 -13.152  0.00  0.00    -0.504 OA
ATOM     28  H   UNL     1      33.014 -25.286 -12.876  0.00  0.00    +0.292 HD
ENDBRANCH  22  27
ENDBRANCH  16  17
BRANCH  16  29
ATOM     29  O   UNL     1      32.294 -21.900 -18.608  0.00  0.00    -0.382 OA
ATOM     30  H   UNL     1      31.485 -22.422 -18.492  0.00  0.00    +0.211 HD
ENDBRANCH  16  29
ENDBRANCH   1  16
TORSDOF 10
ENDMDL
MODEL 6
REMARK VINA RESULT:      -9.4      3.973      9.756
REMARK  Name = 3083544
REMARK  10 active torsions:
REMARK  status: ('A' for Active; 'I' for Inactive)
REMARK    1  A    between atoms: C_1  and  N_2
REMARK    2  A    between atoms: C_1  and  C_16
REMARK    3  A    between atoms: N_2  and  C_5
REMARK    4  A    between atoms: C_5  and  C_7
REMARK    5  A    between atoms: C_7  and  C_8
REMARK    6  A    between atoms: C_13  and  O_14
REMARK    7  A    between atoms: C_16  and  C_17
REMARK    8  A    between atoms: C_16  and  O_29
REMARK    9  A    between atoms: C_20  and  N_24
REMARK   10  A    between atoms: C_22  and  O_27
REMARK                            x       y       z     vdW  Elec       q    Type
REMARK                         _______ _______ _______ _____ _____    ______ ____
ROOT
ATOM      1  C   UNL     1      35.087 -21.300 -19.517  0.00  0.00    -0.047 C 
ENDROOT
BRANCH   1   2
ATOM      2  N   UNL     1      34.529 -20.299 -20.409  0.00  0.00    +0.387 N 
ATOM      3  H   UNL     1      33.929 -20.758 -21.094  0.00  0.00    -0.084 HD
ATOM      4  H   UNL     1      33.990 -19.631 -19.859  0.00  0.00    -0.084 HD
BRANCH   2   5
ATOM      5  C   UNL     1      35.596 -19.579 -21.110  0.00  0.00    -0.057 C 
ATOM      6  C   UNL     1      36.926 -19.911 -20.431  0.00  0.00    -0.023 C 
BRANCH   5   7
ATOM      7  C   UNL     1      35.292 -18.070 -21.102  0.00  0.00    +0.005 C 
BRANCH   7   8
ATOM      8  C   UNL     1      34.940 -17.518 -22.463  0.00  0.00    -0.024 C 
ATOM      9  C   UNL     1      34.603 -16.180 -22.586  0.00  0.00    -0.001 C 
ATOM     10  C   UNL     1      34.964 -18.360 -23.564  0.00  0.00    -0.001 C 
ATOM     11  C   UNL     1      34.280 -15.670 -23.844  0.00  0.00    +0.037 C 
ATOM     12  C   UNL     1      34.640 -17.850 -24.821  0.00  0.00    +0.037 C 
ATOM     13  C   UNL     1      34.298 -16.505 -24.961  0.00  0.00    +0.139 C 
BRANCH  13  14
ATOM     14  O   UNL     1      33.983 -16.008 -26.188  0.00  0.00    -0.471 OA
ATOM     15  C   UNL     1      33.067 -14.915 -26.230  0.00  0.00    +0.252 C 
ENDBRANCH  13  14
ENDBRANCH   7   8
ENDBRANCH   5   7
ENDBRANCH   2   5
ENDBRANCH   1   2
BRANCH   1  16
ATOM     16  C   UNL     1      34.106 -22.463 -19.320  0.00  0.00    +0.112 C 
BRANCH  16  17
ATOM     17  C   UNL     1      33.884 -22.757 -17.853  0.00  0.00    +0.004 C 
ATOM     18  C   UNL     1      32.611 -23.076 -17.412  0.00  0.00    +0.016 C 
ATOM     19  C   UNL     1      34.958 -22.701 -16.982  0.00  0.00    +0.001 C 
ATOM     20  C   UNL     1      32.406 -23.347 -16.059  0.00  0.00    +0.085 C 
ATOM     21  C   UNL     1      34.754 -22.973 -15.629  0.00  0.00    +0.038 C 
ATOM     22  C   UNL     1      33.478 -23.295 -15.168  0.00  0.00    +0.147 C 
BRANCH  20  24
ATOM     23  O   UNL     1      29.681 -22.378 -16.976  0.00  0.00    -0.265 OA
ATOM     24  N   UNL     1      31.122 -23.668 -15.613  0.00  0.00    -0.274 N 
ATOM     25  C   UNL     1      29.908 -23.183 -16.083  0.00  0.00    +0.304 C 
ATOM     26  H   UNL     1      31.071 -24.318 -14.875  0.00  0.00    +0.155 HD
ENDBRANCH  20  24
BRANCH  22  27
ATOM     27  O   UNL     1      33.298 -23.556 -13.842  0.00  0.00    -0.504 OA
ATOM     28  H   UNL     1      33.332 -24.438 -13.529  0.00  0.00    +0.292 HD
ENDBRANCH  22  27
ENDBRANCH  16  17
BRANCH  16  29
ATOM     29  O   UNL     1      32.844 -22.150 -19.909  0.00  0.00    -0.382 OA
ATOM     30  H   UNL     1      32.252 -22.914 -19.830  0.00  0.00    +0.211 HD
ENDBRANCH  16  29
ENDBRANCH   1  16
TORSDOF 10
ENDMDL
MODEL 7
REMARK VINA RESULT:      -9.4      2.248      9.204
REMARK  Name = 3083544
REMARK  10 active torsions:
REMARK  status: ('A' for Active; 'I' for Inactive)
REMARK    1  A    between atoms: C_1  and  N_2
REMARK    2  A    between atoms: C_1  and  C_16
REMARK    3  A    between atoms: N_2  and  C_5
REMARK    4  A    between atoms: C_5  and  C_7
REMARK    5  A    between atoms: C_7  and  C_8
REMARK    6  A    between atoms: C_13  and  O_14
REMARK    7  A    between atoms: C_16  and  C_17
REMARK    8  A    between atoms: C_16  and  O_29
REMARK    9  A    between atoms: C_20  and  N_24
REMARK   10  A    between atoms: C_22  and  O_27
REMARK                            x       y       z     vdW  Elec       q    Type
REMARK                         _______ _______ _______ _____ _____    ______ ____
ROOT
ATOM      1  C   UNL     1      34.661 -16.770 -22.324  0.00  0.00    -0.047 C 
ENDROOT
BRANCH   1   2
ATOM      2  N   UNL     1      34.716 -15.792 -21.251  0.00  0.00    +0.387 N 
ATOM      3  H   UNL     1      34.739 -16.277 -20.355  0.00  0.00    -0.084 HD
ATOM      4  H   UNL     1      35.555 -15.224 -21.367  0.00  0.00    -0.084 HD
BRANCH   2   5
ATOM      5  C   UNL     1      33.543 -14.914 -21.293  0.00  0.00    -0.057 C 
ATOM      6  C   UNL     1      32.382 -15.629 -20.600  0.00  0.00    -0.023 C 
BRANCH   5   7
ATOM      7  C   UNL     1      33.223 -14.550 -22.754  0.00  0.00    +0.005 C 
BRANCH   7   8
ATOM      8  C   UNL     1      33.049 -13.067 -22.983  0.00  0.00    -0.024 C 
ATOM      9  C   UNL     1      32.144 -12.362 -22.206  0.00  0.00    -0.001 C 
ATOM     10  C   UNL     1      33.799 -12.439 -23.964  0.00  0.00    -0.001 C 
ATOM     11  C   UNL     1      31.985 -10.992 -22.416  0.00  0.00    +0.037 C 
ATOM     12  C   UNL     1      33.640 -11.069 -24.174  0.00  0.00    +0.037 C 
ATOM     13  C   UNL     1      32.732 -10.346 -23.400  0.00  0.00    +0.139 C 
BRANCH  13  14
ATOM     14  O   UNL     1      32.577  -9.010 -23.606  0.00  0.00    -0.471 OA
ATOM     15  C   UNL     1      31.287  -8.458 -23.345  0.00  0.00    +0.252 C 
ENDBRANCH  13  14
ENDBRANCH   7   8
ENDBRANCH   5   7
ENDBRANCH   2   5
ENDBRANCH   1   2
BRANCH   1  16
ATOM     16  C   UNL     1      35.600 -17.949 -22.035  0.00  0.00    +0.112 C 
BRANCH  16  17
ATOM     17  C   UNL     1      34.891 -19.046 -21.272  0.00  0.00    +0.004 C 
ATOM     18  C   UNL     1      35.642 -19.986 -20.587  0.00  0.00    +0.016 C 
ATOM     19  C   UNL     1      33.508 -19.086 -21.273  0.00  0.00    +0.001 C 
ATOM     20  C   UNL     1      34.989 -20.998 -19.883  0.00  0.00    +0.085 C 
ATOM     21  C   UNL     1      32.855 -20.097 -20.568  0.00  0.00    +0.038 C 
ATOM     22  C   UNL     1      33.595 -21.053 -19.874  0.00  0.00    +0.147 C 
BRANCH  20  24
ATOM     23  O   UNL     1      37.035 -20.684 -17.665  0.00  0.00    -0.265 OA
ATOM     24  N   UNL     1      35.744 -21.949 -19.193  0.00  0.00    -0.274 N 
ATOM     25  C   UNL     1      36.670 -21.732 -18.179  0.00  0.00    +0.304 C 
ATOM     26  H   UNL     1      35.604 -22.886 -19.456  0.00  0.00    +0.155 HD
ENDBRANCH  20  24
BRANCH  22  27
ATOM     27  O   UNL     1      32.938 -22.034 -19.193  0.00  0.00    -0.504 OA
ATOM     28  H   UNL     1      32.737 -22.846 -19.616  0.00  0.00    +0.292 HD
ENDBRANCH  22  27
ENDBRANCH  16  17
BRANCH  16  29
ATOM     29  O   UNL     1      36.090 -18.500 -23.257  0.00  0.00    -0.382 OA
ATOM     30  H   UNL     1      37.059 -18.491 -23.250  0.00  0.00    +0.211 HD
ENDBRANCH  16  29
ENDBRANCH   1  16
TORSDOF 10
ENDMDL
MODEL 8
REMARK VINA RESULT:      -9.4      5.718     12.339
REMARK  Name = 3083544
REMARK  10 active torsions:
REMARK  status: ('A' for Active; 'I' for Inactive)
REMARK    1  A    between atoms: C_1  and  N_2
REMARK    2  A    between atoms: C_1  and  C_16
REMARK    3  A    between atoms: N_2  and  C_5
REMARK    4  A    between atoms: C_5  and  C_7
REMARK    5  A    between atoms: C_7  and  C_8
REMARK    6  A    between atoms: C_13  and  O_14
REMARK    7  A    between atoms: C_16  and  C_17
REMARK    8  A    between atoms: C_16  and  O_29
REMARK    9  A    between atoms: C_20  and  N_24
REMARK   10  A    between atoms: C_22  and  O_27
REMARK                            x       y       z     vdW  Elec       q    Type
REMARK                         _______ _______ _______ _____ _____    ______ ____
ROOT
ATOM      1  C   UNL     1      33.481 -23.376 -14.919  0.00  0.00    -0.047 C 
ENDROOT
BRANCH   1   2
ATOM      2  N   UNL     1      34.028 -23.427 -16.264  0.00  0.00    +0.387 N 
ATOM      3  H   UNL     1      34.945 -22.981 -16.271  0.00  0.00    -0.084 HD
ATOM      4  H   UNL     1      34.109 -24.403 -16.550  0.00  0.00    -0.084 HD
BRANCH   2   5
ATOM      5  C   UNL     1      33.147 -22.732 -17.207  0.00  0.00    -0.057 C 
ATOM      6  C   UNL     1      31.705 -23.148 -16.913  0.00  0.00    -0.023 C 
BRANCH   5   7
ATOM      7  C   UNL     1      33.572 -23.062 -18.649  0.00  0.00    +0.005 C 
BRANCH   7   8
ATOM      8  C   UNL     1      34.159 -21.883 -19.389  0.00  0.00    -0.024 C 
ATOM      9  C   UNL     1      35.536 -21.745 -19.462  0.00  0.00    -0.001 C 
ATOM     10  C   UNL     1      33.310 -20.963 -19.983  0.00  0.00    -0.001 C 
ATOM     11  C   UNL     1      36.079 -20.658 -20.147  0.00  0.00    +0.037 C 
ATOM     12  C   UNL     1      33.853 -19.875 -20.668  0.00  0.00    +0.037 C 
ATOM     13  C   UNL     1      35.237 -19.723 -20.749  0.00  0.00    +0.139 C 
BRANCH  13  14
ATOM     14  O   UNL     1      35.766 -18.661 -21.418  0.00  0.00    -0.471 OA
ATOM     15  C   UNL     1      35.146 -17.393 -21.214  0.00  0.00    +0.252 C 
ENDBRANCH  13  14
ENDBRANCH   7   8
ENDBRANCH   5   7
ENDBRANCH   2   5
ENDBRANCH   1   2
BRANCH   1  16
ATOM     16  C   UNL     1      33.971 -24.567 -14.086  0.00  0.00    +0.112 C 
BRANCH  16  17
ATOM     17  C   UNL     1      35.305 -24.275 -13.434  0.00  0.00    +0.004 C 
ATOM     18  C   UNL     1      36.471 -24.582 -14.114  0.00  0.00    +0.016 C 
ATOM     19  C   UNL     1      35.331 -23.709 -12.172  0.00  0.00    +0.001 C 
ATOM     20  C   UNL     1      37.701 -24.313 -13.514  0.00  0.00    +0.085 C 
ATOM     21  C   UNL     1      36.561 -23.439 -11.571  0.00  0.00    +0.038 C 
ATOM     22  C   UNL     1      37.746 -23.742 -12.242  0.00  0.00    +0.147 C 
BRANCH  20  24
ATOM     23  O   UNL     1      38.791 -26.967 -14.499  0.00  0.00    -0.265 OA
ATOM     24  N   UNL     1      38.879 -24.622 -14.198  0.00  0.00    -0.274 N 
ATOM     25  C   UNL     1      39.318 -25.870 -14.623  0.00  0.00    +0.304 C 
ATOM     26  H   UNL     1      39.470 -23.863 -14.405  0.00  0.00    +0.155 HD
ENDBRANCH  20  24
BRANCH  22  27
ATOM     27  O   UNL     1      38.937 -23.472 -11.637  0.00  0.00    -0.504 OA
ATOM     28  H   UNL     1      39.621 -23.049 -12.117  0.00  0.00    +0.292 HD
ENDBRANCH  22  27
ENDBRANCH  16  17
BRANCH  16  29
ATOM     29  O   UNL     1      33.029 -24.871 -13.057  0.00  0.00    -0.382 OA
ATOM     30  H   UNL     1      32.985 -24.133 -12.431  0.00  0.00    +0.211 HD
ENDBRANCH  16  29
ENDBRANCH   1  16
TORSDOF 10
ENDMDL
MODEL 9
REMARK VINA RESULT:      -9.3      1.939      2.877
REMARK  Name = 3083544
REMARK  10 active torsions:
REMARK  status: ('A' for Active; 'I' for Inactive)
REMARK    1  A    between atoms: C_1  and  N_2
REMARK    2  A    between atoms: C_1  and  C_16
REMARK    3  A    between atoms: N_2  and  C_5
REMARK    4  A    between atoms: C_5  and  C_7
REMARK    5  A    between atoms: C_7  and  C_8
REMARK    6  A    between atoms: C_13  and  O_14
REMARK    7  A    between atoms: C_16  and  C_17
REMARK    8  A    between atoms: C_16  and  O_29
REMARK    9  A    between atoms: C_20  and  N_24
REMARK   10  A    between atoms: C_22  and  O_27
REMARK                            x       y       z     vdW  Elec       q    Type
REMARK                         _______ _______ _______ _____ _____    ______ ____
ROOT
ATOM      1  C   UNL     1      34.364 -17.010 -21.968  0.00  0.00    -0.047 C 
ENDROOT
BRANCH   1   2
ATOM      2  N   UNL     1      35.485 -17.747 -22.525  0.00  0.00    +0.387 N 
ATOM      3  H   UNL     1      35.714 -17.367 -23.442  0.00  0.00    -0.084 HD
ATOM      4  H   UNL     1      36.283 -17.658 -21.896  0.00  0.00    -0.084 HD
BRANCH   2   5
ATOM      5  C   UNL     1      35.150 -19.168 -22.663  0.00  0.00    -0.057 C 
ATOM      6  C   UNL     1      34.832 -19.446 -24.132  0.00  0.00    -0.023 C 
BRANCH   5   7
ATOM      7  C   UNL     1      33.975 -19.514 -21.730  0.00  0.00    +0.005 C 
BRANCH   7   8
ATOM      8  C   UNL     1      34.360 -20.423 -20.586  0.00  0.00    -0.024 C 
ATOM      9  C   UNL     1      35.697 -20.563 -20.251  0.00  0.00    -0.001 C 
ATOM     10  C   UNL     1      33.368 -21.097 -19.893  0.00  0.00    -0.001 C 
ATOM     11  C   UNL     1      36.053 -21.401 -19.194  0.00  0.00    +0.037 C 
ATOM     12  C   UNL     1      33.723 -21.935 -18.835  0.00  0.00    +0.037 C 
ATOM     13  C   UNL     1      35.066 -22.087 -18.487  0.00  0.00    +0.139 C 
BRANCH  13  14
ATOM     14  O   UNL     1      35.411 -22.905 -17.455  0.00  0.00    -0.471 OA
ATOM     15  C   UNL     1      36.390 -22.417 -16.539  0.00  0.00    +0.252 C 
ENDBRANCH  13  14
ENDBRANCH   7   8
ENDBRANCH   5   7
ENDBRANCH   2   5
ENDBRANCH   1   2
BRANCH   1  16
ATOM     16  C   UNL     1      34.842 -15.711 -21.305  0.00  0.00    +0.112 C 
BRANCH  16  17
ATOM     17  C   UNL     1      33.939 -14.548 -21.653  0.00  0.00    +0.004 C 
ATOM     18  C   UNL     1      34.134 -13.875 -22.847  0.00  0.00    +0.016 C 
ATOM     19  C   UNL     1      32.938 -14.181 -20.770  0.00  0.00    +0.001 C 
ATOM     20  C   UNL     1      33.302 -12.803 -23.168  0.00  0.00    +0.085 C 
ATOM     21  C   UNL     1      32.106 -13.109 -21.092  0.00  0.00    +0.038 C 
ATOM     22  C   UNL     1      32.288 -12.420 -22.290  0.00  0.00    +0.147 C 
BRANCH  20  24
ATOM     23  O   UNL     1      34.163  -9.947 -23.722  0.00  0.00    -0.265 OA
ATOM     24  N   UNL     1      33.497 -12.122 -24.373  0.00  0.00    -0.274 N 
ATOM     25  C   UNL     1      33.896 -10.803 -24.554  0.00  0.00    +0.304 C 
ATOM     26  H   UNL     1      33.331 -12.640 -25.193  0.00  0.00    +0.155 HD
ENDBRANCH  20  24
BRANCH  22  27
ATOM     27  O   UNL     1      31.465 -11.374 -22.585  0.00  0.00    -0.504 OA
ATOM     28  H   UNL     1      30.537 -11.466 -22.491  0.00  0.00    +0.292 HD
ENDBRANCH  22  27
ENDBRANCH  16  17
BRANCH  16  29
ATOM     29  O   UNL     1      34.854 -15.857 -19.885  0.00  0.00    -0.382 OA
ATOM     30  H   UNL     1      35.766 -15.987 -19.581  0.00  0.00    +0.211 HD
ENDBRANCH  16  29
ENDBRANCH   1  16
TORSDOF 10
ENDMDL
