MODEL 1
REMARK VINA RESULT:     -10.1      0.000      0.000
REMARK  Name = 448793
REMARK  3 active torsions:
REMARK  status: ('A' for Active; 'I' for Inactive)
REMARK    1  A    between atoms: C_1  and  C_17
REMARK    2  A    between atoms: C_2  and  N_7
REMARK    3  A    between atoms: C_17  and  N_20
REMARK                            x       y       z     vdW  Elec       q    Type
REMARK                         _______ _______ _______ _____ _____    ______ ____
ROOT
ATOM      1  C   UNL     1      34.061  -9.364 -23.619  0.00  0.00    +0.001 C 
ATOM      2  C   UNL     1      33.823 -11.934 -24.644  0.00  0.00    +0.058 C 
ATOM      3  C   UNL     1      33.075 -10.210 -23.126  0.00  0.00    -0.001 C 
ATOM      4  C   UNL     1      34.928  -9.786 -24.617  0.00  0.00    -0.001 C 
ATOM      5  C   UNL     1      32.956 -11.501 -23.641  0.00  0.00    +0.015 C 
ATOM      6  C   UNL     1      34.810 -11.077 -25.132  0.00  0.00    +0.015 C 
ENDROOT
BRANCH   2   7
ATOM      7  N   UNL     1      33.705 -13.215 -25.154  0.00  0.00    -0.243 N 
ATOM      8  N   UNL     1      33.250 -14.862 -26.595  0.00  0.00    -0.392 NA
ATOM      9  N   UNL     1      34.450 -17.009 -23.825  0.00  0.00    -0.261 NA
ATOM     10  C   UNL     1      34.027 -14.389 -24.506  0.00  0.00    +0.086 C 
ATOM     11  C   UNL     1      33.244 -13.562 -26.402  0.00  0.00    +0.168 C 
ATOM     12  C   UNL     1      33.735 -15.393 -25.423  0.00  0.00    +0.149 C 
ATOM     13  C   UNL     1      34.531 -14.643 -23.238  0.00  0.00    +0.038 C 
ATOM     14  C   UNL     1      32.801 -12.551 -27.387  0.00  0.00    +0.084 C 
ATOM     15  C   UNL     1      33.957 -16.721 -25.055  0.00  0.00    +0.185 C 
ATOM     16  C   UNL     1      34.717 -15.992 -22.970  0.00  0.00    +0.095 C 
ENDBRANCH   2   7
BRANCH   1  17
ATOM     17  C   UNL     1      34.189  -7.973 -23.063  0.00  0.00    +0.136 C 
BRANCH  17  20
ATOM     18  S   UNL     1      31.004  -5.797 -24.150  0.00  0.00    -0.026 S 
ATOM     19  O   UNL     1      31.404  -7.516 -22.186  0.00  0.00    -0.259 OA
ATOM     20  N   UNL     1      33.199  -7.097 -23.652  0.00  0.00    -0.286 N 
ATOM     21  C   UNL     1      33.486  -6.313 -24.794  0.00  0.00    +0.069 A 
ATOM     22  C   UNL     1      32.402  -5.538 -25.206  0.00  0.00    +0.050 A 
ATOM     23  C   UNL     1      31.907  -6.960 -23.151  0.00  0.00    +0.293 A 
ATOM     24  C   UNL     1      34.691  -6.263 -25.485  0.00  0.00    +0.018 C 
ATOM     25  C   UNL     1      32.489  -4.702 -26.308  0.00  0.00    +0.008 C 
ATOM     26  C   UNL     1      34.789  -5.424 -26.598  0.00  0.00    +0.002 C 
ATOM     27  C   UNL     1      33.696  -4.649 -27.007  0.00  0.00    +0.001 C 
ENDBRANCH  17  20
ENDBRANCH   1  17
TORSDOF 3
ENDMDL
MODEL 2
REMARK VINA RESULT:      -9.9      7.329     12.798
REMARK  Name = 448793
REMARK  3 active torsions:
REMARK  status: ('A' for Active; 'I' for Inactive)
REMARK    1  A    between atoms: C_1  and  C_17
REMARK    2  A    between atoms: C_2  and  N_7
REMARK    3  A    between atoms: C_17  and  N_20
REMARK                            x       y       z     vdW  Elec       q    Type
REMARK                         _______ _______ _______ _____ _____    ______ ____
ROOT
ATOM      1  C   UNL     1      35.677 -20.618 -20.441  0.00  0.00    +0.001 C 
ATOM      2  C   UNL     1      34.938 -18.188 -21.564  0.00  0.00    +0.058 C 
ATOM      3  C   UNL     1      34.332 -20.338 -20.644  0.00  0.00    -0.001 C 
ATOM      4  C   UNL     1      36.657 -19.700 -20.792  0.00  0.00    -0.001 C 
ATOM      5  C   UNL     1      33.961 -19.117 -21.209  0.00  0.00    +0.015 C 
ATOM      6  C   UNL     1      36.287 -18.479 -21.357  0.00  0.00    +0.015 C 
ENDROOT
BRANCH   2   7
ATOM      7  N   UNL     1      34.570 -16.978 -22.124  0.00  0.00    -0.243 N 
ATOM      8  N   UNL     1      34.027 -14.814 -22.266  0.00  0.00    -0.392 NA
ATOM      9  N   UNL     1      33.732 -15.588 -25.876  0.00  0.00    -0.261 NA
ATOM     10  C   UNL     1      34.332 -16.730 -23.460  0.00  0.00    +0.086 C 
ATOM     11  C   UNL     1      34.371 -15.792 -21.458  0.00  0.00    +0.168 C 
ATOM     12  C   UNL     1      33.998 -15.382 -23.518  0.00  0.00    +0.149 C 
ATOM     13  C   UNL     1      34.381 -17.549 -24.579  0.00  0.00    +0.038 C 
ATOM     14  C   UNL     1      34.538 -15.675 -19.992  0.00  0.00    +0.084 C 
ATOM     15  C   UNL     1      33.695 -14.820 -24.759  0.00  0.00    +0.185 C 
ATOM     16  C   UNL     1      34.064 -16.897 -25.763  0.00  0.00    +0.095 C 
ENDBRANCH   2   7
BRANCH   1  17
ATOM     17  C   UNL     1      36.076 -21.934 -19.833  0.00  0.00    +0.136 C 
BRANCH  17  20
ATOM     18  S   UNL     1      33.082 -22.937 -17.365  0.00  0.00    -0.026 S 
ATOM     19  O   UNL     1      33.184 -22.529 -19.973  0.00  0.00    -0.259 OA
ATOM     20  N   UNL     1      35.183 -22.286 -18.749  0.00  0.00    -0.286 N 
ATOM     21  C   UNL     1      35.638 -22.386 -17.415  0.00  0.00    +0.069 A 
ATOM     22  C   UNL     1      34.626 -22.734 -16.521  0.00  0.00    +0.050 A 
ATOM     23  C   UNL     1      33.827 -22.547 -18.933  0.00  0.00    +0.293 A 
ATOM     24  C   UNL     1      36.936 -22.177 -16.962  0.00  0.00    +0.018 C 
ATOM     25  C   UNL     1      34.876 -22.882 -15.166  0.00  0.00    +0.008 C 
ATOM     26  C   UNL     1      37.200 -22.323 -15.598  0.00  0.00    +0.002 C 
ATOM     27  C   UNL     1      36.178 -22.672 -14.705  0.00  0.00    +0.001 C 
ENDBRANCH  17  20
ENDBRANCH   1  17
TORSDOF 3
ENDMDL
MODEL 3
REMARK VINA RESULT:      -9.8      2.652      3.995
REMARK  Name = 448793
REMARK  3 active torsions:
REMARK  status: ('A' for Active; 'I' for Inactive)
REMARK    1  A    between atoms: C_1  and  C_17
REMARK    2  A    between atoms: C_2  and  N_7
REMARK    3  A    between atoms: C_17  and  N_20
REMARK                            x       y       z     vdW  Elec       q    Type
REMARK                         _______ _______ _______ _____ _____    ______ ____
ROOT
ATOM      1  C   UNL     1      31.527 -11.561 -21.648  0.00  0.00    +0.001 C 
ATOM      2  C   UNL     1      33.050 -13.811 -22.226  0.00  0.00    +0.058 C 
ATOM      3  C   UNL     1      32.210 -11.634 -22.855  0.00  0.00    -0.001 C 
ATOM      4  C   UNL     1      31.594 -12.597 -20.727  0.00  0.00    -0.001 C 
ATOM      5  C   UNL     1      32.975 -12.765 -23.146  0.00  0.00    +0.015 C 
ATOM      6  C   UNL     1      32.359 -13.728 -21.017  0.00  0.00    +0.015 C 
ENDROOT
BRANCH   2   7
ATOM      7  N   UNL     1      33.808 -14.931 -22.515  0.00  0.00    -0.243 N 
ATOM      8  N   UNL     1      35.193 -16.659 -22.209  0.00  0.00    -0.392 NA
ATOM      9  N   UNL     1      34.570 -17.217 -25.817  0.00  0.00    -0.261 NA
ATOM     10  C   UNL     1      33.920 -15.553 -23.741  0.00  0.00    +0.086 C 
ATOM     11  C   UNL     1      34.594 -15.639 -21.636  0.00  0.00    +0.168 C 
ATOM     12  C   UNL     1      34.785 -16.620 -23.521  0.00  0.00    +0.149 C 
ATOM     13  C   UNL     1      33.354 -15.277 -24.978  0.00  0.00    +0.038 C 
ATOM     14  C   UNL     1      34.722 -15.258 -20.212  0.00  0.00    +0.084 C 
ATOM     15  C   UNL     1      35.103 -17.455 -24.593  0.00  0.00    +0.185 C 
ATOM     16  C   UNL     1      33.732 -16.164 -25.976  0.00  0.00    +0.095 C 
ENDBRANCH   2   7
BRANCH   1  17
ATOM     17  C   UNL     1      30.702 -10.344 -21.336  0.00  0.00    +0.136 C 
BRANCH  17  20
ATOM     18  S   UNL     1      33.217  -7.369 -20.395  0.00  0.00    -0.026 S 
ATOM     19  O   UNL     1      32.465  -9.546 -19.103  0.00  0.00    -0.259 OA
ATOM     20  N   UNL     1      31.544  -9.170 -21.238  0.00  0.00    -0.286 N 
ATOM     21  C   UNL     1      31.613  -8.216 -22.279  0.00  0.00    +0.069 A 
ATOM     22  C   UNL     1      32.479  -7.162 -21.992  0.00  0.00    +0.050 A 
ATOM     23  C   UNL     1      32.340  -8.894 -20.129  0.00  0.00    +0.293 A 
ATOM     24  C   UNL     1      30.925  -8.253 -23.486  0.00  0.00    +0.018 C 
ATOM     25  C   UNL     1      32.681  -6.126 -22.891  0.00  0.00    +0.008 C 
ATOM     26  C   UNL     1      31.120  -7.214 -24.400  0.00  0.00    +0.002 C 
ATOM     27  C   UNL     1      31.992  -6.157 -24.105  0.00  0.00    +0.001 C 
ENDBRANCH  17  20
ENDBRANCH   1  17
TORSDOF 3
ENDMDL
MODEL 4
REMARK VINA RESULT:      -9.6      7.256     12.661
REMARK  Name = 448793
REMARK  3 active torsions:
REMARK  status: ('A' for Active; 'I' for Inactive)
REMARK    1  A    between atoms: C_1  and  C_17
REMARK    2  A    between atoms: C_2  and  N_7
REMARK    3  A    between atoms: C_17  and  N_20
REMARK                            x       y       z     vdW  Elec       q    Type
REMARK                         _______ _______ _______ _____ _____    ______ ____
ROOT
ATOM      1  C   UNL     1      35.570 -20.448 -20.604  0.00  0.00    +0.001 C 
ATOM      2  C   UNL     1      34.669 -18.074 -21.729  0.00  0.00    +0.058 C 
ATOM      3  C   UNL     1      34.230 -20.316 -20.944  0.00  0.00    -0.001 C 
ATOM      4  C   UNL     1      36.466 -19.409 -20.818  0.00  0.00    -0.001 C 
ATOM      5  C   UNL     1      33.778 -19.124 -21.510  0.00  0.00    +0.015 C 
ATOM      6  C   UNL     1      36.014 -18.216 -21.385  0.00  0.00    +0.015 C 
ENDROOT
BRANCH   2   7
ATOM      7  N   UNL     1      34.220 -16.892 -22.290  0.00  0.00    -0.243 N 
ATOM      8  N   UNL     1      33.784 -15.342 -23.840  0.00  0.00    -0.392 NA
ATOM      9  N   UNL     1      32.375 -13.497 -20.953  0.00  0.00    -0.261 NA
ATOM     10  C   UNL     1      33.606 -15.851 -21.627  0.00  0.00    +0.086 C 
ATOM     11  C   UNL     1      34.300 -16.529 -23.614  0.00  0.00    +0.168 C 
ATOM     12  C   UNL     1      33.347 -14.904 -22.612  0.00  0.00    +0.149 C 
ATOM     13  C   UNL     1      33.269 -15.669 -20.293  0.00  0.00    +0.038 C 
ATOM     14  C   UNL     1      34.907 -17.410 -24.636  0.00  0.00    +0.084 C 
ATOM     15  C   UNL     1      32.720 -13.712 -22.247  0.00  0.00    +0.185 C 
ATOM     16  C   UNL     1      32.650 -14.454 -20.032  0.00  0.00    +0.095 C 
ENDBRANCH   2   7
BRANCH   1  17
ATOM     17  C   UNL     1      36.058 -21.734 -19.996  0.00  0.00    +0.136 C 
BRANCH  17  20
ATOM     18  S   UNL     1      33.146 -22.875 -17.490  0.00  0.00    -0.026 S 
ATOM     19  O   UNL     1      33.177 -22.391 -20.086  0.00  0.00    -0.259 OA
ATOM     20  N   UNL     1      35.198 -22.136 -18.902  0.00  0.00    -0.286 N 
ATOM     21  C   UNL     1      35.686 -22.264 -17.581  0.00  0.00    +0.069 A 
ATOM     22  C   UNL     1      34.704 -22.661 -16.675  0.00  0.00    +0.050 A 
ATOM     23  C   UNL     1      33.845 -22.424 -19.062  0.00  0.00    +0.293 A 
ATOM     24  C   UNL     1      36.990 -22.038 -17.152  0.00  0.00    +0.018 C 
ATOM     25  C   UNL     1      34.989 -22.841 -15.331  0.00  0.00    +0.008 C 
ATOM     26  C   UNL     1      37.289 -22.216 -15.799  0.00  0.00    +0.002 C 
ATOM     27  C   UNL     1      36.296 -22.614 -14.895  0.00  0.00    +0.001 C 
ENDBRANCH  17  20
ENDBRANCH   1  17
TORSDOF 3
ENDMDL
MODEL 5
REMARK VINA RESULT:      -9.6      1.316      2.363
REMARK  Name = 448793
REMARK  3 active torsions:
REMARK  status: ('A' for Active; 'I' for Inactive)
REMARK    1  A    between atoms: C_1  and  C_17
REMARK    2  A    between atoms: C_2  and  N_7
REMARK    3  A    between atoms: C_17  and  N_20
REMARK                            x       y       z     vdW  Elec       q    Type
REMARK                         _______ _______ _______ _____ _____    ______ ____
ROOT
ATOM      1  C   UNL     1      33.243  -8.504 -22.812  0.00  0.00    +0.001 C 
ATOM      2  C   UNL     1      33.166 -11.198 -23.482  0.00  0.00    +0.058 C 
ATOM      3  C   UNL     1      32.176  -9.285 -22.387  0.00  0.00    -0.001 C 
ATOM      4  C   UNL     1      34.271  -9.051 -23.567  0.00  0.00    -0.001 C 
ATOM      5  C   UNL     1      32.138 -10.639 -22.724  0.00  0.00    +0.015 C 
ATOM      6  C   UNL     1      34.234 -10.405 -23.904  0.00  0.00    +0.015 C 
ENDROOT
BRANCH   2   7
ATOM      7  N   UNL     1      33.127 -12.540 -23.816  0.00  0.00    -0.243 N 
ATOM      8  N   UNL     1      32.948 -14.755 -23.572  0.00  0.00    -0.392 NA
ATOM      9  N   UNL     1      33.478 -14.748 -27.238  0.00  0.00    -0.261 NA
ATOM     10  C   UNL     1      33.274 -13.076 -25.078  0.00  0.00    +0.086 C 
ATOM     11  C   UNL     1      32.935 -13.594 -22.955  0.00  0.00    +0.168 C 
ATOM     12  C   UNL     1      33.159 -14.450 -24.897  0.00  0.00    +0.149 C 
ATOM     13  C   UNL     1      33.491 -12.490 -26.317  0.00  0.00    +0.038 C 
ATOM     14  C   UNL     1      32.739 -13.399 -21.502  0.00  0.00    +0.084 C 
ATOM     15  C   UNL     1      33.267 -15.284 -26.011  0.00  0.00    +0.185 C 
ATOM     16  C   UNL     1      33.582 -13.402 -27.359  0.00  0.00    +0.095 C 
ENDBRANCH   2   7
BRANCH   1  17
ATOM     17  C   UNL     1      33.284  -7.046 -22.448  0.00  0.00    +0.136 C 
BRANCH  17  20
ATOM     18  S   UNL     1      30.754  -4.878 -24.675  0.00  0.00    -0.026 S 
ATOM     19  O   UNL     1      30.530  -5.984 -22.287  0.00  0.00    -0.259 OA
ATOM     20  N   UNL     1      32.572  -6.256 -23.431  0.00  0.00    -0.286 N 
ATOM     21  C   UNL     1      33.166  -5.886 -24.659  0.00  0.00    +0.069 A 
ATOM     22  C   UNL     1      32.318  -5.128 -25.466  0.00  0.00    +0.050 A 
ATOM     23  C   UNL     1      31.266  -5.807 -23.247  0.00  0.00    +0.293 A 
ATOM     24  C   UNL     1      34.450  -6.202 -25.089  0.00  0.00    +0.018 C 
ATOM     25  C   UNL     1      32.722  -4.671 -26.710  0.00  0.00    +0.008 C 
ATOM     26  C   UNL     1      34.868  -5.746 -26.342  0.00  0.00    +0.002 C 
ATOM     27  C   UNL     1      34.010  -4.986 -27.147  0.00  0.00    +0.001 C 
ENDBRANCH  17  20
ENDBRANCH   1  17
TORSDOF 3
ENDMDL
MODEL 6
REMARK VINA RESULT:      -9.4      8.056     13.461
REMARK  Name = 448793
REMARK  3 active torsions:
REMARK  status: ('A' for Active; 'I' for Inactive)
REMARK    1  A    between atoms: C_1  and  C_17
REMARK    2  A    between atoms: C_2  and  N_7
REMARK    3  A    between atoms: C_17  and  N_20
REMARK                            x       y       z     vdW  Elec       q    Type
REMARK                         _______ _______ _______ _____ _____    ______ ____
ROOT
ATOM      1  C   UNL     1      34.131 -21.596 -19.808  0.00  0.00    +0.001 C 
ATOM      2  C   UNL     1      34.370 -19.114 -21.033  0.00  0.00    +0.058 C 
ATOM      3  C   UNL     1      32.987 -20.910 -20.196  0.00  0.00    -0.001 C 
ATOM      4  C   UNL     1      35.392 -21.057 -20.023  0.00  0.00    -0.001 C 
ATOM      5  C   UNL     1      33.107 -19.664 -20.811  0.00  0.00    +0.015 C 
ATOM      6  C   UNL     1      35.513 -19.811 -20.639  0.00  0.00    +0.015 C 
ENDROOT
BRANCH   2   7
ATOM      7  N   UNL     1      34.488 -17.879 -21.643  0.00  0.00    -0.243 N 
ATOM      8  N   UNL     1      35.144 -16.317 -23.102  0.00  0.00    -0.392 NA
ATOM      9  N   UNL     1      33.019 -14.116 -21.014  0.00  0.00    -0.261 NA
ATOM     10  C   UNL     1      33.882 -16.706 -21.246  0.00  0.00    +0.086 C 
ATOM     11  C   UNL     1      35.233 -17.584 -22.761  0.00  0.00    +0.168 C 
ATOM     12  C   UNL     1      34.306 -15.755 -22.168  0.00  0.00    +0.149 C 
ATOM     13  C   UNL     1      33.027 -16.412 -20.192  0.00  0.00    +0.038 C 
ATOM     14  C   UNL     1      36.030 -18.609 -23.469  0.00  0.00    +0.084 C 
ATOM     15  C   UNL     1      33.855 -14.442 -22.031  0.00  0.00    +0.185 C 
ATOM     16  C   UNL     1      32.636 -15.081 -20.143  0.00  0.00    +0.095 C 
ENDBRANCH   2   7
BRANCH   1  17
ATOM     17  C   UNL     1      34.001 -22.939 -19.145  0.00  0.00    +0.136 C 
BRANCH  17  20
ATOM     18  S   UNL     1      35.352 -22.519 -15.396  0.00  0.00    -0.026 S 
ATOM     19  O   UNL     1      36.554 -22.426 -17.746  0.00  0.00    -0.259 OA
ATOM     20  N   UNL     1      34.232 -22.828 -17.720  0.00  0.00    -0.286 N 
ATOM     21  C   UNL     1      33.182 -22.965 -16.784  0.00  0.00    +0.069 A 
ATOM     22  C   UNL     1      33.609 -22.824 -15.464  0.00  0.00    +0.050 A 
ATOM     23  C   UNL     1      35.488 -22.583 -17.169  0.00  0.00    +0.293 A 
ATOM     24  C   UNL     1      31.843 -23.211 -17.068  0.00  0.00    +0.018 C 
ATOM     25  C   UNL     1      32.724 -22.926 -14.402  0.00  0.00    +0.008 C 
ATOM     26  C   UNL     1      30.942 -23.315 -16.005  0.00  0.00    +0.002 C 
ATOM     27  C   UNL     1      31.379 -23.174 -14.682  0.00  0.00    +0.001 C 
ENDBRANCH  17  20
ENDBRANCH   1  17
TORSDOF 3
ENDMDL
MODEL 7
REMARK VINA RESULT:      -9.3      7.737     13.236
REMARK  Name = 448793
REMARK  3 active torsions:
REMARK  status: ('A' for Active; 'I' for Inactive)
REMARK    1  A    between atoms: C_1  and  C_17
REMARK    2  A    between atoms: C_2  and  N_7
REMARK    3  A    between atoms: C_17  and  N_20
REMARK                            x       y       z     vdW  Elec       q    Type
REMARK                         _______ _______ _______ _____ _____    ______ ____
ROOT
ATOM      1  C   UNL     1      34.487 -21.263 -20.129  0.00  0.00    +0.001 C 
ATOM      2  C   UNL     1      34.492 -18.771 -21.355  0.00  0.00    +0.058 C 
ATOM      3  C   UNL     1      33.298 -20.554 -20.245  0.00  0.00    -0.001 C 
ATOM      4  C   UNL     1      35.678 -20.743 -20.617  0.00  0.00    -0.001 C 
ATOM      5  C   UNL     1      33.301 -19.302 -20.861  0.00  0.00    +0.015 C 
ATOM      6  C   UNL     1      35.681 -19.491 -21.234  0.00  0.00    +0.015 C 
ENDROOT
BRANCH   2   7
ATOM      7  N   UNL     1      34.495 -17.530 -21.966  0.00  0.00    -0.243 N 
ATOM      8  N   UNL     1      34.533 -15.306 -22.192  0.00  0.00    -0.392 NA
ATOM      9  N   UNL     1      34.378 -16.121 -25.802  0.00  0.00    -0.261 NA
ATOM     10  C   UNL     1      34.448 -17.282 -23.322  0.00  0.00    +0.086 C 
ATOM     11  C   UNL     1      34.544 -16.307 -21.340  0.00  0.00    +0.168 C 
ATOM     12  C   UNL     1      34.474 -15.896 -23.432  0.00  0.00    +0.149 C 
ATOM     13  C   UNL     1      34.389 -18.130 -24.419  0.00  0.00    +0.038 C 
ATOM     14  C   UNL     1      34.602 -16.178 -19.867  0.00  0.00    +0.084 C 
ATOM     15  C   UNL     1      34.436 -15.325 -24.705  0.00  0.00    +0.185 C 
ATOM     16  C   UNL     1      34.356 -17.466 -25.638  0.00  0.00    +0.095 C 
ENDBRANCH   2   7
BRANCH   1  17
ATOM     17  C   UNL     1      34.483 -22.613 -19.466  0.00  0.00    +0.136 C 
BRANCH  17  20
ATOM     18  S   UNL     1      36.475 -22.104 -16.026  0.00  0.00    -0.026 S 
ATOM     19  O   UNL     1      37.154 -21.738 -18.552  0.00  0.00    -0.259 OA
ATOM     20  N   UNL     1      34.974 -22.513 -18.108  0.00  0.00    -0.286 N 
ATOM     21  C   UNL     1      34.165 -22.850 -16.998  0.00  0.00    +0.069 A 
ATOM     22  C   UNL     1      34.821 -22.686 -15.779  0.00  0.00    +0.050 A 
ATOM     23  C   UNL     1      36.261 -22.085 -17.792  0.00  0.00    +0.293 A 
ATOM     24  C   UNL     1      32.850 -23.301 -17.036  0.00  0.00    +0.018 C 
ATOM     25  C   UNL     1      34.191 -22.966 -14.576  0.00  0.00    +0.008 C 
ATOM     26  C   UNL     1      32.206 -23.586 -15.829  0.00  0.00    +0.002 C 
ATOM     27  C   UNL     1      32.871 -23.420 -14.608  0.00  0.00    +0.001 C 
ENDBRANCH  17  20
ENDBRANCH   1  17
TORSDOF 3
ENDMDL
MODEL 8
REMARK VINA RESULT:      -9.3      1.463      2.614
REMARK  Name = 448793
REMARK  3 active torsions:
REMARK  status: ('A' for Active; 'I' for Inactive)
REMARK    1  A    between atoms: C_1  and  C_17
REMARK    2  A    between atoms: C_2  and  N_7
REMARK    3  A    between atoms: C_17  and  N_20
REMARK                            x       y       z     vdW  Elec       q    Type
REMARK                         _______ _______ _______ _____ _____    ______ ____
ROOT
ATOM      1  C   UNL     1      34.486  -9.032 -23.866  0.00  0.00    +0.001 C 
ATOM      2  C   UNL     1      33.964 -11.625 -24.711  0.00  0.00    +0.058 C 
ATOM      3  C   UNL     1      35.266  -9.597 -24.867  0.00  0.00    -0.001 C 
ATOM      4  C   UNL     1      33.449  -9.746 -23.282  0.00  0.00    -0.001 C 
ATOM      5  C   UNL     1      35.004 -10.900 -25.292  0.00  0.00    +0.015 C 
ATOM      6  C   UNL     1      33.185 -11.049 -23.707  0.00  0.00    +0.015 C 
ENDROOT
BRANCH   2   7
ATOM      7  N   UNL     1      33.704 -12.917 -25.133  0.00  0.00    -0.243 N 
ATOM      8  N   UNL     1      33.025 -14.597 -26.442  0.00  0.00    -0.392 NA
ATOM      9  N   UNL     1      34.182 -16.679 -23.606  0.00  0.00    -0.261 NA
ATOM     10  C   UNL     1      33.956 -14.076 -24.429  0.00  0.00    +0.086 C 
ATOM     11  C   UNL     1      33.145 -13.292 -26.331  0.00  0.00    +0.168 C 
ATOM     12  C   UNL     1      33.525 -15.101 -25.265  0.00  0.00    +0.149 C 
ATOM     13  C   UNL     1      34.506 -14.301 -23.175  0.00  0.00    +0.038 C 
ATOM     14  C   UNL     1      32.739 -12.304 -27.355  0.00  0.00    +0.084 C 
ATOM     15  C   UNL     1      33.649 -16.420 -24.826  0.00  0.00    +0.185 C 
ATOM     16  C   UNL     1      34.587 -15.643 -22.831  0.00  0.00    +0.095 C 
ENDBRANCH   2   7
BRANCH   1  17
ATOM     17  C   UNL     1      34.769  -7.628 -23.410  0.00  0.00    +0.136 C 
BRANCH  17  20
ATOM     18  S   UNL     1      32.385  -5.115 -25.426  0.00  0.00    -0.026 S 
ATOM     19  O   UNL     1      34.614  -6.371 -26.080  0.00  0.00    -0.259 OA
ATOM     20  N   UNL     1      33.762  -6.717 -23.912  0.00  0.00    -0.286 N 
ATOM     21  C   UNL     1      32.668  -6.306 -23.115  0.00  0.00    +0.069 A 
ATOM     22  C   UNL     1      31.812  -5.429 -23.780  0.00  0.00    +0.050 A 
ATOM     23  C   UNL     1      33.790  -6.183 -25.198  0.00  0.00    +0.293 A 
ATOM     24  C   UNL     1      32.406  -6.689 -21.804  0.00  0.00    +0.018 C 
ATOM     25  C   UNL     1      30.682  -4.915 -23.163  0.00  0.00    +0.008 C 
ATOM     26  C   UNL     1      31.269  -6.177 -21.173  0.00  0.00    +0.002 C 
ATOM     27  C   UNL     1      30.413  -5.296 -21.847  0.00  0.00    +0.001 C 
ENDBRANCH  17  20
ENDBRANCH   1  17
TORSDOF 3
ENDMDL
MODEL 9
REMARK VINA RESULT:      -9.3      2.626      3.679
REMARK  Name = 448793
REMARK  3 active torsions:
REMARK  status: ('A' for Active; 'I' for Inactive)
REMARK    1  A    between atoms: C_1  and  C_17
REMARK    2  A    between atoms: C_2  and  N_7
REMARK    3  A    between atoms: C_17  and  N_20
REMARK                            x       y       z     vdW  Elec       q    Type
REMARK                         _______ _______ _______ _____ _____    ______ ____
ROOT
ATOM      1  C   UNL     1      31.540 -11.805 -21.680  0.00  0.00    +0.001 C 
ATOM      2  C   UNL     1      32.975 -13.951 -22.703  0.00  0.00    +0.058 C 
ATOM      3  C   UNL     1      32.163 -11.686 -22.916  0.00  0.00    -0.001 C 
ATOM      4  C   UNL     1      31.626 -12.982 -20.949  0.00  0.00    -0.001 C 
ATOM      5  C   UNL     1      32.883 -12.764 -23.430  0.00  0.00    +0.015 C 
ATOM      6  C   UNL     1      32.346 -14.061 -21.463  0.00  0.00    +0.015 C 
ENDROOT
BRANCH   2   7
ATOM      7  N   UNL     1      33.690 -15.019 -23.214  0.00  0.00    -0.243 N 
ATOM      8  N   UNL     1      34.592 -16.413 -24.711  0.00  0.00    -0.392 NA
ATOM      9  N   UNL     1      35.876 -18.117 -21.683  0.00  0.00    -0.261 NA
ATOM     10  C   UNL     1      34.372 -15.972 -22.487  0.00  0.00    +0.086 C 
ATOM     11  C   UNL     1      33.857 -15.336 -24.541  0.00  0.00    +0.168 C 
ATOM     12  C   UNL     1      34.921 -16.823 -23.440  0.00  0.00    +0.149 C 
ATOM     13  C   UNL     1      34.547 -16.150 -21.121  0.00  0.00    +0.038 C 
ATOM     14  C   UNL     1      33.259 -14.527 -25.625  0.00  0.00    +0.084 C 
ATOM     15  C   UNL     1      35.683 -17.910 -23.009  0.00  0.00    +0.185 C 
ATOM     16  C   UNL     1      35.319 -17.257 -20.795  0.00  0.00    +0.095 C 
ENDBRANCH   2   7
BRANCH   1  17
ATOM     17  C   UNL     1      30.762 -10.643 -21.127  0.00  0.00    +0.136 C 
BRANCH  17  20
ATOM     18  S   UNL     1      33.246  -7.596 -20.345  0.00  0.00    -0.026 S 
ATOM     19  O   UNL     1      32.566  -9.742 -18.964  0.00  0.00    -0.259 OA
ATOM     20  N   UNL     1      31.586  -9.452 -21.088  0.00  0.00    -0.286 N 
ATOM     21  C   UNL     1      31.612  -8.531 -22.159  0.00  0.00    +0.069 A 
ATOM     22  C   UNL     1      32.466  -7.453 -21.928  0.00  0.00    +0.050 A 
ATOM     23  C   UNL     1      32.403  -9.126 -20.008  0.00  0.00    +0.293 A 
ATOM     24  C   UNL     1      30.895  -8.619 -23.348  0.00  0.00    +0.018 C 
ATOM     25  C   UNL     1      32.627  -6.444 -22.865  0.00  0.00    +0.008 C 
ATOM     26  C   UNL     1      31.050  -7.608 -24.299  0.00  0.00    +0.002 C 
ATOM     27  C   UNL     1      31.909  -6.527 -24.059  0.00  0.00    +0.001 C 
ENDBRANCH  17  20
ENDBRANCH   1  17
TORSDOF 3
ENDMDL
