MODEL 1
REMARK VINA RESULT:      -9.9      0.000      0.000
REMARK  Name = 64949
REMARK  8 active torsions:
REMARK  status: ('A' for Active; 'I' for Inactive)
REMARK    1  A    between atoms: C_1  and  C_2
REMARK    2  A    between atoms: C_1  and  C_16
REMARK    3  A    between atoms: C_2  and  O_3
REMARK    4  A    between atoms: O_3  and  C_4
REMARK    5  A    between atoms: C_7  and  C_12
REMARK    6  A    between atoms: C_16  and  O_17
REMARK    7  A    between atoms: O_17  and  C_18
REMARK    8  A    between atoms: C_21  and  C_26
REMARK                            x       y       z     vdW  Elec       q    Type
REMARK                         _______ _______ _______ _____ _____    ______ ____
ROOT
ATOM      1  C   UNL     1      34.811 -18.031 -24.042  0.00  0.00    +0.095 C 
ENDROOT
BRANCH   1   2
ATOM      2  C   UNL     1      35.929 -18.207 -23.028  0.00  0.00    +0.209 C 
BRANCH   2   3
ATOM      3  O   UNL     1      35.403 -18.000 -21.725  0.00  0.00    -0.475 OA
BRANCH   3   4
ATOM      4  C   UNL     1      34.933 -19.107 -21.065  0.00  0.00    +0.139 C 
ATOM      5  C   UNL     1      33.563 -19.310 -20.954  0.00  0.00    +0.037 C 
ATOM      6  C   UNL     1      35.831 -20.015 -20.518  0.00  0.00    +0.037 C 
ATOM      7  C   UNL     1      33.978 -21.352 -19.734  0.00  0.00    +0.031 C 
ATOM      8  C   UNL     1      33.083 -20.436 -20.286  0.00  0.00    +0.006 C 
ATOM      9  C   UNL     1      35.352 -21.142 -19.850  0.00  0.00    +0.006 C 
BRANCH   7  12
ATOM     10  N   UNL     1      32.453 -22.431 -18.097  0.00  0.00    -0.343 N 
ATOM     11  N   UNL     1      34.003 -23.713 -19.286  0.00  0.00    -0.285 NA
ATOM     12  C   UNL     1      33.480 -22.526 -19.036  0.00  0.00    +0.117 C 
ATOM     13  H   UNL     1      32.131 -23.238 -17.637  0.00  0.00    +0.144 HD
ATOM     14  H   UNL     1      32.052 -21.555 -17.895  0.00  0.00    +0.144 HD
ATOM     15  H   UNL     1      33.667 -24.509 -18.815  0.00  0.00    +0.188 HD
ENDBRANCH   7  12
ENDBRANCH   3   4
ENDBRANCH   2   3
ENDBRANCH   1   2
BRANCH   1  16
ATOM     16  C   UNL     1      34.681 -16.587 -24.502  0.00  0.00    +0.209 C 
BRANCH  16  17
ATOM     17  O   UNL     1      35.200 -15.716 -23.507  0.00  0.00    -0.475 OA
BRANCH  17  18
ATOM     18  C   UNL     1      34.318 -14.835 -22.936  0.00  0.00    +0.139 C 
ATOM     19  C   UNL     1      33.875 -15.050 -21.636  0.00  0.00    +0.037 C 
ATOM     20  C   UNL     1      33.876 -13.735 -23.662  0.00  0.00    +0.037 C 
ATOM     21  C   UNL     1      32.531 -13.048 -21.777  0.00  0.00    +0.031 C 
ATOM     22  C   UNL     1      32.979 -14.154 -21.055  0.00  0.00    +0.006 C 
ATOM     23  C   UNL     1      32.980 -12.839 -23.081  0.00  0.00    +0.006 C 
BRANCH  21  26
ATOM     24  N   UNL     1      31.702 -11.749 -19.830  0.00  0.00    -0.343 N 
ATOM     25  N   UNL     1      30.620 -11.595 -21.895  0.00  0.00    -0.285 NA
ATOM     26  C   UNL     1      31.596 -12.113 -21.171  0.00  0.00    +0.117 C 
ATOM     27  H   UNL     1      31.059 -11.114 -19.440  0.00  0.00    +0.144 HD
ATOM     28  H   UNL     1      32.422 -12.126 -19.273  0.00  0.00    +0.144 HD
ATOM     29  H   UNL     1      29.986 -10.963 -21.487  0.00  0.00    +0.188 HD
ENDBRANCH  21  26
ENDBRANCH  17  18
ENDBRANCH  16  17
ENDBRANCH   1  16
TORSDOF 8
ENDMDL
MODEL 2
REMARK VINA RESULT:      -9.8      4.921      8.176
REMARK  Name = 64949
REMARK  8 active torsions:
REMARK  status: ('A' for Active; 'I' for Inactive)
REMARK    1  A    between atoms: C_1  and  C_2
REMARK    2  A    between atoms: C_1  and  C_16
REMARK    3  A    between atoms: C_2  and  O_3
REMARK    4  A    between atoms: O_3  and  C_4
REMARK    5  A    between atoms: C_7  and  C_12
REMARK    6  A    between atoms: C_16  and  O_17
REMARK    7  A    between atoms: O_17  and  C_18
REMARK    8  A    between atoms: C_21  and  C_26
REMARK                            x       y       z     vdW  Elec       q    Type
REMARK                         _______ _______ _______ _____ _____    ______ ____
ROOT
ATOM      1  C   UNL     1      34.984 -23.974 -15.525  0.00  0.00    +0.095 C 
ENDROOT
BRANCH   1   2
ATOM      2  C   UNL     1      33.954 -23.572 -14.482  0.00  0.00    +0.209 C 
BRANCH   2   3
ATOM      3  O   UNL     1      32.930 -24.556 -14.445  0.00  0.00    -0.475 OA
BRANCH   3   4
ATOM      4  C   UNL     1      31.706 -24.193 -14.945  0.00  0.00    +0.139 C 
ATOM      5  C   UNL     1      31.619 -23.151 -15.859  0.00  0.00    +0.037 C 
ATOM      6  C   UNL     1      30.566 -24.875 -14.535  0.00  0.00    +0.037 C 
ATOM      7  C   UNL     1      29.225 -23.461 -15.964  0.00  0.00    +0.031 C 
ATOM      8  C   UNL     1      30.374 -22.782 -16.370  0.00  0.00    +0.006 C 
ATOM      9  C   UNL     1      29.322 -24.507 -15.046  0.00  0.00    +0.006 C 
BRANCH   7  12
ATOM     10  N   UNL     1      27.049 -22.282 -15.761  0.00  0.00    -0.343 N 
ATOM     11  N   UNL     1      27.561 -23.488 -17.696  0.00  0.00    -0.285 NA
ATOM     12  C   UNL     1      27.928 -23.078 -16.495  0.00  0.00    +0.117 C 
ATOM     13  H   UNL     1      26.176 -22.033 -16.140  0.00  0.00    +0.144 HD
ATOM     14  H   UNL     1      27.304 -21.968 -14.863  0.00  0.00    +0.144 HD
ATOM     15  H   UNL     1      26.682 -23.229 -18.058  0.00  0.00    +0.188 HD
ENDBRANCH   7  12
ENDBRANCH   3   4
ENDBRANCH   2   3
ENDBRANCH   1   2
BRANCH   1  16
ATOM     16  C   UNL     1      35.242 -22.861 -16.528  0.00  0.00    +0.209 C 
BRANCH  16  17
ATOM     17  O   UNL     1      34.618 -23.173 -17.766  0.00  0.00    -0.475 OA
BRANCH  17  18
ATOM     18  C   UNL     1      34.592 -22.180 -18.712  0.00  0.00    +0.139 C 
ATOM     19  C   UNL     1      33.370 -21.693 -19.162  0.00  0.00    +0.037 C 
ATOM     20  C   UNL     1      35.786 -21.671 -19.209  0.00  0.00    +0.037 C 
ATOM     21  C   UNL     1      34.536 -20.167 -20.627  0.00  0.00    +0.031 C 
ATOM     22  C   UNL     1      33.342 -20.683 -20.123  0.00  0.00    +0.006 C 
ATOM     23  C   UNL     1      35.758 -20.661 -20.170  0.00  0.00    +0.006 C 
BRANCH  21  26
ATOM     24  N   UNL     1      34.210 -17.796 -21.288  0.00  0.00    -0.343 N 
ATOM     25  N   UNL     1      34.763 -19.400 -22.894  0.00  0.00    -0.285 NA
ATOM     26  C   UNL     1      34.507 -19.113 -21.630  0.00  0.00    +0.117 C 
ATOM     27  H   UNL     1      34.196 -17.098 -21.982  0.00  0.00    +0.144 HD
ATOM     28  H   UNL     1      34.015 -17.562 -20.351  0.00  0.00    +0.144 HD
ATOM     29  H   UNL     1      34.744 -18.689 -23.574  0.00  0.00    +0.188 HD
ENDBRANCH  21  26
ENDBRANCH  17  18
ENDBRANCH  16  17
ENDBRANCH   1  16
TORSDOF 8
ENDMDL
MODEL 3
REMARK VINA RESULT:      -9.8      4.988     10.537
REMARK  Name = 64949
REMARK  8 active torsions:
REMARK  status: ('A' for Active; 'I' for Inactive)
REMARK    1  A    between atoms: C_1  and  C_2
REMARK    2  A    between atoms: C_1  and  C_16
REMARK    3  A    between atoms: C_2  and  O_3
REMARK    4  A    between atoms: O_3  and  C_4
REMARK    5  A    between atoms: C_7  and  C_12
REMARK    6  A    between atoms: C_16  and  O_17
REMARK    7  A    between atoms: O_17  and  C_18
REMARK    8  A    between atoms: C_21  and  C_26
REMARK                            x       y       z     vdW  Elec       q    Type
REMARK                         _______ _______ _______ _____ _____    ______ ____
ROOT
ATOM      1  C   UNL     1      32.664 -23.205 -16.948  0.00  0.00    +0.095 C 
ENDROOT
BRANCH   1   2
ATOM      2  C   UNL     1      33.644 -22.871 -18.060  0.00  0.00    +0.209 C 
BRANCH   2   3
ATOM      3  O   UNL     1      32.936 -22.261 -19.129  0.00  0.00    -0.475 OA
BRANCH   3   4
ATOM      4  C   UNL     1      33.562 -21.225 -19.774  0.00  0.00    +0.139 C 
ATOM      5  C   UNL     1      34.950 -21.177 -19.809  0.00  0.00    +0.037 C 
ATOM      6  C   UNL     1      32.802 -20.237 -20.388  0.00  0.00    +0.037 C 
ATOM      7  C   UNL     1      34.833 -19.129 -21.085  0.00  0.00    +0.031 C 
ATOM      8  C   UNL     1      35.589 -20.125 -20.467  0.00  0.00    +0.006 C 
ATOM      9  C   UNL     1      33.440 -19.185 -21.046  0.00  0.00    +0.006 C 
BRANCH   7  12
ATOM     10  N   UNL     1      35.108 -16.709 -21.568  0.00  0.00    -0.343 N 
ATOM     11  N   UNL     1      36.489 -18.281 -22.606  0.00  0.00    -0.285 NA
ATOM     12  C   UNL     1      35.497 -18.032 -21.770  0.00  0.00    +0.117 C 
ATOM     13  H   UNL     1      35.571 -15.981 -22.041  0.00  0.00    +0.144 HD
ATOM     14  H   UNL     1      34.369 -16.503 -20.950  0.00  0.00    +0.144 HD
ATOM     15  H   UNL     1      36.940 -17.540 -23.071  0.00  0.00    +0.188 HD
ENDBRANCH   7  12
ENDBRANCH   3   4
ENDBRANCH   2   3
ENDBRANCH   1   2
BRANCH   1  16
ATOM     16  C   UNL     1      33.373 -23.577 -15.656  0.00  0.00    +0.209 C 
BRANCH  16  17
ATOM     17  O   UNL     1      34.547 -22.791 -15.506  0.00  0.00    -0.475 OA
BRANCH  17  18
ATOM     18  C   UNL     1      35.727 -23.469 -15.338  0.00  0.00    +0.139 C 
ATOM     19  C   UNL     1      36.925 -22.865 -15.704  0.00  0.00    +0.037 C 
ATOM     20  C   UNL     1      35.714 -24.752 -14.804  0.00  0.00    +0.037 C 
ATOM     21  C   UNL     1      38.120 -24.842 -14.997  0.00  0.00    +0.031 C 
ATOM     22  C   UNL     1      38.125 -23.554 -15.532  0.00  0.00    +0.006 C 
ATOM     23  C   UNL     1      36.914 -25.441 -14.633  0.00  0.00    +0.006 C 
BRANCH  21  26
ATOM     24  N   UNL     1      39.720 -26.115 -13.587  0.00  0.00    -0.343 N 
ATOM     25  N   UNL     1      40.205 -25.693 -15.834  0.00  0.00    -0.285 NA
ATOM     26  C   UNL     1      39.372 -25.561 -14.817  0.00  0.00    +0.117 C 
ATOM     27  H   UNL     1      40.572 -26.596 -13.488  0.00  0.00    +0.144 HD
ATOM     28  H   UNL     1      39.113 -26.024 -12.817  0.00  0.00    +0.144 HD
ATOM     29  H   UNL     1      41.054 -26.178 -15.714  0.00  0.00    +0.188 HD
ENDBRANCH  21  26
ENDBRANCH  17  18
ENDBRANCH  16  17
ENDBRANCH   1  16
TORSDOF 8
ENDMDL
MODEL 4
REMARK VINA RESULT:      -9.8      5.035      9.593
REMARK  Name = 64949
REMARK  8 active torsions:
REMARK  status: ('A' for Active; 'I' for Inactive)
REMARK    1  A    between atoms: C_1  and  C_2
REMARK    2  A    between atoms: C_1  and  C_16
REMARK    3  A    between atoms: C_2  and  O_3
REMARK    4  A    between atoms: O_3  and  C_4
REMARK    5  A    between atoms: C_7  and  C_12
REMARK    6  A    between atoms: C_16  and  O_17
REMARK    7  A    between atoms: O_17  and  C_18
REMARK    8  A    between atoms: C_21  and  C_26
REMARK                            x       y       z     vdW  Elec       q    Type
REMARK                         _______ _______ _______ _____ _____    ______ ____
ROOT
ATOM      1  C   UNL     1      34.875 -24.114 -15.549  0.00  0.00    +0.095 C 
ENDROOT
BRANCH   1   2
ATOM      2  C   UNL     1      35.194 -22.968 -16.494  0.00  0.00    +0.209 C 
BRANCH   2   3
ATOM      3  O   UNL     1      34.528 -23.192 -17.729  0.00  0.00    -0.475 OA
BRANCH   3   4
ATOM      4  C   UNL     1      34.612 -22.195 -18.666  0.00  0.00    +0.139 C 
ATOM      5  C   UNL     1      33.449 -21.659 -19.205  0.00  0.00    +0.037 C 
ATOM      6  C   UNL     1      35.859 -21.729 -19.064  0.00  0.00    +0.037 C 
ATOM      7  C   UNL     1      34.780 -20.170 -20.563  0.00  0.00    +0.031 C 
ATOM      8  C   UNL     1      33.532 -20.643 -20.157  0.00  0.00    +0.006 C 
ATOM      9  C   UNL     1      35.943 -20.713 -20.017  0.00  0.00    +0.006 C 
BRANCH   7  12
ATOM     10  N   UNL     1      34.683 -19.372 -22.913  0.00  0.00    -0.343 N 
ATOM     11  N   UNL     1      35.134 -17.874 -21.177  0.00  0.00    -0.285 NA
ATOM     12  C   UNL     1      34.869 -19.112 -21.556  0.00  0.00    +0.117 C 
ATOM     13  H   UNL     1      34.747 -18.641 -23.568  0.00  0.00    +0.144 HD
ATOM     14  H   UNL     1      34.487 -20.289 -23.215  0.00  0.00    +0.144 HD
ATOM     15  H   UNL     1      35.195 -17.156 -21.848  0.00  0.00    +0.188 HD
ENDBRANCH   7  12
ENDBRANCH   3   4
ENDBRANCH   2   3
ENDBRANCH   1   2
BRANCH   1  16
ATOM     16  C   UNL     1      33.949 -23.683 -14.423  0.00  0.00    +0.209 C 
BRANCH  16  17
ATOM     17  O   UNL     1      32.888 -24.617 -14.285  0.00  0.00    -0.475 OA
BRANCH  17  18
ATOM     18  C   UNL     1      31.675 -24.257 -14.813  0.00  0.00    +0.139 C 
ATOM     19  C   UNL     1      31.595 -23.168 -15.673  0.00  0.00    +0.037 C 
ATOM     20  C   UNL     1      30.537 -24.985 -14.484  0.00  0.00    +0.037 C 
ATOM     21  C   UNL     1      29.216 -23.527 -15.885  0.00  0.00    +0.031 C 
ATOM     22  C   UNL     1      30.362 -22.801 -16.211  0.00  0.00    +0.006 C 
ATOM     23  C   UNL     1      29.304 -24.619 -15.022  0.00  0.00    +0.006 C 
BRANCH  21  26
ATOM     24  N   UNL     1      27.073 -22.277 -15.772  0.00  0.00    -0.343 N 
ATOM     25  N   UNL     1      27.553 -23.628 -17.617  0.00  0.00    -0.285 NA
ATOM     26  C   UNL     1      27.929 -23.145 -16.446  0.00  0.00    +0.117 C 
ATOM     27  H   UNL     1      26.207 -22.032 -16.169  0.00  0.00    +0.144 HD
ATOM     28  H   UNL     1      27.335 -21.908 -14.897  0.00  0.00    +0.144 HD
ATOM     29  H   UNL     1      26.683 -23.372 -17.998  0.00  0.00    +0.188 HD
ENDBRANCH  21  26
ENDBRANCH  17  18
ENDBRANCH  16  17
ENDBRANCH   1  16
TORSDOF 8
ENDMDL
MODEL 5
REMARK VINA RESULT:      -9.8      0.799      8.126
REMARK  Name = 64949
REMARK  8 active torsions:
REMARK  status: ('A' for Active; 'I' for Inactive)
REMARK    1  A    between atoms: C_1  and  C_2
REMARK    2  A    between atoms: C_1  and  C_16
REMARK    3  A    between atoms: C_2  and  O_3
REMARK    4  A    between atoms: O_3  and  C_4
REMARK    5  A    between atoms: C_7  and  C_12
REMARK    6  A    between atoms: C_16  and  O_17
REMARK    7  A    between atoms: O_17  and  C_18
REMARK    8  A    between atoms: C_21  and  C_26
REMARK                            x       y       z     vdW  Elec       q    Type
REMARK                         _______ _______ _______ _____ _____    ______ ____
ROOT
ATOM      1  C   UNL     1      34.888 -17.854 -23.788  0.00  0.00    +0.095 C 
ENDROOT
BRANCH   1   2
ATOM      2  C   UNL     1      35.291 -16.772 -22.800  0.00  0.00    +0.209 C 
BRANCH   2   3
ATOM      3  O   UNL     1      35.147 -15.504 -23.424  0.00  0.00    -0.475 OA
BRANCH   3   4
ATOM      4  C   UNL     1      34.241 -14.639 -22.865  0.00  0.00    +0.139 C 
ATOM      5  C   UNL     1      33.712 -14.916 -21.610  0.00  0.00    +0.037 C 
ATOM      6  C   UNL     1      33.865 -13.494 -23.557  0.00  0.00    +0.037 C 
ATOM      7  C   UNL     1      32.409 -12.885 -21.728  0.00  0.00    +0.031 C 
ATOM      8  C   UNL     1      32.792 -14.037 -21.039  0.00  0.00    +0.006 C 
ATOM      9  C   UNL     1      32.945 -12.615 -22.986  0.00  0.00    +0.006 C 
BRANCH   7  12
ATOM     10  N   UNL     1      31.529 -11.605 -19.790  0.00  0.00    -0.343 N 
ATOM     11  N   UNL     1      30.478 -11.463 -21.872  0.00  0.00    -0.285 NA
ATOM     12  C   UNL     1      31.450 -11.968 -21.134  0.00  0.00    +0.117 C 
ATOM     13  H   UNL     1      30.870 -10.982 -19.409  0.00  0.00    +0.144 HD
ATOM     14  H   UNL     1      32.245 -11.973 -19.223  0.00  0.00    +0.144 HD
ATOM     15  H   UNL     1      29.827 -10.842 -21.472  0.00  0.00    +0.188 HD
ENDBRANCH   7  12
ENDBRANCH   3   4
ENDBRANCH   2   3
ENDBRANCH   1   2
BRANCH   1  16
ATOM     16  C   UNL     1      35.030 -19.247 -23.196  0.00  0.00    +0.209 C 
BRANCH  16  17
ATOM     17  O   UNL     1      35.533 -19.160 -21.871  0.00  0.00    -0.475 OA
BRANCH  17  18
ATOM     18  C   UNL     1      34.993 -20.016 -20.946  0.00  0.00    +0.139 C 
ATOM     19  C   UNL     1      35.819 -20.900 -20.262  0.00  0.00    +0.037 C 
ATOM     20  C   UNL     1      33.624 -19.991 -20.702  0.00  0.00    +0.037 C 
ATOM     21  C   UNL     1      33.898 -21.751 -19.071  0.00  0.00    +0.031 C 
ATOM     22  C   UNL     1      35.270 -21.770 -19.321  0.00  0.00    +0.006 C 
ATOM     23  C   UNL     1      33.075 -20.862 -19.761  0.00  0.00    +0.006 C 
BRANCH  21  26
ATOM     24  N   UNL     1      31.965 -22.637 -17.788  0.00  0.00    -0.343 N 
ATOM     25  N   UNL     1      34.102 -23.523 -17.460  0.00  0.00    -0.285 NA
ATOM     26  C   UNL     1      33.325 -22.659 -18.088  0.00  0.00    +0.117 C 
ATOM     27  H   UNL     1      31.598 -23.260 -17.121  0.00  0.00    +0.144 HD
ATOM     28  H   UNL     1      31.369 -21.999 -18.245  0.00  0.00    +0.144 HD
ATOM     29  H   UNL     1      33.716 -24.138 -16.795  0.00  0.00    +0.188 HD
ENDBRANCH  21  26
ENDBRANCH  17  18
ENDBRANCH  16  17
ENDBRANCH   1  16
TORSDOF 8
ENDMDL
MODEL 6
REMARK VINA RESULT:      -9.6      1.734      2.577
REMARK  Name = 64949
REMARK  8 active torsions:
REMARK  status: ('A' for Active; 'I' for Inactive)
REMARK    1  A    between atoms: C_1  and  C_2
REMARK    2  A    between atoms: C_1  and  C_16
REMARK    3  A    between atoms: C_2  and  O_3
REMARK    4  A    between atoms: O_3  and  C_4
REMARK    5  A    between atoms: C_7  and  C_12
REMARK    6  A    between atoms: C_16  and  O_17
REMARK    7  A    between atoms: O_17  and  C_18
REMARK    8  A    between atoms: C_21  and  C_26
REMARK                            x       y       z     vdW  Elec       q    Type
REMARK                         _______ _______ _______ _____ _____    ______ ____
ROOT
ATOM      1  C   UNL     1      34.570 -18.232 -24.284  0.00  0.00    +0.095 C 
ENDROOT
BRANCH   1   2
ATOM      2  C   UNL     1      35.554 -17.937 -23.163  0.00  0.00    +0.209 C 
BRANCH   2   3
ATOM      3  O   UNL     1      34.831 -17.759 -21.954  0.00  0.00    -0.475 OA
BRANCH   3   4
ATOM      4  C   UNL     1      34.511 -18.893 -21.252  0.00  0.00    +0.139 C 
ATOM      5  C   UNL     1      35.524 -19.736 -20.810  0.00  0.00    +0.037 C 
ATOM      6  C   UNL     1      33.179 -19.186 -20.987  0.00  0.00    +0.037 C 
ATOM      7  C   UNL     1      33.865 -21.190 -19.826  0.00  0.00    +0.031 C 
ATOM      8  C   UNL     1      35.200 -20.889 -20.095  0.00  0.00    +0.006 C 
ATOM      9  C   UNL     1      32.855 -20.338 -20.272  0.00  0.00    +0.006 C 
BRANCH   7  12
ATOM     10  N   UNL     1      32.534 -22.383 -18.102  0.00  0.00    -0.343 N 
ATOM     11  N   UNL     1      34.167 -23.520 -19.325  0.00  0.00    -0.285 NA
ATOM     12  C   UNL     1      33.527 -22.391 -19.080  0.00  0.00    +0.117 C 
ATOM     13  H   UNL     1      32.320 -23.207 -17.610  0.00  0.00    +0.144 HD
ATOM     14  H   UNL     1      32.047 -21.550 -17.903  0.00  0.00    +0.144 HD
ATOM     15  H   UNL     1      33.939 -24.335 -18.821  0.00  0.00    +0.188 HD
ENDBRANCH   7  12
ENDBRANCH   3   4
ENDBRANCH   2   3
ENDBRANCH   1   2
BRANCH   1  16
ATOM     16  C   UNL     1      34.684 -17.229 -25.421  0.00  0.00    +0.209 C 
BRANCH  16  17
ATOM     17  O   UNL     1      33.488 -16.469 -25.515  0.00  0.00    -0.475 OA
BRANCH  17  18
ATOM     18  C   UNL     1      33.567 -15.145 -25.167  0.00  0.00    +0.139 C 
ATOM     19  C   UNL     1      33.395 -14.167 -26.140  0.00  0.00    +0.037 C 
ATOM     20  C   UNL     1      33.819 -14.794 -23.846  0.00  0.00    +0.037 C 
ATOM     21  C   UNL     1      33.726 -12.461 -24.463  0.00  0.00    +0.031 C 
ATOM     22  C   UNL     1      33.474 -12.820 -25.787  0.00  0.00    +0.006 C 
ATOM     23  C   UNL     1      33.898 -13.447 -23.493  0.00  0.00    +0.006 C 
BRANCH  21  26
ATOM     24  N   UNL     1      32.794 -10.436 -23.367  0.00  0.00    -0.343 N 
ATOM     25  N   UNL     1      34.861 -10.342 -24.453  0.00  0.00    -0.285 NA
ATOM     26  C   UNL     1      33.809 -11.055 -24.094  0.00  0.00    +0.117 C 
ATOM     27  H   UNL     1      32.870  -9.485 -23.128  0.00  0.00    +0.144 HD
ATOM     28  H   UNL     1      32.001 -10.951 -23.091  0.00  0.00    +0.144 HD
ATOM     29  H   UNL     1      34.919  -9.391 -24.205  0.00  0.00    +0.188 HD
ENDBRANCH  21  26
ENDBRANCH  17  18
ENDBRANCH  16  17
ENDBRANCH   1  16
TORSDOF 8
ENDMDL
MODEL 7
REMARK VINA RESULT:      -9.6      3.339      5.194
REMARK  Name = 64949
REMARK  8 active torsions:
REMARK  status: ('A' for Active; 'I' for Inactive)
REMARK    1  A    between atoms: C_1  and  C_2
REMARK    2  A    between atoms: C_1  and  C_16
REMARK    3  A    between atoms: C_2  and  O_3
REMARK    4  A    between atoms: O_3  and  C_4
REMARK    5  A    between atoms: C_7  and  C_12
REMARK    6  A    between atoms: C_16  and  O_17
REMARK    7  A    between atoms: O_17  and  C_18
REMARK    8  A    between atoms: C_21  and  C_26
REMARK                            x       y       z     vdW  Elec       q    Type
REMARK                         _______ _______ _______ _____ _____    ______ ____
ROOT
ATOM      1  C   UNL     1      36.459 -21.248 -19.891  0.00  0.00    +0.095 C 
ENDROOT
BRANCH   1   2
ATOM      2  C   UNL     1      36.095 -21.769 -18.510  0.00  0.00    +0.209 C 
BRANCH   2   3
ATOM      3  O   UNL     1      35.013 -22.681 -18.635  0.00  0.00    -0.475 OA
BRANCH   3   4
ATOM      4  C   UNL     1      34.246 -22.886 -17.517  0.00  0.00    +0.139 C 
ATOM      5  C   UNL     1      32.864 -22.975 -17.638  0.00  0.00    +0.037 C 
ATOM      6  C   UNL     1      34.859 -23.006 -16.275  0.00  0.00    +0.037 C 
ATOM      7  C   UNL     1      32.691 -23.307 -15.252  0.00  0.00    +0.031 C 
ATOM      8  C   UNL     1      32.083 -23.186 -16.502  0.00  0.00    +0.006 C 
ATOM      9  C   UNL     1      34.078 -23.217 -15.139  0.00  0.00    +0.006 C 
BRANCH   7  12
ATOM     10  N   UNL     1      30.658 -24.197 -14.137  0.00  0.00    -0.343 N 
ATOM     11  N   UNL     1      32.291 -23.082 -12.893  0.00  0.00    -0.285 NA
ATOM     12  C   UNL     1      31.878 -23.526 -14.066  0.00  0.00    +0.117 C 
ATOM     13  H   UNL     1      30.124 -24.335 -13.322  0.00  0.00    +0.144 HD
ATOM     14  H   UNL     1      30.331 -24.533 -15.003  0.00  0.00    +0.144 HD
ATOM     15  H   UNL     1      31.742 -23.230 -12.089  0.00  0.00    +0.188 HD
ENDBRANCH   7  12
ENDBRANCH   3   4
ENDBRANCH   2   3
ENDBRANCH   1   2
BRANCH   1  16
ATOM     16  C   UNL     1      35.380 -20.339 -20.460  0.00  0.00    +0.209 C 
BRANCH  16  17
ATOM     17  O   UNL     1      35.849 -18.999 -20.498  0.00  0.00    -0.475 OA
BRANCH  17  18
ATOM     18  C   UNL     1      35.399 -18.216 -21.530  0.00  0.00    +0.139 C 
ATOM     19  C   UNL     1      35.353 -18.736 -22.818  0.00  0.00    +0.037 C 
ATOM     20  C   UNL     1      34.992 -16.911 -21.277  0.00  0.00    +0.037 C 
ATOM     21  C   UNL     1      34.485 -16.631 -23.622  0.00  0.00    +0.031 C 
ATOM     22  C   UNL     1      34.894 -17.941 -23.868  0.00  0.00    +0.006 C 
ATOM     23  C   UNL     1      34.533 -16.116 -22.327  0.00  0.00    +0.006 C 
BRANCH  21  26
ATOM     24  N   UNL     1      33.499 -14.523 -24.490  0.00  0.00    -0.343 N 
ATOM     25  N   UNL     1      34.043 -16.260 -25.955  0.00  0.00    -0.285 NA
ATOM     26  C   UNL     1      34.005 -15.801 -24.717  0.00  0.00    +0.117 C 
ATOM     27  H   UNL     1      33.180 -13.978 -25.245  0.00  0.00    +0.144 HD
ATOM     28  H   UNL     1      33.461 -14.164 -23.573  0.00  0.00    +0.144 HD
ATOM     29  H   UNL     1      33.719 -15.700 -26.697  0.00  0.00    +0.188 HD
ENDBRANCH  21  26
ENDBRANCH  17  18
ENDBRANCH  16  17
ENDBRANCH   1  16
TORSDOF 8
ENDMDL
MODEL 8
REMARK VINA RESULT:      -9.6      4.690      7.596
REMARK  Name = 64949
REMARK  8 active torsions:
REMARK  status: ('A' for Active; 'I' for Inactive)
REMARK    1  A    between atoms: C_1  and  C_2
REMARK    2  A    between atoms: C_1  and  C_16
REMARK    3  A    between atoms: C_2  and  O_3
REMARK    4  A    between atoms: O_3  and  C_4
REMARK    5  A    between atoms: C_7  and  C_12
REMARK    6  A    between atoms: C_16  and  O_17
REMARK    7  A    between atoms: O_17  and  C_18
REMARK    8  A    between atoms: C_21  and  C_26
REMARK                            x       y       z     vdW  Elec       q    Type
REMARK                         _______ _______ _______ _____ _____    ______ ____
ROOT
ATOM      1  C   UNL     1      36.108 -22.584 -15.609  0.00  0.00    +0.095 C 
ENDROOT
BRANCH   1   2
ATOM      2  C   UNL     1      35.098 -23.719 -15.631  0.00  0.00    +0.209 C 
BRANCH   2   3
ATOM      3  O   UNL     1      34.139 -23.500 -14.606  0.00  0.00    -0.475 OA
BRANCH   3   4
ATOM      4  C   UNL     1      32.843 -23.299 -15.006  0.00  0.00    +0.139 C 
ATOM      5  C   UNL     1      32.548 -23.202 -16.360  0.00  0.00    +0.037 C 
ATOM      6  C   UNL     1      31.837 -23.199 -14.052  0.00  0.00    +0.037 C 
ATOM      7  C   UNL     1      30.214 -22.898 -15.817  0.00  0.00    +0.031 C 
ATOM      8  C   UNL     1      31.230 -23.000 -16.768  0.00  0.00    +0.006 C 
ATOM      9  C   UNL     1      30.518 -22.997 -14.460  0.00  0.00    +0.006 C 
BRANCH   7  12
ATOM     10  N   UNL     1      28.344 -23.261 -17.410  0.00  0.00    -0.343 N 
ATOM     11  N   UNL     1      28.034 -21.935 -15.512  0.00  0.00    -0.285 NA
ATOM     12  C   UNL     1      28.840 -22.686 -16.240  0.00  0.00    +0.117 C 
ATOM     13  H   UNL     1      27.411 -23.106 -17.678  0.00  0.00    +0.144 HD
ATOM     14  H   UNL     1      28.930 -23.822 -17.968  0.00  0.00    +0.144 HD
ATOM     15  H   UNL     1      27.103 -21.791 -15.797  0.00  0.00    +0.188 HD
ENDBRANCH   7  12
ENDBRANCH   3   4
ENDBRANCH   2   3
ENDBRANCH   1   2
BRANCH   1  16
ATOM     16  C   UNL     1      36.539 -22.178 -17.010  0.00  0.00    +0.209 C 
BRANCH  16  17
ATOM     17  O   UNL     1      35.523 -22.513 -17.944  0.00  0.00    -0.475 OA
BRANCH  17  18
ATOM     18  C   UNL     1      35.304 -21.624 -18.964  0.00  0.00    +0.139 C 
ATOM     19  C   UNL     1      34.006 -21.389 -19.404  0.00  0.00    +0.037 C 
ATOM     20  C   UNL     1      36.380 -20.965 -19.547  0.00  0.00    +0.037 C 
ATOM     21  C   UNL     1      34.858 -19.819 -21.030  0.00  0.00    +0.031 C 
ATOM     22  C   UNL     1      33.782 -20.484 -20.441  0.00  0.00    +0.006 C 
ATOM     23  C   UNL     1      36.156 -20.060 -20.583  0.00  0.00    +0.006 C 
BRANCH  21  26
ATOM     24  N   UNL     1      34.368 -17.529 -21.856  0.00  0.00    -0.343 N 
ATOM     25  N   UNL     1      34.649 -19.290 -23.365  0.00  0.00    -0.285 NA
ATOM     26  C   UNL     1      34.624 -18.874 -22.112  0.00  0.00    +0.117 C 
ATOM     27  H   UNL     1      34.213 -16.906 -22.602  0.00  0.00    +0.144 HD
ATOM     28  H   UNL     1      34.343 -17.200 -20.928  0.00  0.00    +0.144 HD
ATOM     29  H   UNL     1      34.491 -18.652 -24.099  0.00  0.00    +0.188 HD
ENDBRANCH  21  26
ENDBRANCH  17  18
ENDBRANCH  16  17
ENDBRANCH   1  16
TORSDOF 8
ENDMDL
MODEL 9
REMARK VINA RESULT:      -9.5      3.363      9.204
REMARK  Name = 64949
REMARK  8 active torsions:
REMARK  status: ('A' for Active; 'I' for Inactive)
REMARK    1  A    between atoms: C_1  and  C_2
REMARK    2  A    between atoms: C_1  and  C_16
REMARK    3  A    between atoms: C_2  and  O_3
REMARK    4  A    between atoms: O_3  and  C_4
REMARK    5  A    between atoms: C_7  and  C_12
REMARK    6  A    between atoms: C_16  and  O_17
REMARK    7  A    between atoms: O_17  and  C_18
REMARK    8  A    between atoms: C_21  and  C_26
REMARK                            x       y       z     vdW  Elec       q    Type
REMARK                         _______ _______ _______ _____ _____    ______ ____
ROOT
ATOM      1  C   UNL     1      34.299 -20.574 -20.219  0.00  0.00    +0.095 C 
ENDROOT
BRANCH   1   2
ATOM      2  C   UNL     1      35.659 -20.161 -20.757  0.00  0.00    +0.209 C 
BRANCH   2   3
ATOM      3  O   UNL     1      35.804 -18.755 -20.605  0.00  0.00    -0.475 OA
BRANCH   3   4
ATOM      4  C   UNL     1      35.334 -17.972 -21.628  0.00  0.00    +0.139 C 
ATOM      5  C   UNL     1      35.461 -18.408 -22.941  0.00  0.00    +0.037 C 
ATOM      6  C   UNL     1      34.732 -16.753 -21.339  0.00  0.00    +0.037 C 
ATOM      7  C   UNL     1      34.376 -16.387 -23.701  0.00  0.00    +0.031 C 
ATOM      8  C   UNL     1      34.981 -17.613 -23.982  0.00  0.00    +0.006 C 
ATOM      9  C   UNL     1      34.252 -15.958 -22.381  0.00  0.00    +0.006 C 
BRANCH   7  12
ATOM     10  N   UNL     1      33.380 -14.276 -24.549  0.00  0.00    -0.343 N 
ATOM     11  N   UNL     1      33.885 -16.016 -26.024  0.00  0.00    -0.285 NA
ATOM     12  C   UNL     1      33.877 -15.557 -24.785  0.00  0.00    +0.117 C 
ATOM     13  H   UNL     1      33.048 -13.731 -25.297  0.00  0.00    +0.144 HD
ATOM     14  H   UNL     1      33.364 -13.917 -23.632  0.00  0.00    +0.144 HD
ATOM     15  H   UNL     1      33.547 -15.456 -26.760  0.00  0.00    +0.188 HD
ENDBRANCH   7  12
ENDBRANCH   3   4
ENDBRANCH   2   3
ENDBRANCH   1   2
BRANCH   1  16
ATOM     16  C   UNL     1      34.360 -21.896 -19.470  0.00  0.00    +0.209 C 
BRANCH  16  17
ATOM     17  O   UNL     1      33.054 -22.285 -19.070  0.00  0.00    -0.475 OA
BRANCH  17  18
ATOM     18  C   UNL     1      32.901 -22.693 -17.770  0.00  0.00    +0.139 C 
ATOM     19  C   UNL     1      31.635 -22.706 -17.197  0.00  0.00    +0.037 C 
ATOM     20  C   UNL     1      34.014 -23.092 -17.038  0.00  0.00    +0.037 C 
ATOM     21  C   UNL     1      32.592 -23.523 -15.135  0.00  0.00    +0.031 C 
ATOM     22  C   UNL     1      31.479 -23.122 -15.875  0.00  0.00    +0.006 C 
ATOM     23  C   UNL     1      33.859 -23.508 -15.717  0.00  0.00    +0.006 C 
BRANCH  21  26
ATOM     24  N   UNL     1      32.188 -25.293 -13.441  0.00  0.00    -0.343 N 
ATOM     25  N   UNL     1      32.507 -23.076 -12.775  0.00  0.00    -0.285 NA
ATOM     26  C   UNL     1      32.429 -23.958 -13.756  0.00  0.00    +0.117 C 
ATOM     27  H   UNL     1      32.081 -25.566 -12.501  0.00  0.00    +0.144 HD
ATOM     28  H   UNL     1      32.124 -25.965 -14.159  0.00  0.00    +0.144 HD
ATOM     29  H   UNL     1      32.397 -23.368 -11.841  0.00  0.00    +0.188 HD
ENDBRANCH  21  26
ENDBRANCH  17  18
ENDBRANCH  16  17
ENDBRANCH   1  16
TORSDOF 8
ENDMDL
