MODEL 1
REMARK VINA RESULT:      -7.4      0.000      0.000
REMARK  Name = 11332763
REMARK  3 active torsions:
REMARK  status: ('A' for Active; 'I' for Inactive)
REMARK    1  A    between atoms: C_2  and  C_7
REMARK    2  A    between atoms: C_3  and  C_12
REMARK    3  A    between atoms: C_12  and  N_13
REMARK                            x       y       z     vdW  Elec       q    Type
REMARK                         _______ _______ _______ _____ _____    ______ ____
ROOT
ATOM      1  O   UNL     1      34.485 -19.240 -22.738  0.00  0.00    -0.460 OA
ATOM      2  C   UNL     1      34.742 -19.040 -21.421  0.00  0.00    +0.146 C 
ATOM      3  C   UNL     1      34.824 -18.089 -23.376  0.00  0.00    +0.101 C 
ATOM      4  C   UNL     1      35.238 -17.780 -21.205  0.00  0.00    +0.040 C 
ATOM      5  C   UNL     1      35.291 -17.159 -22.477  0.00  0.00    +0.034 C 
ENDROOT
BRANCH   2   7
ATOM      6  N   UNL     1      32.795 -21.579 -19.514  0.00  0.00    -0.242 NA
ATOM      7  C   UNL     1      34.447 -20.159 -20.562  0.00  0.00    +0.054 C 
ATOM      8  C   UNL     1      35.467 -20.889 -19.962  0.00  0.00    +0.006 C 
ATOM      9  C   UNL     1      33.140 -20.540 -20.308  0.00  0.00    +0.102 C 
ATOM     10  C   UNL     1      35.152 -21.964 -19.139  0.00  0.00    +0.021 C 
ATOM     11  C   UNL     1      33.813 -22.266 -18.948  0.00  0.00    +0.099 C 
ENDBRANCH   2   7
BRANCH   3  12
ATOM     12  C   UNL     1      34.630 -18.069 -24.833  0.00  0.00    -0.020 C 
BRANCH  12  13
ATOM     13  N   UNL     1      34.658 -16.704 -25.383  0.00  0.00    +0.385 N 
ATOM     14  H   UNL     1      33.854 -16.181 -25.036  0.00  0.00    -0.089 HD
ATOM     15  H   UNL     1      34.623 -16.746 -26.401  0.00  0.00    -0.089 HD
ATOM     16  H   UNL     1      35.517 -16.237 -25.092  0.00  0.00    -0.089 HD
ENDBRANCH  12  13
ENDBRANCH   3  12
TORSDOF 3
ENDMDL
MODEL 2
REMARK VINA RESULT:      -7.3      1.666      2.036
REMARK  Name = 11332763
REMARK  3 active torsions:
REMARK  status: ('A' for Active; 'I' for Inactive)
REMARK    1  A    between atoms: C_2  and  C_7
REMARK    2  A    between atoms: C_3  and  C_12
REMARK    3  A    between atoms: C_12  and  N_13
REMARK                            x       y       z     vdW  Elec       q    Type
REMARK                         _______ _______ _______ _____ _____    ______ ____
ROOT
ATOM      1  O   UNL     1      34.406 -17.638 -21.327  0.00  0.00    -0.460 OA
ATOM      2  C   UNL     1      34.610 -18.903 -21.774  0.00  0.00    +0.146 C 
ATOM      3  C   UNL     1      34.723 -16.810 -22.357  0.00  0.00    +0.101 C 
ATOM      4  C   UNL     1      35.053 -18.897 -23.072  0.00  0.00    +0.040 C 
ATOM      5  C   UNL     1      35.128 -17.536 -23.453  0.00  0.00    +0.034 C 
ENDROOT
BRANCH   2   7
ATOM      6  N   UNL     1      32.694 -21.173 -19.528  0.00  0.00    -0.242 NA
ATOM      7  C   UNL     1      34.327 -19.944 -20.820  0.00  0.00    +0.054 C 
ATOM      8  C   UNL     1      35.348 -20.713 -20.274  0.00  0.00    +0.006 C 
ATOM      9  C   UNL     1      33.028 -20.211 -20.418  0.00  0.00    +0.102 C 
ATOM     10  C   UNL     1      35.045 -21.712 -19.356  0.00  0.00    +0.021 C 
ATOM     11  C   UNL     1      33.714 -21.901 -19.018  0.00  0.00    +0.099 C 
ENDBRANCH   2   7
BRANCH   3  12
ATOM     12  C   UNL     1      34.577 -15.370 -22.103  0.00  0.00    -0.020 C 
BRANCH  12  13
ATOM     13  N   UNL     1      34.556 -15.054 -20.665  0.00  0.00    +0.385 N 
ATOM     14  H   UNL     1      35.379 -14.500 -20.427  0.00  0.00    -0.089 HD
ATOM     15  H   UNL     1      34.562 -15.920 -20.126  0.00  0.00    -0.089 HD
ATOM     16  H   UNL     1      33.714 -14.522 -20.445  0.00  0.00    -0.089 HD
ENDBRANCH  12  13
ENDBRANCH   3  12
TORSDOF 3
ENDMDL
MODEL 3
REMARK VINA RESULT:      -7.2      0.853      1.351
REMARK  Name = 11332763
REMARK  3 active torsions:
REMARK  status: ('A' for Active; 'I' for Inactive)
REMARK    1  A    between atoms: C_2  and  C_7
REMARK    2  A    between atoms: C_3  and  C_12
REMARK    3  A    between atoms: C_12  and  N_13
REMARK                            x       y       z     vdW  Elec       q    Type
REMARK                         _______ _______ _______ _____ _____    ______ ____
ROOT
ATOM      1  O   UNL     1      34.564 -19.334 -22.688  0.00  0.00    -0.460 OA
ATOM      2  C   UNL     1      34.873 -19.121 -21.385  0.00  0.00    +0.146 C 
ATOM      3  C   UNL     1      34.849 -18.180 -23.346  0.00  0.00    +0.101 C 
ATOM      4  C   UNL     1      35.352 -17.849 -21.197  0.00  0.00    +0.040 C 
ATOM      5  C   UNL     1      35.336 -17.235 -22.472  0.00  0.00    +0.034 C 
ENDROOT
BRANCH   2   7
ATOM      6  N   UNL     1      35.542 -22.079 -19.222  0.00  0.00    -0.242 NA
ATOM      7  C   UNL     1      34.640 -20.241 -20.508  0.00  0.00    +0.054 C 
ATOM      8  C   UNL     1      33.355 -20.575 -20.099  0.00  0.00    +0.006 C 
ATOM      9  C   UNL     1      35.691 -21.017 -20.046  0.00  0.00    +0.102 C 
ATOM     10  C   UNL     1      33.161 -21.660 -19.252  0.00  0.00    +0.021 C 
ATOM     11  C   UNL     1      34.276 -22.374 -18.845  0.00  0.00    +0.099 C 
ENDBRANCH   2   7
BRANCH   3  12
ATOM     12  C   UNL     1      34.591 -18.173 -24.792  0.00  0.00    -0.020 C 
BRANCH  12  13
ATOM     13  N   UNL     1      34.748 -16.833 -25.382  0.00  0.00    +0.385 N 
ATOM     14  H   UNL     1      35.301 -16.248 -24.756  0.00  0.00    -0.089 HD
ATOM     15  H   UNL     1      33.829 -16.411 -25.519  0.00  0.00    -0.089 HD
ATOM     16  H   UNL     1      35.223 -16.910 -26.282  0.00  0.00    -0.089 HD
ENDBRANCH  12  13
ENDBRANCH   3  12
TORSDOF 3
ENDMDL
MODEL 4
REMARK VINA RESULT:      -7.2      1.726      5.361
REMARK  Name = 11332763
REMARK  3 active torsions:
REMARK  status: ('A' for Active; 'I' for Inactive)
REMARK    1  A    between atoms: C_2  and  C_7
REMARK    2  A    between atoms: C_3  and  C_12
REMARK    3  A    between atoms: C_12  and  N_13
REMARK                            x       y       z     vdW  Elec       q    Type
REMARK                         _______ _______ _______ _____ _____    ______ ____
ROOT
ATOM      1  O   UNL     1      35.210 -20.167 -20.630  0.00  0.00    -0.460 OA
ATOM      2  C   UNL     1      34.146 -19.534 -21.186  0.00  0.00    +0.146 C 
ATOM      3  C   UNL     1      34.704 -21.077 -19.756  0.00  0.00    +0.101 C 
ATOM      4  C   UNL     1      32.968 -20.024 -20.681  0.00  0.00    +0.040 C 
ATOM      5  C   UNL     1      33.329 -21.027 -19.751  0.00  0.00    +0.034 C 
ENDROOT
BRANCH   2   7
ATOM      6  N   UNL     1      34.967 -16.199 -22.626  0.00  0.00    -0.242 NA
ATOM      7  C   UNL     1      34.473 -18.518 -22.153  0.00  0.00    +0.054 C 
ATOM      8  C   UNL     1      34.613 -18.831 -23.500  0.00  0.00    +0.006 C 
ATOM      9  C   UNL     1      34.657 -17.200 -21.770  0.00  0.00    +0.102 C 
ATOM     10  C   UNL     1      34.931 -17.830 -24.411  0.00  0.00    +0.021 C 
ATOM     11  C   UNL     1      35.095 -16.541 -23.929  0.00  0.00    +0.099 C 
ENDBRANCH   2   7
BRANCH   3  12
ATOM     12  C   UNL     1      35.683 -21.893 -19.025  0.00  0.00    -0.020 C 
BRANCH  12  13
ATOM     13  N   UNL     1      36.677 -21.071 -18.314  0.00  0.00    +0.385 N 
ATOM     14  H   UNL     1      36.999 -20.322 -18.926  0.00  0.00    -0.089 HD
ATOM     15  H   UNL     1      37.469 -21.653 -18.043  0.00  0.00    -0.089 HD
ATOM     16  H   UNL     1      36.251 -20.668 -17.479  0.00  0.00    -0.089 HD
ENDBRANCH  12  13
ENDBRANCH   3  12
TORSDOF 3
ENDMDL
MODEL 5
REMARK VINA RESULT:      -7.1      1.876      2.452
REMARK  Name = 11332763
REMARK  3 active torsions:
REMARK  status: ('A' for Active; 'I' for Inactive)
REMARK    1  A    between atoms: C_2  and  C_7
REMARK    2  A    between atoms: C_3  and  C_12
REMARK    3  A    between atoms: C_12  and  N_13
REMARK                            x       y       z     vdW  Elec       q    Type
REMARK                         _______ _______ _______ _____ _____    ______ ____
ROOT
ATOM      1  O   UNL     1      34.575 -17.768 -21.235  0.00  0.00    -0.460 OA
ATOM      2  C   UNL     1      34.732 -19.020 -21.734  0.00  0.00    +0.146 C 
ATOM      3  C   UNL     1      34.713 -16.915 -22.283  0.00  0.00    +0.101 C 
ATOM      4  C   UNL     1      34.970 -18.981 -23.084  0.00  0.00    +0.040 C 
ATOM      5  C   UNL     1      34.958 -17.612 -23.443  0.00  0.00    +0.034 C 
ENDROOT
BRANCH   2   7
ATOM      6  N   UNL     1      35.708 -21.737 -19.381  0.00  0.00    -0.242 NA
ATOM      7  C   UNL     1      34.619 -20.083 -20.769  0.00  0.00    +0.054 C 
ATOM      8  C   UNL     1      33.378 -20.489 -20.292  0.00  0.00    +0.006 C 
ATOM      9  C   UNL     1      35.743 -20.734 -20.287  0.00  0.00    +0.102 C 
ATOM     10  C   UNL     1      33.300 -21.518 -19.360  0.00  0.00    +0.021 C 
ATOM     11  C   UNL     1      34.483 -22.105 -18.940  0.00  0.00    +0.099 C 
ENDBRANCH   2   7
BRANCH   3  12
ATOM     12  C   UNL     1      34.581 -15.483 -21.981  0.00  0.00    -0.020 C 
BRANCH  12  13
ATOM     13  N   UNL     1      34.503 -15.222 -20.534  0.00  0.00    +0.385 N 
ATOM     14  H   UNL     1      35.428 -14.974 -20.183  0.00  0.00    -0.089 HD
ATOM     15  H   UNL     1      34.170 -16.058 -20.053  0.00  0.00    -0.089 HD
ATOM     16  H   UNL     1      33.857 -14.451 -20.360  0.00  0.00    -0.089 HD
ENDBRANCH  12  13
ENDBRANCH   3  12
TORSDOF 3
ENDMDL
MODEL 6
REMARK VINA RESULT:      -7.1      1.516      5.260
REMARK  Name = 11332763
REMARK  3 active torsions:
REMARK  status: ('A' for Active; 'I' for Inactive)
REMARK    1  A    between atoms: C_2  and  C_7
REMARK    2  A    between atoms: C_3  and  C_12
REMARK    3  A    between atoms: C_12  and  N_13
REMARK                            x       y       z     vdW  Elec       q    Type
REMARK                         _______ _______ _______ _____ _____    ______ ____
ROOT
ATOM      1  O   UNL     1      34.599 -20.559 -20.357  0.00  0.00    -0.460 OA
ATOM      2  C   UNL     1      35.648 -19.804 -20.767  0.00  0.00    +0.146 C 
ATOM      3  C   UNL     1      35.100 -21.473 -19.485  0.00  0.00    +0.101 C 
ATOM      4  C   UNL     1      36.812 -20.220 -20.173  0.00  0.00    +0.040 C 
ATOM      5  C   UNL     1      36.457 -21.307 -19.338  0.00  0.00    +0.034 C 
ENDROOT
BRANCH   2   7
ATOM      6  N   UNL     1      34.915 -16.417 -22.133  0.00  0.00    -0.242 NA
ATOM      7  C   UNL     1      35.323 -18.762 -21.708  0.00  0.00    +0.054 C 
ATOM      8  C   UNL     1      35.109 -19.051 -23.051  0.00  0.00    +0.006 C 
ATOM      9  C   UNL     1      35.215 -17.442 -21.303  0.00  0.00    +0.102 C 
ATOM     10  C   UNL     1      34.798 -18.024 -23.935  0.00  0.00    +0.021 C 
ATOM     11  C   UNL     1      34.713 -16.737 -23.432  0.00  0.00    +0.099 C 
ENDBRANCH   2   7
BRANCH   3  12
ATOM     12  C   UNL     1      34.134 -22.414 -18.900  0.00  0.00    -0.020 C 
BRANCH  12  13
ATOM     13  N   UNL     1      32.743 -21.951 -19.045  0.00  0.00    +0.385 N 
ATOM     14  H   UNL     1      32.650 -21.422 -19.912  0.00  0.00    -0.089 HD
ATOM     15  H   UNL     1      32.499 -21.355 -18.255  0.00  0.00    -0.089 HD
ATOM     16  H   UNL     1      32.117 -22.756 -19.070  0.00  0.00    -0.089 HD
ENDBRANCH  12  13
ENDBRANCH   3  12
TORSDOF 3
ENDMDL
MODEL 7
REMARK VINA RESULT:      -7.0      1.629      5.354
REMARK  Name = 11332763
REMARK  3 active torsions:
REMARK  status: ('A' for Active; 'I' for Inactive)
REMARK    1  A    between atoms: C_2  and  C_7
REMARK    2  A    between atoms: C_3  and  C_12
REMARK    3  A    between atoms: C_12  and  N_13
REMARK                            x       y       z     vdW  Elec       q    Type
REMARK                         _______ _______ _______ _____ _____    ______ ____
ROOT
ATOM      1  O   UNL     1      34.389 -19.251 -20.709  0.00  0.00    -0.460 OA
ATOM      2  C   UNL     1      35.454 -18.495 -21.077  0.00  0.00    +0.146 C 
ATOM      3  C   UNL     1      34.892 -20.431 -20.259  0.00  0.00    +0.101 C 
ATOM      4  C   UNL     1      36.629 -19.172 -20.871  0.00  0.00    +0.040 C 
ATOM      5  C   UNL     1      36.265 -20.432 -20.339  0.00  0.00    +0.034 C 
ENDROOT
BRANCH   2   7
ATOM      6  N   UNL     1      35.029 -15.672 -23.469  0.00  0.00    -0.242 NA
ATOM      7  C   UNL     1      35.130 -17.188 -21.588  0.00  0.00    +0.054 C 
ATOM      8  C   UNL     1      34.624 -16.198 -20.754  0.00  0.00    +0.006 C 
ATOM      9  C   UNL     1      35.313 -16.878 -22.926  0.00  0.00    +0.102 C 
ATOM     10  C   UNL     1      34.319 -14.945 -21.275  0.00  0.00    +0.021 C 
ATOM     11  C   UNL     1      34.539 -14.735 -22.627  0.00  0.00    +0.099 C 
ENDBRANCH   2   7
BRANCH   3  12
ATOM     12  C   UNL     1      33.911 -21.424 -19.799  0.00  0.00    -0.020 C 
BRANCH  12  13
ATOM     13  N   UNL     1      32.595 -20.824 -19.523  0.00  0.00    +0.385 N 
ATOM     14  H   UNL     1      32.709 -20.027 -18.897  0.00  0.00    -0.089 HD
ATOM     15  H   UNL     1      31.990 -21.518 -19.083  0.00  0.00    -0.089 HD
ATOM     16  H   UNL     1      32.172 -20.511 -20.397  0.00  0.00    -0.089 HD
ENDBRANCH  12  13
ENDBRANCH   3  12
TORSDOF 3
ENDMDL
MODEL 8
REMARK VINA RESULT:      -7.0      1.210      5.312
REMARK  Name = 11332763
REMARK  3 active torsions:
REMARK  status: ('A' for Active; 'I' for Inactive)
REMARK    1  A    between atoms: C_2  and  C_7
REMARK    2  A    between atoms: C_3  and  C_12
REMARK    3  A    between atoms: C_12  and  N_13
REMARK                            x       y       z     vdW  Elec       q    Type
REMARK                         _______ _______ _______ _____ _____    ______ ____
ROOT
ATOM      1  O   UNL     1      34.431 -19.741 -21.408  0.00  0.00    -0.460 OA
ATOM      2  C   UNL     1      35.443 -18.966 -21.872  0.00  0.00    +0.146 C 
ATOM      3  C   UNL     1      34.936 -20.451 -20.365  0.00  0.00    +0.101 C 
ATOM      4  C   UNL     1      36.587 -19.168 -21.143  0.00  0.00    +0.040 C 
ATOM      5  C   UNL     1      36.259 -20.135 -20.162  0.00  0.00    +0.034 C 
ENDROOT
BRANCH   2   7
ATOM      6  N   UNL     1      34.441 -17.941 -25.309  0.00  0.00    -0.242 NA
ATOM      7  C   UNL     1      35.108 -18.125 -22.993  0.00  0.00    +0.054 C 
ATOM      8  C   UNL     1      35.117 -16.740 -22.877  0.00  0.00    +0.006 C 
ATOM      9  C   UNL     1      34.767 -18.672 -24.219  0.00  0.00    +0.102 C 
ATOM     10  C   UNL     1      34.788 -15.954 -23.976  0.00  0.00    +0.021 C 
ATOM     11  C   UNL     1      34.461 -16.597 -25.159  0.00  0.00    +0.099 C 
ENDBRANCH   2   7
BRANCH   3  12
ATOM     12  C   UNL     1      34.008 -21.373 -19.695  0.00  0.00    -0.020 C 
BRANCH  12  13
ATOM     13  N   UNL     1      32.656 -20.806 -19.559  0.00  0.00    +0.385 N 
ATOM     14  H   UNL     1      32.705 -19.789 -19.627  0.00  0.00    -0.089 HD
ATOM     15  H   UNL     1      32.266 -21.067 -18.653  0.00  0.00    -0.089 HD
ATOM     16  H   UNL     1      32.058 -21.167 -20.303  0.00  0.00    -0.089 HD
ENDBRANCH  12  13
ENDBRANCH   3  12
TORSDOF 3
ENDMDL
MODEL 9
REMARK VINA RESULT:      -6.8      3.761      4.968
REMARK  Name = 11332763
REMARK  3 active torsions:
REMARK  status: ('A' for Active; 'I' for Inactive)
REMARK    1  A    between atoms: C_2  and  C_7
REMARK    2  A    between atoms: C_3  and  C_12
REMARK    3  A    between atoms: C_12  and  N_13
REMARK                            x       y       z     vdW  Elec       q    Type
REMARK                         _______ _______ _______ _____ _____    ______ ____
ROOT
ATOM      1  O   UNL     1      34.277 -14.295 -23.597  0.00  0.00    -0.460 OA
ATOM      2  C   UNL     1      33.791 -15.065 -22.591  0.00  0.00    +0.146 C 
ATOM      3  C   UNL     1      33.467 -13.206 -23.674  0.00  0.00    +0.101 C 
ATOM      4  C   UNL     1      32.683 -14.488 -22.025  0.00  0.00    +0.040 C 
ATOM      5  C   UNL     1      32.471 -13.278 -22.729  0.00  0.00    +0.034 C 
ENDROOT
BRANCH   2   7
ATOM      6  N   UNL     1      35.514 -17.808 -20.753  0.00  0.00    -0.242 NA
ATOM      7  C   UNL     1      34.520 -16.283 -22.344  0.00  0.00    +0.054 C 
ATOM      8  C   UNL     1      34.929 -17.098 -23.393  0.00  0.00    +0.006 C 
ATOM      9  C   UNL     1      34.835 -16.678 -21.054  0.00  0.00    +0.102 C 
ATOM     10  C   UNL     1      35.630 -18.268 -23.124  0.00  0.00    +0.021 C 
ATOM     11  C   UNL     1      35.896 -18.576 -21.799  0.00  0.00    +0.099 C 
ENDBRANCH   2   7
BRANCH   3  12
ATOM     12  C   UNL     1      33.803 -12.216 -24.707  0.00  0.00    -0.020 C 
BRANCH  12  13
ATOM     13  N   UNL     1      34.483 -11.035 -24.150  0.00  0.00    +0.385 N 
ATOM     14  H   UNL     1      34.785 -10.426 -24.911  0.00  0.00    -0.089 HD
ATOM     15  H   UNL     1      35.295 -11.332 -23.609  0.00  0.00    -0.089 HD
ATOM     16  H   UNL     1      33.839 -10.525 -23.544  0.00  0.00    -0.089 HD
ENDBRANCH  12  13
ENDBRANCH   3  12
TORSDOF 3
ENDMDL
