MODEL 1
REMARK VINA RESULT:      -7.8      0.000      0.000
REMARK  Name = 8708
REMARK  6 active torsions:
REMARK  status: ('A' for Active; 'I' for Inactive)
REMARK    1  A    between atoms: C_4  and  O_13
REMARK    2  A    between atoms: O_13  and  C_14
REMARK    3  A    between atoms: C_14  and  C_15
REMARK    4  A    between atoms: C_15  and  N_16
REMARK    5  A    between atoms: N_16  and  C_18
REMARK    6  A    between atoms: N_16  and  C_20
REMARK                            x       y       z     vdW  Elec       q    Type
REMARK                         _______ _______ _______ _____ _____    ______ ____
ROOT
ATOM      1  S   UNL     1      35.335 -22.027 -18.554  0.00  0.00    -0.056 S 
ATOM      2  N   UNL     1      33.400 -23.160 -17.130  0.00  0.00    -0.275 N 
ATOM      3  N   UNL     1      32.798 -21.696 -18.883  0.00  0.00    -0.384 NA
ATOM      4  C   UNL     1      34.962 -19.440 -21.670  0.00  0.00    +0.136 C 
ATOM      5  C   UNL     1      34.830 -20.969 -19.818  0.00  0.00    +0.132 C 
ATOM      6  C   UNL     1      33.433 -20.918 -19.840  0.00  0.00    +0.126 C 
ATOM      7  C   UNL     1      35.613 -20.237 -20.725  0.00  0.00    +0.029 C 
ATOM      8  C   UNL     1      33.574 -19.373 -21.712  0.00  0.00    +0.039 C 
ATOM      9  C   UNL     1      32.800 -20.105 -20.805  0.00  0.00    +0.032 C 
ATOM     10  C   UNL     1      33.696 -22.318 -18.156  0.00  0.00    +0.211 C 
ATOM     11  C   UNL     1      32.017 -23.459 -16.730  0.00  0.00    +0.115 C 
ATOM     12  C   UNL     1      34.440 -23.843 -16.346  0.00  0.00    +0.115 C 
ENDROOT
BRANCH   4  13
ATOM     13  O   UNL     1      35.700 -18.720 -22.561  0.00  0.00    -0.478 OA
BRANCH  13  14
ATOM     14  C   UNL     1      34.997 -18.124 -23.650  0.00  0.00    +0.183 C 
BRANCH  14  15
ATOM     15  C   UNL     1      35.276 -16.630 -23.651  0.00  0.00    -0.029 C 
BRANCH  15  16
ATOM     16  N   UNL     1      34.151 -15.896 -23.092  0.00  0.00    +0.389 N 
ATOM     17  H   UNL     1      33.468 -16.575 -22.755  0.00  0.00    -0.080 HD
BRANCH  16  18
ATOM     18  C   UNL     1      33.515 -15.062 -24.115  0.00  0.00    -0.077 C 
ATOM     19  C   UNL     1      33.771 -13.589 -23.869  0.00  0.00    -0.025 C 
ENDBRANCH  16  18
BRANCH  16  20
ATOM     20  C   UNL     1      34.582 -15.069 -21.962  0.00  0.00    -0.077 C 
ATOM     21  C   UNL     1      34.482 -15.825 -20.652  0.00  0.00    -0.025 C 
ENDBRANCH  16  20
ENDBRANCH  15  16
ENDBRANCH  14  15
ENDBRANCH  13  14
ENDBRANCH   4  13
TORSDOF 6
ENDMDL
MODEL 2
REMARK VINA RESULT:      -7.8      3.029      7.748
REMARK  Name = 8708
REMARK  6 active torsions:
REMARK  status: ('A' for Active; 'I' for Inactive)
REMARK    1  A    between atoms: C_4  and  O_13
REMARK    2  A    between atoms: O_13  and  C_14
REMARK    3  A    between atoms: C_14  and  C_15
REMARK    4  A    between atoms: C_15  and  N_16
REMARK    5  A    between atoms: N_16  and  C_18
REMARK    6  A    between atoms: N_16  and  C_20
REMARK                            x       y       z     vdW  Elec       q    Type
REMARK                         _______ _______ _______ _____ _____    ______ ____
ROOT
ATOM      1  S   UNL     1      33.084 -14.094 -20.767  0.00  0.00    -0.056 S 
ATOM      2  N   UNL     1      31.627 -11.943 -21.316  0.00  0.00    -0.275 N 
ATOM      3  N   UNL     1      32.410 -13.261 -23.113  0.00  0.00    -0.384 NA
ATOM      4  C   UNL     1      34.712 -16.749 -23.383  0.00  0.00    +0.136 C 
ATOM      5  C   UNL     1      33.625 -15.013 -22.122  0.00  0.00    +0.132 C 
ATOM      6  C   UNL     1      33.164 -14.410 -23.296  0.00  0.00    +0.126 C 
ATOM      7  C   UNL     1      34.401 -16.183 -22.144  0.00  0.00    +0.029 C 
ATOM      8  C   UNL     1      34.265 -16.168 -24.564  0.00  0.00    +0.039 C 
ATOM      9  C   UNL     1      33.492 -15.002 -24.535  0.00  0.00    +0.032 C 
ATOM     10  C   UNL     1      32.305 -13.004 -21.830  0.00  0.00    +0.211 C 
ATOM     11  C   UNL     1      30.933 -10.964 -22.166  0.00  0.00    +0.115 C 
ATOM     12  C   UNL     1      31.529 -11.696 -19.869  0.00  0.00    +0.115 C 
ENDROOT
BRANCH   4  13
ATOM     13  O   UNL     1      35.464 -17.884 -23.431  0.00  0.00    -0.478 OA
BRANCH  13  14
ATOM     14  C   UNL     1      35.940 -18.398 -22.189  0.00  0.00    +0.183 C 
BRANCH  14  15
ATOM     15  C   UNL     1      35.144 -19.645 -21.840  0.00  0.00    -0.029 C 
BRANCH  15  16
ATOM     16  N   UNL     1      35.220 -19.921 -20.413  0.00  0.00    +0.389 N 
ATOM     17  H   UNL     1      35.267 -19.028 -19.922  0.00  0.00    -0.080 HD
BRANCH  16  18
ATOM     18  C   UNL     1      36.426 -20.692 -20.097  0.00  0.00    -0.077 C 
ATOM     19  C   UNL     1      36.242 -21.520 -18.842  0.00  0.00    -0.025 C 
ENDBRANCH  16  18
BRANCH  16  20
ATOM     20  C   UNL     1      34.027 -20.640 -19.960  0.00  0.00    -0.077 C 
ATOM     21  C   UNL     1      32.770 -20.087 -20.599  0.00  0.00    -0.025 C 
ENDBRANCH  16  20
ENDBRANCH  15  16
ENDBRANCH  14  15
ENDBRANCH  13  14
ENDBRANCH   4  13
TORSDOF 6
ENDMDL
MODEL 3
REMARK VINA RESULT:      -7.8      2.289      7.541
REMARK  Name = 8708
REMARK  6 active torsions:
REMARK  status: ('A' for Active; 'I' for Inactive)
REMARK    1  A    between atoms: C_4  and  O_13
REMARK    2  A    between atoms: O_13  and  C_14
REMARK    3  A    between atoms: C_14  and  C_15
REMARK    4  A    between atoms: C_15  and  N_16
REMARK    5  A    between atoms: N_16  and  C_18
REMARK    6  A    between atoms: N_16  and  C_20
REMARK                            x       y       z     vdW  Elec       q    Type
REMARK                         _______ _______ _______ _____ _____    ______ ____
ROOT
ATOM      1  S   UNL     1      34.153 -14.992 -22.093  0.00  0.00    -0.056 S 
ATOM      2  N   UNL     1      33.298 -14.103 -24.445  0.00  0.00    -0.275 N 
ATOM      3  N   UNL     1      34.230 -16.271 -24.331  0.00  0.00    -0.384 NA
ATOM      4  C   UNL     1      35.836 -18.595 -21.240  0.00  0.00    +0.136 C 
ATOM      5  C   UNL     1      34.822 -16.581 -22.077  0.00  0.00    +0.132 C 
ATOM      6  C   UNL     1      34.777 -17.108 -23.371  0.00  0.00    +0.126 C 
ATOM      7  C   UNL     1      35.348 -17.308 -20.997  0.00  0.00    +0.029 C 
ATOM      8  C   UNL     1      35.803 -19.141 -22.518  0.00  0.00    +0.039 C 
ATOM      9  C   UNL     1      35.278 -18.411 -23.589  0.00  0.00    +0.032 C 
ATOM     10  C   UNL     1      33.870 -15.139 -23.774  0.00  0.00    +0.211 C 
ATOM     11  C   UNL     1      33.025 -14.155 -25.889  0.00  0.00    +0.115 C 
ATOM     12  C   UNL     1      32.904 -12.853 -23.778  0.00  0.00    +0.115 C 
ENDROOT
BRANCH   4  13
ATOM     13  O   UNL     1      36.352 -19.321 -20.209  0.00  0.00    -0.478 OA
BRANCH  13  14
ATOM     14  C   UNL     1      36.351 -20.740 -20.354  0.00  0.00    +0.183 C 
BRANCH  14  15
ATOM     15  C   UNL     1      35.528 -21.346 -19.229  0.00  0.00    -0.029 C 
BRANCH  15  16
ATOM     16  N   UNL     1      34.260 -21.852 -19.734  0.00  0.00    +0.389 N 
ATOM     17  H   UNL     1      34.355 -21.991 -20.740  0.00  0.00    -0.080 HD
BRANCH  16  18
ATOM     18  C   UNL     1      33.184 -20.885 -19.496  0.00  0.00    -0.077 C 
ATOM     19  C   UNL     1      32.770 -20.191 -20.777  0.00  0.00    -0.025 C 
ENDBRANCH  16  18
BRANCH  16  20
ATOM     20  C   UNL     1      33.931 -23.137 -19.113  0.00  0.00    -0.077 C 
ATOM     21  C   UNL     1      33.186 -22.948 -17.807  0.00  0.00    -0.025 C 
ENDBRANCH  16  20
ENDBRANCH  15  16
ENDBRANCH  14  15
ENDBRANCH  13  14
ENDBRANCH   4  13
TORSDOF 6
ENDMDL
MODEL 4
REMARK VINA RESULT:      -7.8      2.015      3.234
REMARK  Name = 8708
REMARK  6 active torsions:
REMARK  status: ('A' for Active; 'I' for Inactive)
REMARK    1  A    between atoms: C_4  and  O_13
REMARK    2  A    between atoms: O_13  and  C_14
REMARK    3  A    between atoms: C_14  and  C_15
REMARK    4  A    between atoms: C_15  and  N_16
REMARK    5  A    between atoms: N_16  and  C_18
REMARK    6  A    between atoms: N_16  and  C_20
REMARK                            x       y       z     vdW  Elec       q    Type
REMARK                         _______ _______ _______ _____ _____    ______ ____
ROOT
ATOM      1  S   UNL     1      37.151 -22.283 -16.355  0.00  0.00    -0.056 S 
ATOM      2  N   UNL     1      36.036 -23.701 -14.405  0.00  0.00    -0.275 N 
ATOM      3  N   UNL     1      34.748 -23.219 -16.325  0.00  0.00    -0.384 NA
ATOM      4  C   UNL     1      35.482 -21.134 -19.881  0.00  0.00    +0.136 C 
ATOM      5  C   UNL     1      36.158 -21.966 -17.728  0.00  0.00    +0.132 C 
ATOM      6  C   UNL     1      34.903 -22.549 -17.529  0.00  0.00    +0.126 C 
ATOM      7  C   UNL     1      36.468 -21.254 -18.898  0.00  0.00    +0.029 C 
ATOM      8  C   UNL     1      34.227 -21.704 -19.706  0.00  0.00    +0.039 C 
ATOM      9  C   UNL     1      33.924 -22.412 -18.538  0.00  0.00    +0.032 C 
ATOM     10  C   UNL     1      35.860 -23.144 -15.633  0.00  0.00    +0.211 C 
ATOM     11  C   UNL     1      34.974 -24.454 -13.721  0.00  0.00    +0.115 C 
ATOM     12  C   UNL     1      37.305 -23.598 -13.667  0.00  0.00    +0.115 C 
ENDROOT
BRANCH   4  13
ATOM     13  O   UNL     1      35.758 -20.447 -21.026  0.00  0.00    -0.478 OA
BRANCH  13  14
ATOM     14  C   UNL     1      34.871 -19.385 -21.372  0.00  0.00    +0.183 C 
BRANCH  14  15
ATOM     15  C   UNL     1      35.638 -18.073 -21.321  0.00  0.00    -0.029 C 
BRANCH  15  16
ATOM     16  N   UNL     1      35.618 -17.415 -22.619  0.00  0.00    +0.389 N 
ATOM     17  H   UNL     1      36.581 -17.193 -22.874  0.00  0.00    -0.080 HD
BRANCH  16  18
ATOM     18  C   UNL     1      34.852 -16.168 -22.557  0.00  0.00    -0.077 C 
ATOM     19  C   UNL     1      34.609 -15.736 -21.125  0.00  0.00    -0.025 C 
ENDBRANCH  16  18
BRANCH  16  20
ATOM     20  C   UNL     1      35.059 -18.302 -23.641  0.00  0.00    -0.077 C 
ATOM     21  C   UNL     1      34.708 -17.542 -24.904  0.00  0.00    -0.025 C 
ENDBRANCH  16  20
ENDBRANCH  15  16
ENDBRANCH  14  15
ENDBRANCH  13  14
ENDBRANCH   4  13
TORSDOF 6
ENDMDL
MODEL 5
REMARK VINA RESULT:      -7.5      4.394      7.059
REMARK  Name = 8708
REMARK  6 active torsions:
REMARK  status: ('A' for Active; 'I' for Inactive)
REMARK    1  A    between atoms: C_4  and  O_13
REMARK    2  A    between atoms: O_13  and  C_14
REMARK    3  A    between atoms: C_14  and  C_15
REMARK    4  A    between atoms: C_15  and  N_16
REMARK    5  A    between atoms: N_16  and  C_18
REMARK    6  A    between atoms: N_16  and  C_20
REMARK                            x       y       z     vdW  Elec       q    Type
REMARK                         _______ _______ _______ _____ _____    ______ ____
ROOT
ATOM      1  S   UNL     1      34.162 -16.004 -23.722  0.00  0.00    -0.056 S 
ATOM      2  N   UNL     1      35.080 -18.086 -22.353  0.00  0.00    -0.275 N 
ATOM      3  N   UNL     1      33.971 -16.366 -21.175  0.00  0.00    -0.384 NA
ATOM      4  C   UNL     1      32.184 -12.748 -22.297  0.00  0.00    +0.136 C 
ATOM      5  C   UNL     1      33.363 -14.782 -22.804  0.00  0.00    +0.132 C 
ATOM      6  C   UNL     1      33.358 -15.154 -21.456  0.00  0.00    +0.126 C 
ATOM      7  C   UNL     1      32.780 -13.583 -23.245  0.00  0.00    +0.029 C 
ATOM      8  C   UNL     1      32.167 -13.095 -20.951  0.00  0.00    +0.039 C 
ATOM      9  C   UNL     1      32.749 -14.291 -20.518  0.00  0.00    +0.032 C 
ATOM     10  C   UNL     1      34.426 -16.896 -22.286  0.00  0.00    +0.211 C 
ATOM     11  C   UNL     1      35.344 -18.908 -21.163  0.00  0.00    +0.115 C 
ATOM     12  C   UNL     1      35.568 -18.647 -23.622  0.00  0.00    +0.115 C 
ENDROOT
BRANCH   4  13
ATOM     13  O   UNL     1      31.613 -11.578 -22.700  0.00  0.00    -0.478 OA
BRANCH  13  14
ATOM     14  C   UNL     1      32.276 -10.372 -22.325  0.00  0.00    +0.183 C 
BRANCH  14  15
ATOM     15  C   UNL     1      32.770  -9.676 -23.583  0.00  0.00    -0.029 C 
BRANCH  15  16
ATOM     16  N   UNL     1      34.168  -9.996 -23.833  0.00  0.00    +0.389 N 
ATOM     17  H   UNL     1      34.537 -10.463 -23.004  0.00  0.00    -0.080 HD
BRANCH  16  18
ATOM     18  C   UNL     1      34.945  -8.776 -24.066  0.00  0.00    -0.077 C 
ATOM     19  C   UNL     1      34.390  -7.606 -23.281  0.00  0.00    -0.025 C 
ENDBRANCH  16  18
BRANCH  16  20
ATOM     20  C   UNL     1      34.296 -10.903 -24.975  0.00  0.00    -0.077 C 
ATOM     21  C   UNL     1      35.393 -10.455 -25.920  0.00  0.00    -0.025 C 
ENDBRANCH  16  20
ENDBRANCH  15  16
ENDBRANCH  14  15
ENDBRANCH  13  14
ENDBRANCH   4  13
TORSDOF 6
ENDMDL
MODEL 6
REMARK VINA RESULT:      -7.5      2.252      3.582
REMARK  Name = 8708
REMARK  6 active torsions:
REMARK  status: ('A' for Active; 'I' for Inactive)
REMARK    1  A    between atoms: C_4  and  O_13
REMARK    2  A    between atoms: O_13  and  C_14
REMARK    3  A    between atoms: C_14  and  C_15
REMARK    4  A    between atoms: C_15  and  N_16
REMARK    5  A    between atoms: N_16  and  C_18
REMARK    6  A    between atoms: N_16  and  C_20
REMARK                            x       y       z     vdW  Elec       q    Type
REMARK                         _______ _______ _______ _____ _____    ______ ____
ROOT
ATOM      1  S   UNL     1      33.217 -23.442 -16.614  0.00  0.00    -0.056 S 
ATOM      2  N   UNL     1      33.835 -24.179 -14.139  0.00  0.00    -0.275 N 
ATOM      3  N   UNL     1      35.484 -23.094 -15.435  0.00  0.00    -0.384 NA
ATOM      4  C   UNL     1      35.586 -21.553 -19.328  0.00  0.00    +0.136 C 
ATOM      5  C   UNL     1      34.464 -22.655 -17.508  0.00  0.00    +0.132 C 
ATOM      6  C   UNL     1      35.607 -22.558 -16.709  0.00  0.00    +0.126 C 
ATOM      7  C   UNL     1      34.433 -22.158 -18.821  0.00  0.00    +0.029 C 
ATOM      8  C   UNL     1      36.735 -21.445 -18.553  0.00  0.00    +0.039 C 
ATOM      9  C   UNL     1      36.759 -21.942 -17.245  0.00  0.00    +0.032 C 
ATOM     10  C   UNL     1      34.276 -23.582 -15.278  0.00  0.00    +0.211 C 
ATOM     11  C   UNL     1      34.687 -24.336 -12.951  0.00  0.00    +0.115 C 
ATOM     12  C   UNL     1      32.468 -24.706 -14.004  0.00  0.00    +0.115 C 
ENDROOT
BRANCH   4  13
ATOM     13  O   UNL     1      35.581 -21.063 -20.600  0.00  0.00    -0.478 OA
BRANCH  13  14
ATOM     14  C   UNL     1      34.673 -20.000 -20.879  0.00  0.00    +0.183 C 
BRANCH  14  15
ATOM     15  C   UNL     1      35.472 -18.770 -21.281  0.00  0.00    -0.029 C 
BRANCH  15  16
ATOM     16  N   UNL     1      34.793 -18.040 -22.342  0.00  0.00    +0.389 N 
ATOM     17  H   UNL     1      33.791 -18.201 -22.243  0.00  0.00    -0.080 HD
BRANCH  16  18
ATOM     18  C   UNL     1      35.216 -18.527 -23.658  0.00  0.00    -0.077 C 
ATOM     19  C   UNL     1      34.808 -17.571 -24.760  0.00  0.00    -0.025 C 
ENDBRANCH  16  18
BRANCH  16  20
ATOM     20  C   UNL     1      35.049 -16.603 -22.228  0.00  0.00    -0.077 C 
ATOM     21  C   UNL     1      34.615 -16.067 -20.879  0.00  0.00    -0.025 C 
ENDBRANCH  16  20
ENDBRANCH  15  16
ENDBRANCH  14  15
ENDBRANCH  13  14
ENDBRANCH   4  13
TORSDOF 6
ENDMDL
MODEL 7
REMARK VINA RESULT:      -7.4      5.498     10.235
REMARK  Name = 8708
REMARK  6 active torsions:
REMARK  status: ('A' for Active; 'I' for Inactive)
REMARK    1  A    between atoms: C_4  and  O_13
REMARK    2  A    between atoms: O_13  and  C_14
REMARK    3  A    between atoms: C_14  and  C_15
REMARK    4  A    between atoms: C_15  and  N_16
REMARK    5  A    between atoms: N_16  and  C_18
REMARK    6  A    between atoms: N_16  and  C_20
REMARK                            x       y       z     vdW  Elec       q    Type
REMARK                         _______ _______ _______ _____ _____    ______ ____
ROOT
ATOM      1  S   UNL     1      32.460  -9.430 -23.460  0.00  0.00    -0.056 S 
ATOM      2  N   UNL     1      32.041  -7.098 -22.261  0.00  0.00    -0.275 N 
ATOM      3  N   UNL     1      31.783  -9.076 -20.996  0.00  0.00    -0.384 NA
ATOM      4  C   UNL     1      32.182 -13.156 -21.851  0.00  0.00    +0.136 C 
ATOM      5  C   UNL     1      32.255 -10.836 -22.482  0.00  0.00    +0.132 C 
ATOM      6  C   UNL     1      31.892 -10.445 -21.190  0.00  0.00    +0.126 C 
ATOM      7  C   UNL     1      32.406 -12.187 -22.833  0.00  0.00    +0.029 C 
ATOM      8  C   UNL     1      31.820 -12.791 -20.559  0.00  0.00    +0.039 C 
ATOM      9  C   UNL     1      31.671 -11.444 -20.216  0.00  0.00    +0.032 C 
ATOM     10  C   UNL     1      32.058  -8.450 -22.116  0.00  0.00    +0.211 C 
ATOM     11  C   UNL     1      31.705  -6.191 -21.153  0.00  0.00    +0.115 C 
ATOM     12  C   UNL     1      32.364  -6.437 -23.535  0.00  0.00    +0.115 C 
ENDROOT
BRANCH   4  13
ATOM     13  O   UNL     1      32.322 -14.474 -22.167  0.00  0.00    -0.478 OA
BRANCH  13  14
ATOM     14  C   UNL     1      33.325 -14.807 -23.125  0.00  0.00    +0.183 C 
BRANCH  14  15
ATOM     15  C   UNL     1      34.491 -15.462 -22.402  0.00  0.00    -0.029 C 
BRANCH  15  16
ATOM     16  N   UNL     1      35.251 -16.306 -23.313  0.00  0.00    +0.389 N 
ATOM     17  H   UNL     1      36.155 -15.860 -23.475  0.00  0.00    -0.080 HD
BRANCH  16  18
ATOM     18  C   UNL     1      34.559 -16.438 -24.597  0.00  0.00    -0.077 C 
ATOM     19  C   UNL     1      34.477 -17.886 -25.036  0.00  0.00    -0.025 C 
ENDBRANCH  16  18
BRANCH  16  20
ATOM     20  C   UNL     1      35.482 -17.627 -22.724  0.00  0.00    -0.077 C 
ATOM     21  C   UNL     1      35.289 -17.606 -21.221  0.00  0.00    -0.025 C 
ENDBRANCH  16  20
ENDBRANCH  15  16
ENDBRANCH  14  15
ENDBRANCH  13  14
ENDBRANCH   4  13
TORSDOF 6
ENDMDL
MODEL 8
REMARK VINA RESULT:      -7.4      4.791      7.563
REMARK  Name = 8708
REMARK  6 active torsions:
REMARK  status: ('A' for Active; 'I' for Inactive)
REMARK    1  A    between atoms: C_4  and  O_13
REMARK    2  A    between atoms: O_13  and  C_14
REMARK    3  A    between atoms: C_14  and  C_15
REMARK    4  A    between atoms: C_15  and  N_16
REMARK    5  A    between atoms: N_16  and  C_18
REMARK    6  A    between atoms: N_16  and  C_20
REMARK                            x       y       z     vdW  Elec       q    Type
REMARK                         _______ _______ _______ _____ _____    ______ ____
ROOT
ATOM      1  S   UNL     1      34.242 -15.944 -23.699  0.00  0.00    -0.056 S 
ATOM      2  N   UNL     1      35.095 -18.037 -22.302  0.00  0.00    -0.275 N 
ATOM      3  N   UNL     1      33.959 -16.309 -21.161  0.00  0.00    -0.384 NA
ATOM      4  C   UNL     1      32.241 -12.676 -22.338  0.00  0.00    +0.136 C 
ATOM      5  C   UNL     1      33.420 -14.718 -22.807  0.00  0.00    +0.132 C 
ATOM      6  C   UNL     1      33.366 -15.092 -21.461  0.00  0.00    +0.126 C 
ATOM      7  C   UNL     1      32.864 -13.514 -23.266  0.00  0.00    +0.029 C 
ATOM      8  C   UNL     1      32.174 -13.025 -20.994  0.00  0.00    +0.039 C 
ATOM      9  C   UNL     1      32.731 -14.226 -20.543  0.00  0.00    +0.032 C 
ATOM     10  C   UNL     1      34.448 -16.841 -22.256  0.00  0.00    +0.211 C 
ATOM     11  C   UNL     1      35.311 -18.863 -21.105  0.00  0.00    +0.115 C 
ATOM     12  C   UNL     1      35.623 -18.599 -23.555  0.00  0.00    +0.115 C 
ENDROOT
BRANCH   4  13
ATOM     13  O   UNL     1      31.693 -11.501 -22.759  0.00  0.00    -0.478 OA
BRANCH  13  14
ATOM     14  C   UNL     1      31.631 -10.440 -21.807  0.00  0.00    +0.183 C 
BRANCH  14  15
ATOM     15  C   UNL     1      31.908  -9.127 -22.522  0.00  0.00    -0.029 C 
BRANCH  15  16
ATOM     16  N   UNL     1      33.022  -8.428 -21.900  0.00  0.00    +0.389 N 
ATOM     17  H   UNL     1      33.778  -9.099 -21.762  0.00  0.00    -0.080 HD
BRANCH  16  18
ATOM     18  C   UNL     1      32.633  -7.889 -20.594  0.00  0.00    -0.077 C 
ATOM     19  C   UNL     1      31.987  -6.525 -20.726  0.00  0.00    -0.025 C 
ENDBRANCH  16  18
BRANCH  16  20
ATOM     20  C   UNL     1      33.507  -7.351 -22.766  0.00  0.00    -0.077 C 
ATOM     21  C   UNL     1      34.765  -7.759 -23.507  0.00  0.00    -0.025 C 
ENDBRANCH  16  20
ENDBRANCH  15  16
ENDBRANCH  14  15
ENDBRANCH  13  14
ENDBRANCH   4  13
TORSDOF 6
ENDMDL
MODEL 9
REMARK VINA RESULT:      -7.4      1.892      3.128
REMARK  Name = 8708
REMARK  6 active torsions:
REMARK  status: ('A' for Active; 'I' for Inactive)
REMARK    1  A    between atoms: C_4  and  O_13
REMARK    2  A    between atoms: O_13  and  C_14
REMARK    3  A    between atoms: C_14  and  C_15
REMARK    4  A    between atoms: C_15  and  N_16
REMARK    5  A    between atoms: N_16  and  C_18
REMARK    6  A    between atoms: N_16  and  C_20
REMARK                            x       y       z     vdW  Elec       q    Type
REMARK                         _______ _______ _______ _____ _____    ______ ____
ROOT
ATOM      1  S   UNL     1      33.120 -23.161 -16.940  0.00  0.00    -0.056 S 
ATOM      2  N   UNL     1      34.454 -24.143 -14.864  0.00  0.00    -0.275 N 
ATOM      3  N   UNL     1      35.657 -22.962 -16.519  0.00  0.00    -0.384 NA
ATOM      4  C   UNL     1      34.593 -21.055 -20.092  0.00  0.00    +0.136 C 
ATOM      5  C   UNL     1      34.055 -22.310 -18.113  0.00  0.00    +0.132 C 
ATOM      6  C   UNL     1      35.395 -22.308 -17.714  0.00  0.00    +0.126 C 
ATOM      7  C   UNL     1      33.634 -21.689 -19.298  0.00  0.00    +0.029 C 
ATOM      8  C   UNL     1      35.932 -21.040 -19.717  0.00  0.00    +0.039 C 
ATOM      9  C   UNL     1      36.345 -21.661 -18.534  0.00  0.00    +0.032 C 
ATOM     10  C   UNL     1      34.540 -23.445 -16.028  0.00  0.00    +0.211 C 
ATOM     11  C   UNL     1      35.630 -24.427 -14.028  0.00  0.00    +0.115 C 
ATOM     12  C   UNL     1      33.178 -24.661 -14.347  0.00  0.00    +0.115 C 
ENDROOT
BRANCH   4  13
ATOM     13  O   UNL     1      34.209 -20.444 -21.249  0.00  0.00    -0.478 OA
BRANCH  13  14
ATOM     14  C   UNL     1      34.319 -19.023 -21.296  0.00  0.00    +0.183 C 
BRANCH  14  15
ATOM     15  C   UNL     1      35.106 -18.636 -22.538  0.00  0.00    -0.029 C 
BRANCH  15  16
ATOM     16  N   UNL     1      35.444 -17.221 -22.513  0.00  0.00    +0.389 N 
ATOM     17  H   UNL     1      36.461 -17.140 -22.528  0.00  0.00    -0.080 HD
BRANCH  16  18
ATOM     18  C   UNL     1      34.944 -16.590 -21.289  0.00  0.00    -0.077 C 
ATOM     19  C   UNL     1      34.547 -15.148 -21.530  0.00  0.00    -0.025 C 
ENDBRANCH  16  18
BRANCH  16  20
ATOM     20  C   UNL     1      34.904 -16.538 -23.690  0.00  0.00    -0.077 C 
ATOM     21  C   UNL     1      34.571 -17.519 -24.796  0.00  0.00    -0.025 C 
ENDBRANCH  16  20
ENDBRANCH  15  16
ENDBRANCH  14  15
ENDBRANCH  13  14
ENDBRANCH   4  13
TORSDOF 6
ENDMDL
