MODEL 1
REMARK VINA RESULT:      -6.1      0.000      0.000
REMARK  Name = 6054
REMARK  3 active torsions:
REMARK  status: ('A' for Active; 'I' for Inactive)
REMARK    1  A    between atoms: C_1  and  C_7
REMARK    2  A    between atoms: C_7  and  C_8
REMARK    3  A    between atoms: C_8  and  O_9
REMARK                            x       y       z     vdW  Elec       q    Type
REMARK                         _______ _______ _______ _____ _____    ______ ____
ROOT
ATOM      1  C   UNL     1      35.169 -19.441 -21.029  0.00  0.00    -0.020 C 
ATOM      2  C   UNL     1      35.727 -20.490 -20.299  0.00  0.00    -0.004 C 
ATOM      3  C   UNL     1      33.783 -19.294 -21.091  0.00  0.00    -0.004 C 
ATOM      4  C   UNL     1      34.900 -21.393 -19.630  0.00  0.00    -0.000 C 
ATOM      5  C   UNL     1      32.956 -20.197 -20.422  0.00  0.00    -0.000 C 
ATOM      6  C   UNL     1      33.515 -21.246 -19.693  0.00  0.00    -0.000 C 
ENDROOT
BRANCH   1   7
ATOM      7  C   UNL     1      36.054 -18.476 -21.744  0.00  0.00    +0.058 C 
BRANCH   7   8
ATOM      8  C   UNL     1      35.464 -17.997 -23.073  0.00  0.00    +0.142 C 
BRANCH   8   9
ATOM      9  O   UNL     1      35.854 -16.650 -23.309  0.00  0.00    -0.382 OA
ATOM     10  H   UNL     1      35.303 -16.054 -22.776  0.00  0.00    +0.210 HD
ENDBRANCH   8   9
ENDBRANCH   7   8
ENDBRANCH   1   7
TORSDOF 3
ENDMDL
MODEL 2
REMARK VINA RESULT:      -6.1      0.036      1.611
REMARK  Name = 6054
REMARK  3 active torsions:
REMARK  status: ('A' for Active; 'I' for Inactive)
REMARK    1  A    between atoms: C_1  and  C_7
REMARK    2  A    between atoms: C_7  and  C_8
REMARK    3  A    between atoms: C_8  and  O_9
REMARK                            x       y       z     vdW  Elec       q    Type
REMARK                         _______ _______ _______ _____ _____    ______ ____
ROOT
ATOM      1  C   UNL     1      35.175 -19.447 -20.996  0.00  0.00    -0.020 C 
ATOM      2  C   UNL     1      33.789 -19.310 -21.062  0.00  0.00    -0.004 C 
ATOM      3  C   UNL     1      35.738 -20.497 -20.269  0.00  0.00    -0.004 C 
ATOM      4  C   UNL     1      32.964 -20.220 -20.401  0.00  0.00    -0.000 C 
ATOM      5  C   UNL     1      34.913 -21.408 -19.608  0.00  0.00    -0.000 C 
ATOM      6  C   UNL     1      33.527 -21.269 -19.674  0.00  0.00    -0.000 C 
ENDROOT
BRANCH   1   7
ATOM      7  C   UNL     1      36.057 -18.473 -21.703  0.00  0.00    +0.058 C 
BRANCH   7   8
ATOM      8  C   UNL     1      35.480 -18.010 -23.043  0.00  0.00    +0.142 C 
BRANCH   8   9
ATOM      9  O   UNL     1      35.826 -16.649 -23.267  0.00  0.00    -0.382 OA
ATOM     10  H   UNL     1      36.582 -16.603 -23.874  0.00  0.00    +0.210 HD
ENDBRANCH   8   9
ENDBRANCH   7   8
ENDBRANCH   1   7
TORSDOF 3
ENDMDL
MODEL 3
REMARK VINA RESULT:      -6.0      2.717      3.843
REMARK  Name = 6054
REMARK  3 active torsions:
REMARK  status: ('A' for Active; 'I' for Inactive)
REMARK    1  A    between atoms: C_1  and  C_7
REMARK    2  A    between atoms: C_7  and  C_8
REMARK    3  A    between atoms: C_8  and  O_9
REMARK                            x       y       z     vdW  Elec       q    Type
REMARK                         _______ _______ _______ _____ _____    ______ ____
ROOT
ATOM      1  C   UNL     1      35.323 -20.862 -19.922  0.00  0.00    -0.020 C 
ATOM      2  C   UNL     1      35.258 -19.796 -20.820  0.00  0.00    -0.004 C 
ATOM      3  C   UNL     1      34.148 -21.444 -19.444  0.00  0.00    -0.004 C 
ATOM      4  C   UNL     1      34.019 -19.312 -21.240  0.00  0.00    -0.000 C 
ATOM      5  C   UNL     1      32.909 -20.959 -19.864  0.00  0.00    -0.000 C 
ATOM      6  C   UNL     1      32.846 -19.894 -20.761  0.00  0.00    -0.000 C 
ENDROOT
BRANCH   1   7
ATOM      7  C   UNL     1      36.648 -21.380 -19.472  0.00  0.00    +0.058 C 
BRANCH   7   8
ATOM      8  C   UNL     1      36.687 -21.702 -17.976  0.00  0.00    +0.142 C 
BRANCH   8   9
ATOM      9  O   UNL     1      37.243 -20.603 -17.266  0.00  0.00    -0.382 OA
ATOM     10  H   UNL     1      37.412 -19.872 -17.882  0.00  0.00    +0.210 HD
ENDBRANCH   8   9
ENDBRANCH   7   8
ENDBRANCH   1   7
TORSDOF 3
ENDMDL
MODEL 4
REMARK VINA RESULT:      -5.7      3.394      4.704
REMARK  Name = 6054
REMARK  3 active torsions:
REMARK  status: ('A' for Active; 'I' for Inactive)
REMARK    1  A    between atoms: C_1  and  C_7
REMARK    2  A    between atoms: C_7  and  C_8
REMARK    3  A    between atoms: C_8  and  O_9
REMARK                            x       y       z     vdW  Elec       q    Type
REMARK                         _______ _______ _______ _____ _____    ______ ____
ROOT
ATOM      1  C   UNL     1      34.431 -21.310 -19.593  0.00  0.00    -0.020 C 
ATOM      2  C   UNL     1      35.509 -20.700 -20.234  0.00  0.00    -0.004 C 
ATOM      3  C   UNL     1      33.131 -20.868 -19.840  0.00  0.00    -0.004 C 
ATOM      4  C   UNL     1      35.288 -19.648 -21.123  0.00  0.00    -0.000 C 
ATOM      5  C   UNL     1      32.910 -19.816 -20.729  0.00  0.00    -0.000 C 
ATOM      6  C   UNL     1      33.988 -19.206 -21.370  0.00  0.00    -0.000 C 
ENDROOT
BRANCH   1   7
ATOM      7  C   UNL     1      34.668 -22.435 -18.642  0.00  0.00    +0.058 C 
BRANCH   7   8
ATOM      8  C   UNL     1      33.383 -22.934 -17.975  0.00  0.00    +0.142 C 
BRANCH   8   9
ATOM      9  O   UNL     1      33.657 -23.302 -16.629  0.00  0.00    -0.382 OA
ATOM     10  H   UNL     1      34.188 -22.609 -16.205  0.00  0.00    +0.210 HD
ENDBRANCH   8   9
ENDBRANCH   7   8
ENDBRANCH   1   7
TORSDOF 3
ENDMDL
MODEL 5
REMARK VINA RESULT:      -5.6      2.542      4.403
REMARK  Name = 6054
REMARK  3 active torsions:
REMARK  status: ('A' for Active; 'I' for Inactive)
REMARK    1  A    between atoms: C_1  and  C_7
REMARK    2  A    between atoms: C_7  and  C_8
REMARK    3  A    between atoms: C_8  and  O_9
REMARK                            x       y       z     vdW  Elec       q    Type
REMARK                         _______ _______ _______ _____ _____    ______ ____
ROOT
ATOM      1  C   UNL     1      34.620 -18.872 -21.710  0.00  0.00    -0.020 C 
ATOM      2  C   UNL     1      34.684 -17.548 -21.276  0.00  0.00    -0.004 C 
ATOM      3  C   UNL     1      34.803 -19.173 -23.060  0.00  0.00    -0.004 C 
ATOM      4  C   UNL     1      34.929 -16.524 -22.192  0.00  0.00    -0.000 C 
ATOM      5  C   UNL     1      35.048 -18.150 -23.976  0.00  0.00    -0.000 C 
ATOM      6  C   UNL     1      35.111 -16.826 -23.541  0.00  0.00    -0.000 C 
ENDROOT
BRANCH   1   7
ATOM      7  C   UNL     1      34.358 -19.967 -20.731  0.00  0.00    +0.058 C 
BRANCH   7   8
ATOM      8  C   UNL     1      32.866 -20.182 -20.462  0.00  0.00    +0.142 C 
BRANCH   8   9
ATOM      9  O   UNL     1      32.703 -21.039 -19.339  0.00  0.00    -0.382 OA
ATOM     10  H   UNL     1      32.444 -21.924 -19.641  0.00  0.00    +0.210 HD
ENDBRANCH   8   9
ENDBRANCH   7   8
ENDBRANCH   1   7
TORSDOF 3
ENDMDL
MODEL 6
REMARK VINA RESULT:      -5.6      2.530      3.719
REMARK  Name = 6054
REMARK  3 active torsions:
REMARK  status: ('A' for Active; 'I' for Inactive)
REMARK    1  A    between atoms: C_1  and  C_7
REMARK    2  A    between atoms: C_7  and  C_8
REMARK    3  A    between atoms: C_8  and  O_9
REMARK                            x       y       z     vdW  Elec       q    Type
REMARK                         _______ _______ _______ _____ _____    ______ ____
ROOT
ATOM      1  C   UNL     1      34.808 -17.606 -23.769  0.00  0.00    -0.020 C 
ATOM      2  C   UNL     1      34.923 -16.710 -22.705  0.00  0.00    -0.004 C 
ATOM      3  C   UNL     1      34.825 -18.980 -23.528  0.00  0.00    -0.004 C 
ATOM      4  C   UNL     1      35.056 -17.188 -21.401  0.00  0.00    -0.000 C 
ATOM      5  C   UNL     1      34.958 -19.458 -22.224  0.00  0.00    -0.000 C 
ATOM      6  C   UNL     1      35.073 -18.562 -21.162  0.00  0.00    -0.000 C 
ENDROOT
BRANCH   1   7
ATOM      7  C   UNL     1      34.667 -17.095 -25.163  0.00  0.00    +0.058 C 
BRANCH   7   8
ATOM      8  C   UNL     1      33.857 -15.798 -25.244  0.00  0.00    +0.142 C 
BRANCH   8   9
ATOM      9  O   UNL     1      33.502 -15.542 -26.597  0.00  0.00    -0.382 OA
ATOM     10  H   UNL     1      33.913 -14.713 -26.889  0.00  0.00    +0.210 HD
ENDBRANCH   8   9
ENDBRANCH   7   8
ENDBRANCH   1   7
TORSDOF 3
ENDMDL
MODEL 7
REMARK VINA RESULT:      -5.5     12.075     13.394
REMARK  Name = 6054
REMARK  3 active torsions:
REMARK  status: ('A' for Active; 'I' for Inactive)
REMARK    1  A    between atoms: C_1  and  C_7
REMARK    2  A    between atoms: C_7  and  C_8
REMARK    3  A    between atoms: C_8  and  O_9
REMARK                            x       y       z     vdW  Elec       q    Type
REMARK                         _______ _______ _______ _____ _____    ______ ____
ROOT
ATOM      1  C   UNL     1      32.736  -6.861 -22.720  0.00  0.00    -0.020 C 
ATOM      2  C   UNL     1      32.312  -6.060 -23.781  0.00  0.00    -0.004 C 
ATOM      3  C   UNL     1      33.960  -7.528 -22.796  0.00  0.00    -0.004 C 
ATOM      4  C   UNL     1      33.109  -5.926 -24.917  0.00  0.00    -0.000 C 
ATOM      5  C   UNL     1      34.758  -7.394 -23.933  0.00  0.00    -0.000 C 
ATOM      6  C   UNL     1      34.332  -6.594 -24.993  0.00  0.00    -0.000 C 
ENDROOT
BRANCH   1   7
ATOM      7  C   UNL     1      31.883  -7.004 -21.505  0.00  0.00    +0.058 C 
BRANCH   7   8
ATOM      8  C   UNL     1      32.514  -7.898 -20.434  0.00  0.00    +0.142 C 
BRANCH   8   9
ATOM      9  O   UNL     1      33.108  -7.089 -19.427  0.00  0.00    -0.382 OA
ATOM     10  H   UNL     1      33.582  -7.654 -18.796  0.00  0.00    +0.210 HD
ENDBRANCH   8   9
ENDBRANCH   7   8
ENDBRANCH   1   7
TORSDOF 3
ENDMDL
MODEL 8
REMARK VINA RESULT:      -5.4      2.508      4.500
REMARK  Name = 6054
REMARK  3 active torsions:
REMARK  status: ('A' for Active; 'I' for Inactive)
REMARK    1  A    between atoms: C_1  and  C_7
REMARK    2  A    between atoms: C_7  and  C_8
REMARK    3  A    between atoms: C_8  and  O_9
REMARK                            x       y       z     vdW  Elec       q    Type
REMARK                         _______ _______ _______ _____ _____    ______ ____
ROOT
ATOM      1  C   UNL     1      34.891 -18.245 -22.619  0.00  0.00    -0.020 C 
ATOM      2  C   UNL     1      34.647 -18.959 -23.792  0.00  0.00    -0.004 C 
ATOM      3  C   UNL     1      35.016 -16.856 -22.661  0.00  0.00    -0.004 C 
ATOM      4  C   UNL     1      34.529 -18.285 -25.008  0.00  0.00    -0.000 C 
ATOM      5  C   UNL     1      34.897 -16.182 -23.877  0.00  0.00    -0.000 C 
ATOM      6  C   UNL     1      34.654 -16.897 -25.049  0.00  0.00    -0.000 C 
ENDROOT
BRANCH   1   7
ATOM      7  C   UNL     1      35.018 -18.966 -21.319  0.00  0.00    +0.058 C 
BRANCH   7   8
ATOM      8  C   UNL     1      36.472 -19.153 -20.879  0.00  0.00    +0.142 C 
BRANCH   8   9
ATOM      9  O   UNL     1      36.526 -20.048 -19.776  0.00  0.00    -0.382 OA
ATOM     10  H   UNL     1      37.389 -20.490 -19.758  0.00  0.00    +0.210 HD
ENDBRANCH   8   9
ENDBRANCH   7   8
ENDBRANCH   1   7
TORSDOF 3
ENDMDL
MODEL 9
REMARK VINA RESULT:      -5.3      3.061      4.279
REMARK  Name = 6054
REMARK  3 active torsions:
REMARK  status: ('A' for Active; 'I' for Inactive)
REMARK    1  A    between atoms: C_1  and  C_7
REMARK    2  A    between atoms: C_7  and  C_8
REMARK    3  A    between atoms: C_8  and  O_9
REMARK                            x       y       z     vdW  Elec       q    Type
REMARK                         _______ _______ _______ _____ _____    ______ ____
ROOT
ATOM      1  C   UNL     1      34.859 -17.364 -22.511  0.00  0.00    -0.020 C 
ATOM      2  C   UNL     1      34.793 -18.708 -22.880  0.00  0.00    -0.004 C 
ATOM      3  C   UNL     1      34.793 -16.369 -23.487  0.00  0.00    -0.004 C 
ATOM      4  C   UNL     1      34.662 -19.057 -24.224  0.00  0.00    -0.000 C 
ATOM      5  C   UNL     1      34.662 -16.718 -24.831  0.00  0.00    -0.000 C 
ATOM      6  C   UNL     1      34.597 -18.062 -25.199  0.00  0.00    -0.000 C 
ENDROOT
BRANCH   1   7
ATOM      7  C   UNL     1      34.999 -16.991 -21.073  0.00  0.00    +0.058 C 
BRANCH   7   8
ATOM      8  C   UNL     1      34.165 -15.765 -20.691  0.00  0.00    +0.142 C 
BRANCH   8   9
ATOM      9  O   UNL     1      35.029 -14.696 -20.329  0.00  0.00    -0.382 OA
ATOM     10  H   UNL     1      35.259 -14.183 -21.120  0.00  0.00    +0.210 HD
ENDBRANCH   8   9
ENDBRANCH   7   8
ENDBRANCH   1   7
TORSDOF 3
ENDMDL
