MODEL 1
REMARK VINA RESULT:      -6.8      0.000      0.000
REMARK  Name = 5906
REMARK  5 active torsions:
REMARK  status: ('A' for Active; 'I' for Inactive)
REMARK    1  A    between atoms: C_1  and  C_2
REMARK    2  A    between atoms: C_1  and  O_10
REMARK    3  A    between atoms: C_1  and  C_12
REMARK    4  A    between atoms: C_5  and  O_8
REMARK    5  A    between atoms: C_12  and  N_14
REMARK                            x       y       z     vdW  Elec       q    Type
REMARK                         _______ _______ _______ _____ _____    ______ ____
ROOT
ATOM      1  C   UNL     1      35.488 -18.191 -21.692  0.00  0.00    +0.113 C 
ENDROOT
BRANCH   1   2
ATOM      2  C   UNL     1      34.788 -19.313 -20.954  0.00  0.00    +0.005 C 
ATOM      3  C   UNL     1      35.546 -20.298 -20.348  0.00  0.00    +0.035 C 
ATOM      4  C   UNL     1      33.405 -19.326 -20.902  0.00  0.00    -0.002 C 
ATOM      5  C   UNL     1      34.901 -21.331 -19.667  0.00  0.00    +0.133 C 
ATOM      6  C   UNL     1      32.760 -20.358 -20.221  0.00  0.00    +0.003 C 
ATOM      7  C   UNL     1      33.508 -21.361 -19.604  0.00  0.00    +0.037 C 
BRANCH   5   8
ATOM      8  O   UNL     1      35.630 -22.309 -19.064  0.00  0.00    -0.506 OA
ATOM      9  H   UNL     1      36.373 -22.675 -19.502  0.00  0.00    +0.292 HD
ENDBRANCH   5   8
ENDBRANCH   1   2
BRANCH   1  10
ATOM     10  O   UNL     1      36.854 -18.586 -21.845  0.00  0.00    -0.382 OA
ATOM     11  H   UNL     1      37.418 -17.798 -21.869  0.00  0.00    +0.211 HD
ENDBRANCH   1  10
BRANCH   1  12
ATOM     12  C   UNL     1      34.870 -17.877 -23.073  0.00  0.00    -0.034 C 
ATOM     13  C   UNL     1      35.010 -19.039 -24.058  0.00  0.00    -0.021 C 
BRANCH  12  14
ATOM     14  N   UNL     1      35.538 -16.706 -23.656  0.00  0.00    +0.384 N 
ATOM     15  H   UNL     1      35.351 -15.886 -23.079  0.00  0.00    -0.089 HD
ATOM     16  H   UNL     1      35.184 -16.547 -24.599  0.00  0.00    -0.089 HD
ATOM     17  H   UNL     1      36.544 -16.871 -23.693  0.00  0.00    -0.089 HD
ENDBRANCH  12  14
ENDBRANCH   1  12
TORSDOF 5
ENDMDL
MODEL 2
REMARK VINA RESULT:      -6.6      1.521      2.145
REMARK  Name = 5906
REMARK  5 active torsions:
REMARK  status: ('A' for Active; 'I' for Inactive)
REMARK    1  A    between atoms: C_1  and  C_2
REMARK    2  A    between atoms: C_1  and  O_10
REMARK    3  A    between atoms: C_1  and  C_12
REMARK    4  A    between atoms: C_5  and  O_8
REMARK    5  A    between atoms: C_12  and  N_14
REMARK                            x       y       z     vdW  Elec       q    Type
REMARK                         _______ _______ _______ _____ _____    ______ ____
ROOT
ATOM      1  C   UNL     1      34.576 -18.112 -21.725  0.00  0.00    +0.113 C 
ENDROOT
BRANCH   1   2
ATOM      2  C   UNL     1      34.767 -19.381 -20.921  0.00  0.00    +0.005 C 
ATOM      3  C   UNL     1      33.655 -20.098 -20.517  0.00  0.00    +0.035 C 
ATOM      4  C   UNL     1      36.050 -19.795 -20.609  0.00  0.00    -0.002 C 
ATOM      5  C   UNL     1      33.831 -21.267 -19.778  0.00  0.00    +0.133 C 
ATOM      6  C   UNL     1      36.227 -20.964 -19.869  0.00  0.00    +0.003 C 
ATOM      7  C   UNL     1      35.117 -21.700 -19.453  0.00  0.00    +0.037 C 
BRANCH   5   8
ATOM      8  O   UNL     1      32.749 -21.986 -19.372  0.00  0.00    -0.506 OA
ATOM      9  H   UNL     1      31.916 -21.846 -19.776  0.00  0.00    +0.292 HD
ENDBRANCH   5   8
ENDBRANCH   1   2
BRANCH   1  10
ATOM     10  O   UNL     1      35.097 -17.040 -20.935  0.00  0.00    -0.382 OA
ATOM     11  H   UNL     1      35.889 -17.340 -20.464  0.00  0.00    +0.211 HD
ENDBRANCH   1  10
BRANCH   1  12
ATOM     12  C   UNL     1      35.273 -18.140 -23.104  0.00  0.00    -0.034 C 
ATOM     13  C   UNL     1      35.049 -16.855 -23.902  0.00  0.00    -0.021 C 
BRANCH  12  14
ATOM     14  N   UNL     1      34.753 -19.263 -23.895  0.00  0.00    +0.384 N 
ATOM     15  H   UNL     1      35.360 -20.073 -23.775  0.00  0.00    -0.089 HD
ATOM     16  H   UNL     1      34.727 -19.000 -24.881  0.00  0.00    -0.089 HD
ATOM     17  H   UNL     1      33.812 -19.494 -23.580  0.00  0.00    -0.089 HD
ENDBRANCH  12  14
ENDBRANCH   1  12
TORSDOF 5
ENDMDL
MODEL 3
REMARK VINA RESULT:      -6.6      1.777      2.382
REMARK  Name = 5906
REMARK  5 active torsions:
REMARK  status: ('A' for Active; 'I' for Inactive)
REMARK    1  A    between atoms: C_1  and  C_2
REMARK    2  A    between atoms: C_1  and  O_10
REMARK    3  A    between atoms: C_1  and  C_12
REMARK    4  A    between atoms: C_5  and  O_8
REMARK    5  A    between atoms: C_12  and  N_14
REMARK                            x       y       z     vdW  Elec       q    Type
REMARK                         _______ _______ _______ _____ _____    ______ ____
ROOT
ATOM      1  C   UNL     1      35.827 -17.826 -21.962  0.00  0.00    +0.113 C 
ENDROOT
BRANCH   1   2
ATOM      2  C   UNL     1      35.505 -19.058 -21.144  0.00  0.00    +0.005 C 
ATOM      3  C   UNL     1      34.184 -19.444 -20.996  0.00  0.00    +0.035 C 
ATOM      4  C   UNL     1      36.538 -19.771 -20.562  0.00  0.00    -0.002 C 
ATOM      5  C   UNL     1      33.887 -20.580 -20.243  0.00  0.00    +0.133 C 
ATOM      6  C   UNL     1      36.241 -20.907 -19.809  0.00  0.00    +0.003 C 
ATOM      7  C   UNL     1      34.915 -21.311 -19.649  0.00  0.00    +0.037 C 
BRANCH   5   8
ATOM      8  O   UNL     1      32.594 -20.974 -20.087  0.00  0.00    -0.506 OA
ATOM      9  H   UNL     1      32.130 -21.353 -20.807  0.00  0.00    +0.292 HD
ENDBRANCH   5   8
ENDBRANCH   1   2
BRANCH   1  10
ATOM     10  O   UNL     1      36.101 -18.274 -23.292  0.00  0.00    -0.382 OA
ATOM     11  H   UNL     1      36.005 -17.532 -23.910  0.00  0.00    +0.211 HD
ENDBRANCH   1  10
BRANCH   1  12
ATOM     12  C   UNL     1      34.692 -16.777 -21.980  0.00  0.00    -0.034 C 
ATOM     13  C   UNL     1      34.755 -15.865 -23.205  0.00  0.00    -0.021 C 
BRANCH  12  14
ATOM     14  N   UNL     1      34.783 -15.934 -20.781  0.00  0.00    +0.384 N 
ATOM     15  H   UNL     1      33.904 -15.981 -20.265  0.00  0.00    -0.089 HD
ATOM     16  H   UNL     1      34.966 -14.970 -21.057  0.00  0.00    -0.089 HD
ATOM     17  H   UNL     1      35.542 -16.268 -20.187  0.00  0.00    -0.089 HD
ENDBRANCH  12  14
ENDBRANCH   1  12
TORSDOF 5
ENDMDL
MODEL 4
REMARK VINA RESULT:      -6.5      2.478      5.024
REMARK  Name = 5906
REMARK  5 active torsions:
REMARK  status: ('A' for Active; 'I' for Inactive)
REMARK    1  A    between atoms: C_1  and  C_2
REMARK    2  A    between atoms: C_1  and  O_10
REMARK    3  A    between atoms: C_1  and  C_12
REMARK    4  A    between atoms: C_5  and  O_8
REMARK    5  A    between atoms: C_12  and  N_14
REMARK                            x       y       z     vdW  Elec       q    Type
REMARK                         _______ _______ _______ _____ _____    ______ ____
ROOT
ATOM      1  C   UNL     1      35.679 -18.698 -21.519  0.00  0.00    +0.113 C 
ENDROOT
BRANCH   1   2
ATOM      2  C   UNL     1      35.165 -18.069 -22.798  0.00  0.00    +0.005 C 
ATOM      3  C   UNL     1      34.899 -16.712 -22.822  0.00  0.00    +0.035 C 
ATOM      4  C   UNL     1      34.975 -18.866 -23.912  0.00  0.00    -0.002 C 
ATOM      5  C   UNL     1      34.427 -16.132 -23.999  0.00  0.00    +0.133 C 
ATOM      6  C   UNL     1      34.503 -18.287 -25.090  0.00  0.00    +0.003 C 
ATOM      7  C   UNL     1      34.229 -16.919 -25.134  0.00  0.00    +0.037 C 
BRANCH   5   8
ATOM      8  O   UNL     1      34.159 -14.798 -24.043  0.00  0.00    -0.506 OA
ATOM      9  H   UNL     1      33.272 -14.500 -24.058  0.00  0.00    +0.292 HD
ENDBRANCH   5   8
ENDBRANCH   1   2
BRANCH   1  10
ATOM     10  O   UNL     1      35.583 -17.700 -20.500  0.00  0.00    -0.382 OA
ATOM     11  H   UNL     1      35.911 -16.855 -20.843  0.00  0.00    +0.211 HD
ENDBRANCH   1  10
BRANCH   1  12
ATOM     12  C   UNL     1      34.901 -19.964 -21.095  0.00  0.00    -0.034 C 
ATOM     13  C   UNL     1      33.435 -19.673 -20.772  0.00  0.00    -0.021 C 
BRANCH  12  14
ATOM     14  N   UNL     1      35.523 -20.546 -19.898  0.00  0.00    +0.384 N 
ATOM     15  H   UNL     1      36.040 -21.385 -20.158  0.00  0.00    -0.089 HD
ATOM     16  H   UNL     1      34.798 -20.788 -19.223  0.00  0.00    -0.089 HD
ATOM     17  H   UNL     1      36.161 -19.867 -19.484  0.00  0.00    -0.089 HD
ENDBRANCH  12  14
ENDBRANCH   1  12
TORSDOF 5
ENDMDL
MODEL 5
REMARK VINA RESULT:      -6.4      2.267      4.625
REMARK  Name = 5906
REMARK  5 active torsions:
REMARK  status: ('A' for Active; 'I' for Inactive)
REMARK    1  A    between atoms: C_1  and  C_2
REMARK    2  A    between atoms: C_1  and  O_10
REMARK    3  A    between atoms: C_1  and  C_12
REMARK    4  A    between atoms: C_5  and  O_8
REMARK    5  A    between atoms: C_12  and  N_14
REMARK                            x       y       z     vdW  Elec       q    Type
REMARK                         _______ _______ _______ _____ _____    ______ ____
ROOT
ATOM      1  C   UNL     1      35.034 -20.032 -21.054  0.00  0.00    +0.113 C 
ENDROOT
BRANCH   1   2
ATOM      2  C   UNL     1      34.940 -18.775 -21.894  0.00  0.00    +0.005 C 
ATOM      3  C   UNL     1      34.851 -18.887 -23.269  0.00  0.00    +0.035 C 
ATOM      4  C   UNL     1      34.946 -17.543 -21.265  0.00  0.00    -0.002 C 
ATOM      5  C   UNL     1      34.764 -17.730 -24.043  0.00  0.00    +0.133 C 
ATOM      6  C   UNL     1      34.858 -16.385 -22.038  0.00  0.00    +0.003 C 
ATOM      7  C   UNL     1      34.768 -16.478 -23.427  0.00  0.00    +0.037 C 
BRANCH   5   8
ATOM      8  O   UNL     1      34.675 -17.821 -25.398  0.00  0.00    -0.506 OA
ATOM      9  H   UNL     1      34.106 -17.245 -25.869  0.00  0.00    +0.292 HD
ENDBRANCH   5   8
ENDBRANCH   1   2
BRANCH   1  10
ATOM     10  O   UNL     1      36.203 -19.899 -20.241  0.00  0.00    -0.382 OA
ATOM     11  H   UNL     1      36.051 -19.224 -19.563  0.00  0.00    +0.211 HD
ENDBRANCH   1  10
BRANCH   1  12
ATOM     12  C   UNL     1      33.795 -20.277 -20.163  0.00  0.00    -0.034 C 
ATOM     13  C   UNL     1      33.853 -21.620 -19.433  0.00  0.00    -0.021 C 
BRANCH  12  14
ATOM     14  N   UNL     1      32.583 -20.264 -20.992  0.00  0.00    +0.384 N 
ATOM     15  H   UNL     1      32.798 -20.640 -21.915  0.00  0.00    -0.089 HD
ATOM     16  H   UNL     1      32.246 -19.305 -21.085  0.00  0.00    -0.089 HD
ATOM     17  H   UNL     1      31.863 -20.836 -20.551  0.00  0.00    -0.089 HD
ENDBRANCH  12  14
ENDBRANCH   1  12
TORSDOF 5
ENDMDL
MODEL 6
REMARK VINA RESULT:      -6.3      2.227      4.546
REMARK  Name = 5906
REMARK  5 active torsions:
REMARK  status: ('A' for Active; 'I' for Inactive)
REMARK    1  A    between atoms: C_1  and  C_2
REMARK    2  A    between atoms: C_1  and  O_10
REMARK    3  A    between atoms: C_1  and  C_12
REMARK    4  A    between atoms: C_5  and  O_8
REMARK    5  A    between atoms: C_12  and  N_14
REMARK                            x       y       z     vdW  Elec       q    Type
REMARK                         _______ _______ _______ _____ _____    ______ ____
ROOT
ATOM      1  C   UNL     1      34.967 -20.252 -20.839  0.00  0.00    +0.113 C 
ENDROOT
BRANCH   1   2
ATOM      2  C   UNL     1      34.926 -19.028 -21.730  0.00  0.00    +0.005 C 
ATOM      3  C   UNL     1      34.888 -17.772 -21.151  0.00  0.00    +0.035 C 
ATOM      4  C   UNL     1      34.928 -19.194 -23.104  0.00  0.00    -0.002 C 
ATOM      5  C   UNL     1      34.851 -16.645 -21.972  0.00  0.00    +0.133 C 
ATOM      6  C   UNL     1      34.891 -18.068 -23.925  0.00  0.00    +0.003 C 
ATOM      7  C   UNL     1      34.852 -16.793 -23.359  0.00  0.00    +0.037 C 
BRANCH   5   8
ATOM      8  O   UNL     1      34.813 -15.402 -21.420  0.00  0.00    -0.506 OA
ATOM      9  H   UNL     1      34.778 -15.304 -20.489  0.00  0.00    +0.292 HD
ENDBRANCH   5   8
ENDBRANCH   1   2
BRANCH   1  10
ATOM     10  O   UNL     1      36.084 -20.087 -19.961  0.00  0.00    -0.382 OA
ATOM     11  H   UNL     1      36.418 -20.957 -19.695  0.00  0.00    +0.211 HD
ENDBRANCH   1  10
BRANCH   1  12
ATOM     12  C   UNL     1      33.676 -20.465 -20.017  0.00  0.00    -0.034 C 
ATOM     13  C   UNL     1      33.630 -21.835 -19.340  0.00  0.00    -0.021 C 
BRANCH  12  14
ATOM     14  N   UNL     1      32.507 -20.356 -20.900  0.00  0.00    +0.384 N 
ATOM     15  H   UNL     1      32.762 -20.660 -21.840  0.00  0.00    -0.089 HD
ATOM     16  H   UNL     1      32.194 -19.386 -20.930  0.00  0.00    -0.089 HD
ATOM     17  H   UNL     1      31.755 -20.945 -20.544  0.00  0.00    -0.089 HD
ENDBRANCH  12  14
ENDBRANCH   1  12
TORSDOF 5
ENDMDL
MODEL 7
REMARK VINA RESULT:      -6.2      3.041      4.294
REMARK  Name = 5906
REMARK  5 active torsions:
REMARK  status: ('A' for Active; 'I' for Inactive)
REMARK    1  A    between atoms: C_1  and  C_2
REMARK    2  A    between atoms: C_1  and  O_10
REMARK    3  A    between atoms: C_1  and  C_12
REMARK    4  A    between atoms: C_5  and  O_8
REMARK    5  A    between atoms: C_12  and  N_14
REMARK                            x       y       z     vdW  Elec       q    Type
REMARK                         _______ _______ _______ _____ _____    ______ ____
ROOT
ATOM      1  C   UNL     1      34.694 -16.123 -24.899  0.00  0.00    +0.113 C 
ENDROOT
BRANCH   1   2
ATOM      2  C   UNL     1      34.830 -16.888 -23.600  0.00  0.00    +0.005 C 
ATOM      3  C   UNL     1      34.878 -16.190 -22.407  0.00  0.00    +0.035 C 
ATOM      4  C   UNL     1      34.903 -18.269 -23.636  0.00  0.00    -0.002 C 
ATOM      5  C   UNL     1      35.002 -16.895 -21.210  0.00  0.00    +0.133 C 
ATOM      6  C   UNL     1      35.028 -18.975 -22.440  0.00  0.00    +0.003 C 
ATOM      7  C   UNL     1      35.078 -18.288 -21.226  0.00  0.00    +0.037 C 
BRANCH   5   8
ATOM      8  O   UNL     1      35.051 -16.226 -20.026  0.00  0.00    -0.506 OA
ATOM      9  H   UNL     1      34.556 -15.438 -19.914  0.00  0.00    +0.292 HD
ENDBRANCH   5   8
ENDBRANCH   1   2
BRANCH   1  10
ATOM     10  O   UNL     1      34.645 -17.094 -25.948  0.00  0.00    -0.382 OA
ATOM     11  H   UNL     1      35.023 -16.716 -26.757  0.00  0.00    +0.211 HD
ENDBRANCH   1  10
BRANCH   1  12
ATOM     12  C   UNL     1      33.444 -15.216 -24.958  0.00  0.00    -0.034 C 
ATOM     13  C   UNL     1      32.882 -15.080 -26.374  0.00  0.00    -0.021 C 
BRANCH  12  14
ATOM     14  N   UNL     1      33.787 -13.873 -24.475  0.00  0.00    +0.384 N 
ATOM     15  H   UNL     1      34.733 -13.635 -24.775  0.00  0.00    -0.089 HD
ATOM     16  H   UNL     1      33.739 -13.855 -23.456  0.00  0.00    -0.089 HD
ATOM     17  H   UNL     1      33.129 -13.195 -24.859  0.00  0.00    -0.089 HD
ENDBRANCH  12  14
ENDBRANCH   1  12
TORSDOF 5
ENDMDL
MODEL 8
REMARK VINA RESULT:      -6.2      1.404      1.414
REMARK  Name = 5906
REMARK  5 active torsions:
REMARK  status: ('A' for Active; 'I' for Inactive)
REMARK    1  A    between atoms: C_1  and  C_2
REMARK    2  A    between atoms: C_1  and  O_10
REMARK    3  A    between atoms: C_1  and  C_12
REMARK    4  A    between atoms: C_5  and  O_8
REMARK    5  A    between atoms: C_12  and  N_14
REMARK                            x       y       z     vdW  Elec       q    Type
REMARK                         _______ _______ _______ _____ _____    ______ ____
ROOT
ATOM      1  C   UNL     1      35.620 -17.812 -21.415  0.00  0.00    +0.113 C 
ENDROOT
BRANCH   1   2
ATOM      2  C   UNL     1      34.950 -19.059 -20.878  0.00  0.00    +0.005 C 
ATOM      3  C   UNL     1      35.732 -20.125 -20.473  0.00  0.00    +0.035 C 
ATOM      4  C   UNL     1      33.569 -19.103 -20.804  0.00  0.00    -0.002 C 
ATOM      5  C   UNL     1      35.115 -21.273 -19.977  0.00  0.00    +0.133 C 
ATOM      6  C   UNL     1      32.950 -20.251 -20.308  0.00  0.00    +0.003 C 
ATOM      7  C   UNL     1      33.724 -21.337 -19.896  0.00  0.00    +0.037 C 
BRANCH   5   8
ATOM      8  O   UNL     1      35.868 -22.332 -19.574  0.00  0.00    -0.506 OA
ATOM      9  H   UNL     1      35.645 -23.198 -19.854  0.00  0.00    +0.292 HD
ENDBRANCH   5   8
ENDBRANCH   1   2
BRANCH   1  10
ATOM     10  O   UNL     1      36.368 -18.208 -22.567  0.00  0.00    -0.382 OA
ATOM     11  H   UNL     1      36.578 -19.153 -22.507  0.00  0.00    +0.211 HD
ENDBRANCH   1  10
BRANCH   1  12
ATOM     12  C   UNL     1      34.630 -16.686 -21.788  0.00  0.00    -0.034 C 
ATOM     13  C   UNL     1      34.852 -16.153 -23.204  0.00  0.00    -0.021 C 
BRANCH  12  14
ATOM     14  N   UNL     1      34.784 -15.565 -20.852  0.00  0.00    +0.384 N 
ATOM     15  H   UNL     1      33.867 -15.173 -20.637  0.00  0.00    -0.089 HD
ATOM     16  H   UNL     1      35.370 -14.846 -21.276  0.00  0.00    -0.089 HD
ATOM     17  H   UNL     1      35.221 -15.897 -19.993  0.00  0.00    -0.089 HD
ENDBRANCH  12  14
ENDBRANCH   1  12
TORSDOF 5
ENDMDL
MODEL 9
REMARK VINA RESULT:      -6.2      2.796      5.397
REMARK  Name = 5906
REMARK  5 active torsions:
REMARK  status: ('A' for Active; 'I' for Inactive)
REMARK    1  A    between atoms: C_1  and  C_2
REMARK    2  A    between atoms: C_1  and  O_10
REMARK    3  A    between atoms: C_1  and  C_12
REMARK    4  A    between atoms: C_5  and  O_8
REMARK    5  A    between atoms: C_12  and  N_14
REMARK                            x       y       z     vdW  Elec       q    Type
REMARK                         _______ _______ _______ _____ _____    ______ ____
ROOT
ATOM      1  C   UNL     1      35.515 -18.505 -22.761  0.00  0.00    +0.113 C 
ENDROOT
BRANCH   1   2
ATOM      2  C   UNL     1      34.906 -17.221 -23.286  0.00  0.00    +0.005 C 
ATOM      3  C   UNL     1      34.521 -17.149 -24.612  0.00  0.00    +0.035 C 
ATOM      4  C   UNL     1      34.749 -16.149 -22.425  0.00  0.00    -0.002 C 
ATOM      5  C   UNL     1      33.960 -15.967 -25.095  0.00  0.00    +0.133 C 
ATOM      6  C   UNL     1      34.188 -14.967 -22.907  0.00  0.00    +0.003 C 
ATOM      7  C   UNL     1      33.794 -14.875 -24.243  0.00  0.00    +0.037 C 
BRANCH   5   8
ATOM      8  O   UNL     1      33.575 -15.878 -26.397  0.00  0.00    -0.506 OA
ATOM      9  H   UNL     1      34.163 -15.526 -27.036  0.00  0.00    +0.292 HD
ENDBRANCH   5   8
ENDBRANCH   1   2
BRANCH   1  10
ATOM     10  O   UNL     1      36.932 -18.311 -22.738  0.00  0.00    -0.382 OA
ATOM     11  H   UNL     1      37.323 -18.870 -22.049  0.00  0.00    +0.211 HD
ENDBRANCH   1  10
BRANCH   1  12
ATOM     12  C   UNL     1      35.012 -18.902 -21.355  0.00  0.00    -0.034 C 
ATOM     13  C   UNL     1      35.980 -19.833 -20.626  0.00  0.00    -0.021 C 
BRANCH  12  14
ATOM     14  N   UNL     1      33.720 -19.590 -21.472  0.00  0.00    +0.384 N 
ATOM     15  H   UNL     1      33.860 -20.595 -21.364  0.00  0.00    -0.089 HD
ATOM     16  H   UNL     1      33.314 -19.399 -22.388  0.00  0.00    -0.089 HD
ATOM     17  H   UNL     1      33.089 -19.255 -20.744  0.00  0.00    -0.089 HD
ENDBRANCH  12  14
ENDBRANCH   1  12
TORSDOF 5
ENDMDL
