MODEL 1
REMARK VINA RESULT:      -7.3      0.000      0.000
REMARK  Name = 1576
REMARK  3 active torsions:
REMARK  status: ('A' for Active; 'I' for Inactive)
REMARK    1  A    between atoms: C_2  and  C_3
REMARK    2  A    between atoms: C_2  and  C_9
REMARK    3  A    between atoms: C_9  and  N_11
REMARK                            x       y       z     vdW  Elec       q    Type
REMARK                         _______ _______ _______ _____ _____    ______ ____
ROOT
ATOM      1  O   UNL     1      34.265 -17.074 -21.416  0.00  0.00    -0.294 OA
ATOM      2  C   UNL     1      34.730 -18.161 -21.822  0.00  0.00    +0.153 C 
ENDROOT
BRANCH   2   3
ATOM      3  C   UNL     1      34.581 -19.364 -21.020  0.00  0.00    +0.033 C 
ATOM      4  C   UNL     1      35.710 -20.072 -20.606  0.00  0.00    +0.003 C 
ATOM      5  C   UNL     1      33.309 -19.811 -20.662  0.00  0.00    +0.003 C 
ATOM      6  C   UNL     1      35.567 -21.226 -19.837  0.00  0.00    +0.000 C 
ATOM      7  C   UNL     1      33.166 -20.965 -19.892  0.00  0.00    +0.000 C 
ATOM      8  C   UNL     1      34.295 -21.672 -19.478  0.00  0.00    +0.000 C 
ENDBRANCH   2   3
BRANCH   2   9
ATOM      9  C   UNL     1      35.477 -18.199 -23.173  0.00  0.00    +0.002 C 
ATOM     10  C   UNL     1      34.801 -19.177 -24.124  0.00  0.00    -0.016 C 
BRANCH   9  11
ATOM     11  N   UNL     1      35.454 -16.855 -23.753  0.00  0.00    +0.388 N 
ATOM     12  C   UNL     1      34.766 -16.859 -25.033  0.00  0.00    -0.105 C 
ATOM     13  H   UNL     1      36.413 -16.533 -23.890  0.00  0.00    -0.084 HD
ATOM     14  H   UNL     1      34.960 -16.230 -23.116  0.00  0.00    -0.084 HD
ENDBRANCH   9  11
ENDBRANCH   2   9
TORSDOF 3
ENDMDL
MODEL 2
REMARK VINA RESULT:      -7.1      1.243      1.650
REMARK  Name = 1576
REMARK  3 active torsions:
REMARK  status: ('A' for Active; 'I' for Inactive)
REMARK    1  A    between atoms: C_2  and  C_3
REMARK    2  A    between atoms: C_2  and  C_9
REMARK    3  A    between atoms: C_9  and  N_11
REMARK                            x       y       z     vdW  Elec       q    Type
REMARK                         _______ _______ _______ _____ _____    ______ ____
ROOT
ATOM      1  O   UNL     1      36.770 -18.467 -22.077  0.00  0.00    -0.294 OA
ATOM      2  C   UNL     1      35.559 -18.362 -21.783  0.00  0.00    +0.153 C 
ENDROOT
BRANCH   2   3
ATOM      3  C   UNL     1      34.897 -19.412 -21.027  0.00  0.00    +0.033 C 
ATOM      4  C   UNL     1      35.654 -20.385 -20.374  0.00  0.00    +0.003 C 
ATOM      5  C   UNL     1      33.505 -19.447 -20.954  0.00  0.00    +0.003 C 
ATOM      6  C   UNL     1      35.019 -21.392 -19.648  0.00  0.00    +0.000 C 
ATOM      7  C   UNL     1      32.870 -20.455 -20.227  0.00  0.00    +0.000 C 
ATOM      8  C   UNL     1      33.627 -21.427 -19.574  0.00  0.00    +0.000 C 
ENDBRANCH   2   3
BRANCH   2   9
ATOM      9  C   UNL     1      34.781 -17.113 -22.251  0.00  0.00    +0.002 C 
ATOM     10  C   UNL     1      34.754 -16.062 -21.148  0.00  0.00    -0.016 C 
BRANCH   9  11
ATOM     11  N   UNL     1      35.448 -16.566 -23.433  0.00  0.00    +0.388 N 
ATOM     12  C   UNL     1      34.779 -17.003 -24.648  0.00  0.00    -0.105 C 
ATOM     13  H   UNL     1      36.416 -16.888 -23.451  0.00  0.00    -0.084 HD
ATOM     14  H   UNL     1      35.415 -15.547 -23.388  0.00  0.00    -0.084 HD
ENDBRANCH   9  11
ENDBRANCH   2   9
TORSDOF 3
ENDMDL
MODEL 3
REMARK VINA RESULT:      -7.1      1.240      2.160
REMARK  Name = 1576
REMARK  3 active torsions:
REMARK  status: ('A' for Active; 'I' for Inactive)
REMARK    1  A    between atoms: C_2  and  C_3
REMARK    2  A    between atoms: C_2  and  C_9
REMARK    3  A    between atoms: C_9  and  N_11
REMARK                            x       y       z     vdW  Elec       q    Type
REMARK                         _______ _______ _______ _____ _____    ______ ____
ROOT
ATOM      1  O   UNL     1      36.886 -18.603 -21.648  0.00  0.00    -0.294 OA
ATOM      2  C   UNL     1      35.649 -18.565 -21.474  0.00  0.00    +0.153 C 
ENDROOT
BRANCH   2   3
ATOM      3  C   UNL     1      34.976 -19.651 -20.780  0.00  0.00    +0.033 C 
ATOM      4  C   UNL     1      33.582 -19.709 -20.764  0.00  0.00    +0.003 C 
ATOM      5  C   UNL     1      35.723 -20.634 -20.133  0.00  0.00    +0.003 C 
ATOM      6  C   UNL     1      32.936 -20.751 -20.099  0.00  0.00    +0.000 C 
ATOM      7  C   UNL     1      35.076 -21.677 -19.469  0.00  0.00    +0.000 C 
ATOM      8  C   UNL     1      33.683 -21.736 -19.452  0.00  0.00    +0.000 C 
ENDBRANCH   2   3
BRANCH   2   9
ATOM      9  C   UNL     1      34.852 -17.360 -22.020  0.00  0.00    +0.002 C 
ATOM     10  C   UNL     1      34.787 -16.252 -20.977  0.00  0.00    -0.016 C 
BRANCH   9  11
ATOM     11  N   UNL     1      35.526 -16.864 -23.221  0.00  0.00    +0.388 N 
ATOM     12  C   UNL     1      34.924 -17.430 -24.418  0.00  0.00    -0.105 C 
ATOM     13  H   UNL     1      36.511 -17.128 -23.186  0.00  0.00    -0.084 HD
ATOM     14  H   UNL     1      35.433 -15.849 -23.255  0.00  0.00    -0.084 HD
ENDBRANCH   9  11
ENDBRANCH   2   9
TORSDOF 3
ENDMDL
MODEL 4
REMARK VINA RESULT:      -6.6      4.077      6.263
REMARK  Name = 1576
REMARK  3 active torsions:
REMARK  status: ('A' for Active; 'I' for Inactive)
REMARK    1  A    between atoms: C_2  and  C_3
REMARK    2  A    between atoms: C_2  and  C_9
REMARK    3  A    between atoms: C_9  and  N_11
REMARK                            x       y       z     vdW  Elec       q    Type
REMARK                         _______ _______ _______ _____ _____    ______ ____
ROOT
ATOM      1  O   UNL     1      33.853 -24.072 -19.159  0.00  0.00    -0.294 OA
ATOM      2  C   UNL     1      33.832 -22.939 -18.632  0.00  0.00    +0.153 C 
ENDROOT
BRANCH   2   3
ATOM      3  C   UNL     1      34.119 -21.758 -19.429  0.00  0.00    +0.033 C 
ATOM      4  C   UNL     1      35.440 -21.412 -19.713  0.00  0.00    +0.003 C 
ATOM      5  C   UNL     1      33.073 -20.971 -19.910  0.00  0.00    +0.003 C 
ATOM      6  C   UNL     1      35.715 -20.278 -20.478  0.00  0.00    +0.000 C 
ATOM      7  C   UNL     1      33.348 -19.838 -20.676  0.00  0.00    +0.000 C 
ATOM      8  C   UNL     1      34.669 -19.491 -20.960  0.00  0.00    +0.000 C 
ENDBRANCH   2   3
BRANCH   2   9
ATOM      9  C   UNL     1      33.517 -22.819 -17.125  0.00  0.00    +0.002 C 
ATOM     10  C   UNL     1      32.091 -23.276 -16.844  0.00  0.00    -0.016 C 
BRANCH   9  11
ATOM     11  N   UNL     1      34.457 -23.664 -16.386  0.00  0.00    +0.388 N 
ATOM     12  C   UNL     1      35.643 -22.910 -16.015  0.00  0.00    -0.105 C 
ATOM     13  H   UNL     1      34.732 -24.452 -16.972  0.00  0.00    -0.084 HD
ATOM     14  H   UNL     1      34.001 -23.998 -15.537  0.00  0.00    -0.084 HD
ENDBRANCH   9  11
ENDBRANCH   2   9
TORSDOF 3
ENDMDL
MODEL 5
REMARK VINA RESULT:      -6.5      1.913      2.276
REMARK  Name = 1576
REMARK  3 active torsions:
REMARK  status: ('A' for Active; 'I' for Inactive)
REMARK    1  A    between atoms: C_2  and  C_3
REMARK    2  A    between atoms: C_2  and  C_9
REMARK    3  A    between atoms: C_9  and  N_11
REMARK                            x       y       z     vdW  Elec       q    Type
REMARK                         _______ _______ _______ _____ _____    ______ ____
ROOT
ATOM      1  O   UNL     1      34.555 -18.041 -23.452  0.00  0.00    -0.294 OA
ATOM      2  C   UNL     1      34.559 -17.894 -22.211  0.00  0.00    +0.153 C 
ENDROOT
BRANCH   2   3
ATOM      3  C   UNL     1      34.536 -19.057 -21.338  0.00  0.00    +0.033 C 
ATOM      4  C   UNL     1      35.733 -19.625 -20.901  0.00  0.00    +0.003 C 
ATOM      5  C   UNL     1      33.318 -19.603 -20.936  0.00  0.00    +0.003 C 
ATOM      6  C   UNL     1      35.711 -20.740 -20.063  0.00  0.00    +0.000 C 
ATOM      7  C   UNL     1      33.296 -20.718 -20.098  0.00  0.00    +0.000 C 
ATOM      8  C   UNL     1      34.493 -21.286 -19.661  0.00  0.00    +0.000 C 
ENDBRANCH   2   3
BRANCH   2   9
ATOM      9  C   UNL     1      34.571 -16.466 -21.625  0.00  0.00    +0.002 C 
ATOM     10  C   UNL     1      34.727 -15.438 -22.738  0.00  0.00    -0.016 C 
BRANCH   9  11
ATOM     11  N   UNL     1      33.305 -16.241 -20.925  0.00  0.00    +0.388 N 
ATOM     12  C   UNL     1      32.604 -15.097 -21.484  0.00  0.00    -0.105 C 
ATOM     13  H   UNL     1      33.495 -16.066 -19.937  0.00  0.00    -0.084 HD
ATOM     14  H   UNL     1      32.720 -17.069 -21.031  0.00  0.00    -0.084 HD
ENDBRANCH   9  11
ENDBRANCH   2   9
TORSDOF 3
ENDMDL
MODEL 6
REMARK VINA RESULT:      -6.4      1.869      4.725
REMARK  Name = 1576
REMARK  3 active torsions:
REMARK  status: ('A' for Active; 'I' for Inactive)
REMARK    1  A    between atoms: C_2  and  C_3
REMARK    2  A    between atoms: C_2  and  C_9
REMARK    3  A    between atoms: C_9  and  N_11
REMARK                            x       y       z     vdW  Elec       q    Type
REMARK                         _______ _______ _______ _____ _____    ______ ____
ROOT
ATOM      1  O   UNL     1      35.349 -17.113 -20.458  0.00  0.00    -0.294 OA
ATOM      2  C   UNL     1      35.262 -17.912 -21.415  0.00  0.00    +0.153 C 
ENDROOT
BRANCH   2   3
ATOM      3  C   UNL     1      34.909 -17.429 -22.740  0.00  0.00    +0.033 C 
ATOM      4  C   UNL     1      34.900 -18.308 -23.823  0.00  0.00    +0.003 C 
ATOM      5  C   UNL     1      34.578 -16.088 -22.929  0.00  0.00    +0.003 C 
ATOM      6  C   UNL     1      34.561 -17.845 -25.095  0.00  0.00    +0.000 C 
ATOM      7  C   UNL     1      34.239 -15.625 -24.200  0.00  0.00    +0.000 C 
ATOM      8  C   UNL     1      34.229 -16.504 -25.283  0.00  0.00    +0.000 C 
ENDBRANCH   2   3
BRANCH   2   9
ATOM      9  C   UNL     1      35.517 -19.414 -21.163  0.00  0.00    +0.002 C 
ATOM     10  C   UNL     1      36.909 -19.625 -20.582  0.00  0.00    -0.016 C 
BRANCH   9  11
ATOM     11  N   UNL     1      34.512 -19.902 -20.216  0.00  0.00    +0.388 N 
ATOM     12  C   UNL     1      33.204 -19.973 -20.847  0.00  0.00    -0.105 C 
ATOM     13  H   UNL     1      34.464 -19.266 -19.420  0.00  0.00    -0.084 HD
ATOM     14  H   UNL     1      34.778 -20.837 -19.907  0.00  0.00    -0.084 HD
ENDBRANCH   9  11
ENDBRANCH   2   9
TORSDOF 3
ENDMDL
MODEL 7
REMARK VINA RESULT:      -6.4      2.648      4.023
REMARK  Name = 1576
REMARK  3 active torsions:
REMARK  status: ('A' for Active; 'I' for Inactive)
REMARK    1  A    between atoms: C_2  and  C_3
REMARK    2  A    between atoms: C_2  and  C_9
REMARK    3  A    between atoms: C_9  and  N_11
REMARK                            x       y       z     vdW  Elec       q    Type
REMARK                         _______ _______ _______ _____ _____    ______ ____
ROOT
ATOM      1  O   UNL     1      34.926 -15.438 -20.420  0.00  0.00    -0.294 OA
ATOM      2  C   UNL     1      34.346 -15.660 -21.504  0.00  0.00    +0.153 C 
ENDROOT
BRANCH   2   3
ATOM      3  C   UNL     1      34.543 -16.925 -22.193  0.00  0.00    +0.033 C 
ATOM      4  C   UNL     1      34.477 -18.124 -21.482  0.00  0.00    +0.003 C 
ATOM      5  C   UNL     1      34.796 -16.941 -23.564  0.00  0.00    +0.003 C 
ATOM      6  C   UNL     1      34.666 -19.338 -22.142  0.00  0.00    +0.000 C 
ATOM      7  C   UNL     1      34.984 -18.156 -24.224  0.00  0.00    +0.000 C 
ATOM      8  C   UNL     1      34.918 -19.354 -23.513  0.00  0.00    +0.000 C 
ENDBRANCH   2   3
BRANCH   2   9
ATOM      9  C   UNL     1      33.435 -14.566 -22.104  0.00  0.00    +0.002 C 
ATOM     10  C   UNL     1      32.641 -13.875 -21.004  0.00  0.00    -0.016 C 
BRANCH   9  11
ATOM     11  N   UNL     1      34.279 -13.586 -22.790  0.00  0.00    +0.388 N 
ATOM     12  C   UNL     1      33.679 -13.187 -24.053  0.00  0.00    -0.105 C 
ATOM     13  H   UNL     1      35.194 -13.999 -22.971  0.00  0.00    -0.084 HD
ATOM     14  H   UNL     1      34.374 -12.762 -22.197  0.00  0.00    -0.084 HD
ENDBRANCH   9  11
ENDBRANCH   2   9
TORSDOF 3
ENDMDL
MODEL 8
REMARK VINA RESULT:      -6.4      2.631      3.942
REMARK  Name = 1576
REMARK  3 active torsions:
REMARK  status: ('A' for Active; 'I' for Inactive)
REMARK    1  A    between atoms: C_2  and  C_3
REMARK    2  A    between atoms: C_2  and  C_9
REMARK    3  A    between atoms: C_9  and  N_11
REMARK                            x       y       z     vdW  Elec       q    Type
REMARK                         _______ _______ _______ _____ _____    ______ ____
ROOT
ATOM      1  O   UNL     1      34.899 -15.455 -20.320  0.00  0.00    -0.294 OA
ATOM      2  C   UNL     1      34.337 -15.685 -21.412  0.00  0.00    +0.153 C 
ENDROOT
BRANCH   2   3
ATOM      3  C   UNL     1      34.539 -16.959 -22.084  0.00  0.00    +0.033 C 
ATOM      4  C   UNL     1      34.904 -16.988 -23.430  0.00  0.00    +0.003 C 
ATOM      5  C   UNL     1      34.369 -18.152 -21.382  0.00  0.00    +0.003 C 
ATOM      6  C   UNL     1      35.098 -18.210 -24.074  0.00  0.00    +0.000 C 
ATOM      7  C   UNL     1      34.565 -19.374 -22.026  0.00  0.00    +0.000 C 
ATOM      8  C   UNL     1      34.930 -19.403 -23.372  0.00  0.00    +0.000 C 
ENDBRANCH   2   3
BRANCH   2   9
ATOM      9  C   UNL     1      33.444 -14.593 -22.041  0.00  0.00    +0.002 C 
ATOM     10  C   UNL     1      32.656 -13.866 -20.959  0.00  0.00    -0.016 C 
BRANCH   9  11
ATOM     11  N   UNL     1      34.303 -13.641 -22.746  0.00  0.00    +0.388 N 
ATOM     12  C   UNL     1      33.690 -13.224 -23.996  0.00  0.00    -0.105 C 
ATOM     13  H   UNL     1      35.201 -14.083 -22.945  0.00  0.00    -0.084 HD
ATOM     14  H   UNL     1      34.437 -12.819 -22.156  0.00  0.00    -0.084 HD
ENDBRANCH   9  11
ENDBRANCH   2   9
TORSDOF 3
ENDMDL
MODEL 9
REMARK VINA RESULT:      -6.2      2.369      4.942
REMARK  Name = 1576
REMARK  3 active torsions:
REMARK  status: ('A' for Active; 'I' for Inactive)
REMARK    1  A    between atoms: C_2  and  C_3
REMARK    2  A    between atoms: C_2  and  C_9
REMARK    3  A    between atoms: C_9  and  N_11
REMARK                            x       y       z     vdW  Elec       q    Type
REMARK                         _______ _______ _______ _____ _____    ______ ____
ROOT
ATOM      1  O   UNL     1      34.926 -19.410 -23.012  0.00  0.00    -0.294 OA
ATOM      2  C   UNL     1      34.654 -18.704 -22.017  0.00  0.00    +0.153 C 
ENDROOT
BRANCH   2   3
ATOM      3  C   UNL     1      34.590 -17.257 -22.144  0.00  0.00    +0.033 C 
ATOM      4  C   UNL     1      34.643 -16.665 -23.406  0.00  0.00    +0.003 C 
ATOM      5  C   UNL     1      34.475 -16.461 -21.005  0.00  0.00    +0.003 C 
ATOM      6  C   UNL     1      34.582 -15.276 -23.528  0.00  0.00    +0.000 C 
ATOM      7  C   UNL     1      34.413 -15.073 -21.127  0.00  0.00    +0.000 C 
ATOM      8  C   UNL     1      34.466 -14.481 -22.388  0.00  0.00    +0.000 C 
ENDBRANCH   2   3
BRANCH   2   9
ATOM      9  C   UNL     1      34.405 -19.390 -20.656  0.00  0.00    +0.002 C 
ATOM     10  C   UNL     1      33.163 -20.268 -20.725  0.00  0.00    -0.016 C 
BRANCH   9  11
ATOM     11  N   UNL     1      35.571 -20.215 -20.333  0.00  0.00    +0.388 N 
ATOM     12  C   UNL     1      35.164 -21.437 -19.659  0.00  0.00    -0.105 C 
ATOM     13  H   UNL     1      36.195 -19.688 -19.721  0.00  0.00    -0.084 HD
ATOM     14  H   UNL     1      36.050 -20.461 -21.199  0.00  0.00    -0.084 HD
ENDBRANCH   9  11
ENDBRANCH   2   9
TORSDOF 3
ENDMDL
