MODEL 1
REMARK VINA RESULT:     -12.1      0.000      0.000
REMARK  Name = 24748573
REMARK  3 active torsions:
REMARK  status: ('A' for Active; 'I' for Inactive)
REMARK    1  A    between atoms: N_2  and  C_18
REMARK    2  A    between atoms: C_13  and  C_25
REMARK    3  A    between atoms: C_25  and  O_26
REMARK                            x       y       z     vdW  Elec       q    Type
REMARK                         _______ _______ _______ _____ _____    ______ ____
ROOT
ATOM      1  N   UNL     1      34.533 -23.064 -16.945  0.00  0.00    -0.391 NA
ATOM      2  N   UNL     1      32.829 -22.399 -18.418  0.00  0.00    -0.288 N 
ATOM      3  N   UNL     1      30.278 -23.917 -14.335  0.00  0.00    -0.243 NA
ATOM      4  C   UNL     1      34.045 -23.923 -14.739  0.00  0.00    +0.098 C 
ATOM      5  C   UNL     1      32.643 -23.760 -14.990  0.00  0.00    +0.011 C 
ATOM      6  C   UNL     1      32.225 -23.246 -16.230  0.00  0.00    +0.044 C 
ATOM      7  C   UNL     1      34.944 -23.553 -15.765  0.00  0.00    +0.119 C 
ATOM      8  C   UNL     1      33.207 -22.921 -17.155  0.00  0.00    +0.183 C 
ATOM      9  C   UNL     1      34.581 -24.430 -13.530  0.00  0.00    -0.015 C 
ATOM     10  C   UNL     1      36.313 -23.700 -15.554  0.00  0.00    +0.035 C 
ATOM     11  C   UNL     1      30.864 -23.073 -16.513  0.00  0.00    +0.024 C 
ATOM     12  C   UNL     1      31.603 -24.072 -14.094  0.00  0.00    +0.095 C 
ATOM     13  C   UNL     1      36.823 -24.201 -14.357  0.00  0.00    +0.077 C 
ATOM     14  C   UNL     1      35.955 -24.567 -13.342  0.00  0.00    +0.003 C 
ATOM     15  C   UNL     1      29.943 -23.421 -15.542  0.00  0.00    +0.099 C 
ATOM     16  H   UNL     1      31.953 -22.718 -18.734  0.00  0.00    +0.155 HD
ENDROOT
BRANCH   2  18
ATOM     17 CL   UNL     1      37.203 -20.573 -20.366  0.00  0.00    -0.082 Cl
ATOM     18  C   UNL     1      33.463 -21.515 -19.305  0.00  0.00    +0.051 C 
ATOM     19  C   UNL     1      34.856 -21.485 -19.383  0.00  0.00    +0.026 C 
ATOM     20  C   UNL     1      32.700 -20.669 -20.111  0.00  0.00    +0.015 C 
ATOM     21  C   UNL     1      35.485 -20.610 -20.268  0.00  0.00    +0.059 C 
ATOM     22  C   UNL     1      33.330 -19.794 -20.995  0.00  0.00    +0.002 C 
ATOM     23  C   UNL     1      34.723 -19.765 -21.074  0.00  0.00    +0.011 C 
ENDBRANCH   2  18
BRANCH  13  25
ATOM     24  O   UNL     1      38.830 -24.524 -13.096  0.00  0.00    -0.245 OA
ATOM     25  C   UNL     1      38.259 -24.336 -14.176  0.00  0.00    +0.338 C 
BRANCH  25  26
ATOM     26  O   UNL     1      38.944 -24.235 -15.348  0.00  0.00    -0.477 OA
ATOM     27  H   UNL     1      39.451 -23.467 -15.530  0.00  0.00    +0.295 HD
ENDBRANCH  25  26
ENDBRANCH  13  25
TORSDOF 3
ENDMDL
MODEL 2
REMARK VINA RESULT:     -11.6      1.502      2.116
REMARK  Name = 24748573
REMARK  3 active torsions:
REMARK  status: ('A' for Active; 'I' for Inactive)
REMARK    1  A    between atoms: N_2  and  C_18
REMARK    2  A    between atoms: C_13  and  C_25
REMARK    3  A    between atoms: C_25  and  O_26
REMARK                            x       y       z     vdW  Elec       q    Type
REMARK                         _______ _______ _______ _____ _____    ______ ____
ROOT
ATOM      1  N   UNL     1      35.766 -23.653 -16.320  0.00  0.00    -0.391 NA
ATOM      2  N   UNL     1      33.948 -22.774 -17.519  0.00  0.00    -0.288 N 
ATOM      3  N   UNL     1      31.907 -23.954 -13.055  0.00  0.00    -0.243 NA
ATOM      4  C   UNL     1      35.530 -24.443 -14.047  0.00  0.00    +0.098 C 
ATOM      5  C   UNL     1      34.138 -24.102 -14.078  0.00  0.00    +0.011 C 
ATOM      6  C   UNL     1      33.597 -23.538 -15.247  0.00  0.00    +0.044 C 
ATOM      7  C   UNL     1      36.294 -24.192 -15.210  0.00  0.00    +0.119 C 
ATOM      8  C   UNL     1      34.453 -23.341 -16.321  0.00  0.00    +0.183 C 
ATOM      9  C   UNL     1      36.183 -25.015 -12.928  0.00  0.00    -0.015 C 
ATOM     10  C   UNL     1      37.649 -24.513 -15.214  0.00  0.00    +0.035 C 
ATOM     11  C   UNL     1      32.241 -23.191 -15.314  0.00  0.00    +0.024 C 
ATOM     12  C   UNL     1      33.223 -24.278 -13.022  0.00  0.00    +0.095 C 
ATOM     13  C   UNL     1      38.276 -25.076 -14.104  0.00  0.00    +0.077 C 
ATOM     14  C   UNL     1      37.541 -25.327 -12.957  0.00  0.00    +0.003 C 
ATOM     15  C   UNL     1      31.451 -23.418 -14.203  0.00  0.00    +0.099 C 
ATOM     16  H   UNL     1      33.000 -22.978 -17.686  0.00  0.00    +0.155 HD
ENDROOT
BRANCH   2  18
ATOM     17 CL   UNL     1      33.337 -19.643 -21.529  0.00  0.00    -0.082 Cl
ATOM     18  C   UNL     1      34.539 -21.979 -18.512  0.00  0.00    +0.051 C 
ATOM     19  C   UNL     1      33.738 -21.289 -19.422  0.00  0.00    +0.026 C 
ATOM     20  C   UNL     1      35.929 -21.876 -18.589  0.00  0.00    +0.015 C 
ATOM     21  C   UNL     1      34.325 -20.495 -20.407  0.00  0.00    +0.059 C 
ATOM     22  C   UNL     1      36.516 -21.082 -19.574  0.00  0.00    +0.002 C 
ATOM     23  C   UNL     1      35.714 -20.392 -20.483  0.00  0.00    +0.011 C 
ENDBRANCH   2  18
BRANCH  13  25
ATOM     24  O   UNL     1      40.610 -24.630 -13.828  0.00  0.00    -0.245 OA
ATOM     25  C   UNL     1      39.693 -25.394 -14.148  0.00  0.00    +0.338 C 
BRANCH  25  26
ATOM     26  O   UNL     1      39.929 -26.660 -14.591  0.00  0.00    -0.477 OA
ATOM     27  H   UNL     1      39.814 -26.869 -15.497  0.00  0.00    +0.295 HD
ENDBRANCH  25  26
ENDBRANCH  13  25
TORSDOF 3
ENDMDL
MODEL 3
REMARK VINA RESULT:     -10.4      3.627      6.817
REMARK  Name = 24748573
REMARK  3 active torsions:
REMARK  status: ('A' for Active; 'I' for Inactive)
REMARK    1  A    between atoms: N_2  and  C_18
REMARK    2  A    between atoms: C_13  and  C_25
REMARK    3  A    between atoms: C_25  and  O_26
REMARK                            x       y       z     vdW  Elec       q    Type
REMARK                         _______ _______ _______ _____ _____    ______ ____
ROOT
ATOM      1  N   UNL     1      33.643 -22.984 -17.303  0.00  0.00    -0.391 NA
ATOM      2  N   UNL     1      33.267 -24.360 -15.437  0.00  0.00    -0.288 N 
ATOM      3  N   UNL     1      38.171 -23.227 -15.049  0.00  0.00    -0.243 NA
ATOM      4  C   UNL     1      35.820 -22.043 -17.772  0.00  0.00    +0.098 C 
ATOM      5  C   UNL     1      36.345 -22.688 -16.605  0.00  0.00    +0.011 C 
ATOM      6  C   UNL     1      35.489 -23.472 -15.812  0.00  0.00    +0.044 C 
ATOM      7  C   UNL     1      34.450 -22.233 -18.068  0.00  0.00    +0.119 C 
ATOM      8  C   UNL     1      34.164 -23.580 -16.209  0.00  0.00    +0.183 C 
ATOM      9  C   UNL     1      36.586 -21.231 -18.645  0.00  0.00    -0.015 C 
ATOM     10  C   UNL     1      33.908 -21.622 -19.195  0.00  0.00    +0.035 C 
ATOM     11  C   UNL     1      35.967 -24.117 -14.663  0.00  0.00    +0.024 C 
ATOM     12  C   UNL     1      37.677 -22.616 -16.153  0.00  0.00    +0.095 C 
ATOM     13  C   UNL     1      34.677 -20.826 -20.042  0.00  0.00    +0.077 C 
ATOM     14  C   UNL     1      36.020 -20.630 -19.767  0.00  0.00    +0.003 C 
ATOM     15  C   UNL     1      37.300 -23.964 -14.332  0.00  0.00    +0.099 C 
ATOM     16  H   UNL     1      33.696 -25.114 -14.971  0.00  0.00    +0.155 HD
ENDROOT
BRANCH   2  18
ATOM     17 CL   UNL     1      28.760 -22.321 -16.775  0.00  0.00    -0.082 Cl
ATOM     18  C   UNL     1      31.886 -24.266 -15.210  0.00  0.00    +0.051 C 
ATOM     19  C   UNL     1      31.101 -23.435 -16.010  0.00  0.00    +0.026 C 
ATOM     20  C   UNL     1      31.295 -25.007 -14.185  0.00  0.00    +0.015 C 
ATOM     21  C   UNL     1      29.728 -23.345 -15.787  0.00  0.00    +0.059 C 
ATOM     22  C   UNL     1      29.921 -24.916 -13.962  0.00  0.00    +0.002 C 
ATOM     23  C   UNL     1      29.138 -24.086 -14.763  0.00  0.00    +0.011 C 
ENDBRANCH   2  18
BRANCH  13  25
ATOM     24  O   UNL     1      34.686 -19.761 -22.184  0.00  0.00    -0.245 OA
ATOM     25  C   UNL     1      34.071 -20.204 -21.208  0.00  0.00    +0.338 C 
BRANCH  25  26
ATOM     26  O   UNL     1      32.713 -20.153 -21.126  0.00  0.00    -0.477 OA
ATOM     27  H   UNL     1      32.277 -20.491 -20.368  0.00  0.00    +0.295 HD
ENDBRANCH  25  26
ENDBRANCH  13  25
TORSDOF 3
ENDMDL
MODEL 4
REMARK VINA RESULT:     -10.2      3.247      6.072
REMARK  Name = 24748573
REMARK  3 active torsions:
REMARK  status: ('A' for Active; 'I' for Inactive)
REMARK    1  A    between atoms: N_2  and  C_18
REMARK    2  A    between atoms: C_13  and  C_25
REMARK    3  A    between atoms: C_25  and  O_26
REMARK                            x       y       z     vdW  Elec       q    Type
REMARK                         _______ _______ _______ _____ _____    ______ ____
ROOT
ATOM      1  N   UNL     1      33.913 -23.632 -15.833  0.00  0.00    -0.391 NA
ATOM      2  N   UNL     1      32.698 -24.788 -14.188  0.00  0.00    -0.288 N 
ATOM      3  N   UNL     1      37.038 -23.702 -11.849  0.00  0.00    -0.243 NA
ATOM      4  C   UNL     1      36.137 -22.785 -15.413  0.00  0.00    +0.098 C 
ATOM      5  C   UNL     1      36.079 -23.307 -14.079  0.00  0.00    +0.011 C 
ATOM      6  C   UNL     1      34.921 -23.984 -13.658  0.00  0.00    +0.044 C 
ATOM      7  C   UNL     1      35.012 -22.984 -16.245  0.00  0.00    +0.119 C 
ATOM      8  C   UNL     1      33.885 -24.113 -14.571  0.00  0.00    +0.183 C 
ATOM      9  C   UNL     1      37.249 -22.087 -15.945  0.00  0.00    -0.015 C 
ATOM     10  C   UNL     1      35.037 -22.491 -17.548  0.00  0.00    +0.035 C 
ATOM     11  C   UNL     1      34.827 -24.507 -12.361  0.00  0.00    +0.024 C 
ATOM     12  C   UNL     1      37.097 -23.208 -13.110  0.00  0.00    +0.095 C 
ATOM     13  C   UNL     1      36.140 -21.806 -18.055  0.00  0.00    +0.077 C 
ATOM     14  C   UNL     1      37.249 -21.603 -17.251  0.00  0.00    +0.003 C 
ATOM     15  C   UNL     1      35.902 -24.340 -11.508  0.00  0.00    +0.099 C 
ATOM     16  H   UNL     1      32.842 -25.494 -13.516  0.00  0.00    +0.155 HD
ENDROOT
BRANCH   2  18
ATOM     17 CL   UNL     1      29.177 -22.106 -16.769  0.00  0.00    -0.082 Cl
ATOM     18  C   UNL     1      31.359 -24.647 -14.582  0.00  0.00    +0.051 C 
ATOM     19  C   UNL     1      30.978 -23.571 -15.384  0.00  0.00    +0.026 C 
ATOM     20  C   UNL     1      30.409 -25.584 -14.174  0.00  0.00    +0.015 C 
ATOM     21  C   UNL     1      29.647 -23.433 -15.779  0.00  0.00    +0.059 C 
ATOM     22  C   UNL     1      29.079 -25.445 -14.569  0.00  0.00    +0.002 C 
ATOM     23  C   UNL     1      28.698 -24.370 -15.372  0.00  0.00    +0.011 C 
ENDBRANCH   2  18
BRANCH  13  25
ATOM     24  O   UNL     1      35.620 -21.884 -20.389  0.00  0.00    -0.245 OA
ATOM     25  C   UNL     1      36.124 -21.306 -19.420  0.00  0.00    +0.338 C 
BRANCH  25  26
ATOM     26  O   UNL     1      36.736 -20.096 -19.538  0.00  0.00    -0.477 OA
ATOM     27  H   UNL     1      36.272 -19.370 -19.907  0.00  0.00    +0.295 HD
ENDBRANCH  25  26
ENDBRANCH  13  25
TORSDOF 3
ENDMDL
MODEL 5
REMARK VINA RESULT:     -10.2      2.764      6.116
REMARK  Name = 24748573
REMARK  3 active torsions:
REMARK  status: ('A' for Active; 'I' for Inactive)
REMARK    1  A    between atoms: N_2  and  C_18
REMARK    2  A    between atoms: C_13  and  C_25
REMARK    3  A    between atoms: C_25  and  O_26
REMARK                            x       y       z     vdW  Elec       q    Type
REMARK                         _______ _______ _______ _____ _____    ______ ____
ROOT
ATOM      1  N   UNL     1      35.287 -23.179 -15.960  0.00  0.00    -0.391 NA
ATOM      2  N   UNL     1      35.141 -24.217 -13.858  0.00  0.00    -0.288 N 
ATOM      3  N   UNL     1      30.339 -24.106 -15.412  0.00  0.00    -0.243 NA
ATOM      4  C   UNL     1      33.331 -22.782 -17.322  0.00  0.00    +0.098 C 
ATOM      5  C   UNL     1      32.510 -23.381 -16.311  0.00  0.00    +0.011 C 
ATOM      6  C   UNL     1      33.114 -23.868 -15.138  0.00  0.00    +0.044 C 
ATOM      7  C   UNL     1      34.722 -22.712 -17.083  0.00  0.00    +0.119 C 
ATOM      8  C   UNL     1      34.491 -23.739 -15.024  0.00  0.00    +0.183 C 
ATOM      9  C   UNL     1      32.834 -22.259 -18.541  0.00  0.00    -0.015 C 
ATOM     10  C   UNL     1      35.548 -22.135 -18.045  0.00  0.00    +0.035 C 
ATOM     11  C   UNL     1      32.345 -24.460 -14.127  0.00  0.00    +0.024 C 
ATOM     12  C   UNL     1      31.112 -23.539 -16.370  0.00  0.00    +0.095 C 
ATOM     13  C   UNL     1      35.041 -21.625 -19.239  0.00  0.00    +0.077 C 
ATOM     14  C   UNL     1      33.680 -21.687 -19.488  0.00  0.00    +0.003 C 
ATOM     15  C   UNL     1      30.978 -24.552 -14.313  0.00  0.00    +0.099 C 
ATOM     16  H   UNL     1      34.582 -24.180 -13.048  0.00  0.00    +0.155 HD
ENDROOT
BRANCH   2  18
ATOM     17 CL   UNL     1      39.935 -24.848 -15.553  0.00  0.00    -0.082 Cl
ATOM     18  C   UNL     1      36.427 -24.732 -13.634  0.00  0.00    +0.051 C 
ATOM     19  C   UNL     1      37.425 -24.557 -14.594  0.00  0.00    +0.026 C 
ATOM     20  C   UNL     1      36.709 -25.415 -12.451  0.00  0.00    +0.015 C 
ATOM     21  C   UNL     1      38.704 -25.065 -14.370  0.00  0.00    +0.059 C 
ATOM     22  C   UNL     1      37.989 -25.924 -12.228  0.00  0.00    +0.002 C 
ATOM     23  C   UNL     1      38.986 -25.748 -13.188  0.00  0.00    +0.011 C 
ENDBRANCH   2  18
BRANCH  13  25
ATOM     24  O   UNL     1      37.154 -21.237 -20.292  0.00  0.00    -0.245 OA
ATOM     25  C   UNL     1      35.938 -21.032 -20.218  0.00  0.00    +0.338 C 
BRANCH  25  26
ATOM     26  O   UNL     1      35.291 -20.201 -21.081  0.00  0.00    -0.477 OA
ATOM     27  H   UNL     1      34.476 -19.811 -20.833  0.00  0.00    +0.295 HD
ENDBRANCH  25  26
ENDBRANCH  13  25
TORSDOF 3
ENDMDL
MODEL 6
REMARK VINA RESULT:      -9.7      8.484     12.261
REMARK  Name = 24748573
REMARK  3 active torsions:
REMARK  status: ('A' for Active; 'I' for Inactive)
REMARK    1  A    between atoms: N_2  and  C_18
REMARK    2  A    between atoms: C_13  and  C_25
REMARK    3  A    between atoms: C_25  and  O_26
REMARK                            x       y       z     vdW  Elec       q    Type
REMARK                         _______ _______ _______ _____ _____    ______ ____
ROOT
ATOM      1  N   UNL     1      33.663 -13.865 -22.683  0.00  0.00    -0.391 NA
ATOM      2  N   UNL     1      33.062 -11.667 -23.254  0.00  0.00    -0.288 N 
ATOM      3  N   UNL     1      33.409 -13.957 -27.739  0.00  0.00    -0.243 NA
ATOM      4  C   UNL     1      34.010 -15.567 -24.364  0.00  0.00    +0.098 C 
ATOM      5  C   UNL     1      33.707 -14.611 -25.388  0.00  0.00    +0.011 C 
ATOM      6  C   UNL     1      33.386 -13.292 -25.021  0.00  0.00    +0.044 C 
ATOM      7  C   UNL     1      33.970 -15.126 -23.021  0.00  0.00    +0.119 C 
ATOM      8  C   UNL     1      33.382 -12.985 -23.668  0.00  0.00    +0.183 C 
ATOM      9  C   UNL     1      34.347 -16.920 -24.614  0.00  0.00    -0.015 C 
ATOM     10  C   UNL     1      34.261 -16.029 -22.001  0.00  0.00    +0.035 C 
ATOM     11  C   UNL     1      33.084 -12.330 -25.994  0.00  0.00    +0.024 C 
ATOM     12  C   UNL     1      33.696 -14.863 -26.774  0.00  0.00    +0.095 C 
ATOM     13  C   UNL     1      34.590 -17.357 -22.266  0.00  0.00    +0.077 C 
ATOM     14  C   UNL     1      34.633 -17.804 -23.576  0.00  0.00    +0.003 C 
ATOM     15  C   UNL     1      33.110 -12.711 -27.322  0.00  0.00    +0.099 C 
ATOM     16  H   UNL     1      33.313 -10.974 -23.907  0.00  0.00    +0.155 HD
ENDROOT
BRANCH   2  18
ATOM     17 CL   UNL     1      32.018  -7.607 -20.308  0.00  0.00    -0.082 Cl
ATOM     18  C   UNL     1      32.460 -11.159 -22.093  0.00  0.00    +0.051 C 
ATOM     19  C   UNL     1      32.532  -9.795 -21.809  0.00  0.00    +0.026 C 
ATOM     20  C   UNL     1      31.786 -12.017 -21.224  0.00  0.00    +0.015 C 
ATOM     21  C   UNL     1      31.930  -9.289 -20.658  0.00  0.00    +0.059 C 
ATOM     22  C   UNL     1      31.184 -11.511 -20.072  0.00  0.00    +0.002 C 
ATOM     23  C   UNL     1      31.255 -10.147 -19.789  0.00  0.00    +0.011 C 
ENDBRANCH   2  18
BRANCH  13  25
ATOM     24  O   UNL     1      35.957 -18.332 -20.563  0.00  0.00    -0.245 OA
ATOM     25  C   UNL     1      34.884 -18.268 -21.173  0.00  0.00    +0.338 C 
BRANCH  25  26
ATOM     26  O   UNL     1      33.830 -19.075 -20.868  0.00  0.00    -0.477 OA
ATOM     27  H   UNL     1      33.240 -18.833 -20.182  0.00  0.00    +0.295 HD
ENDBRANCH  25  26
ENDBRANCH  13  25
TORSDOF 3
ENDMDL
MODEL 7
REMARK VINA RESULT:      -9.6      3.285      5.107
REMARK  Name = 24748573
REMARK  3 active torsions:
REMARK  status: ('A' for Active; 'I' for Inactive)
REMARK    1  A    between atoms: N_2  and  C_18
REMARK    2  A    between atoms: C_13  and  C_25
REMARK    3  A    between atoms: C_25  and  O_26
REMARK                            x       y       z     vdW  Elec       q    Type
REMARK                         _______ _______ _______ _____ _____    ______ ____
ROOT
ATOM      1  N   UNL     1      34.093 -22.792 -16.274  0.00  0.00    -0.391 NA
ATOM      2  N   UNL     1      36.184 -22.092 -17.082  0.00  0.00    -0.288 N 
ATOM      3  N   UNL     1      37.404 -25.434 -13.500  0.00  0.00    -0.243 NA
ATOM      4  C   UNL     1      33.894 -24.426 -14.504  0.00  0.00    +0.098 C 
ATOM      5  C   UNL     1      35.322 -24.521 -14.437  0.00  0.00    +0.011 C 
ATOM      6  C   UNL     1      36.102 -23.736 -15.304  0.00  0.00    +0.044 C 
ATOM      7  C   UNL     1      33.338 -23.536 -15.452  0.00  0.00    +0.119 C 
ATOM      8  C   UNL     1      35.436 -22.900 -16.189  0.00  0.00    +0.183 C 
ATOM      9  C   UNL     1      33.009 -25.166 -13.682  0.00  0.00    -0.015 C 
ATOM     10  C   UNL     1      31.953 -23.419 -15.543  0.00  0.00    +0.035 C 
ATOM     11  C   UNL     1      37.502 -23.801 -15.267  0.00  0.00    +0.024 C 
ATOM     12  C   UNL     1      36.053 -25.347 -13.561  0.00  0.00    +0.095 C 
ATOM     13  C   UNL     1      31.097 -24.156 -14.726  0.00  0.00    +0.077 C 
ATOM     14  C   UNL     1      31.626 -25.032 -13.793  0.00  0.00    +0.003 C 
ATOM     15  C   UNL     1      38.094 -24.656 -14.357  0.00  0.00    +0.099 C 
ATOM     16  H   UNL     1      37.065 -21.824 -16.732  0.00  0.00    +0.155 HD
ENDROOT
BRANCH   2  18
ATOM     17 CL   UNL     1      32.695 -20.742 -20.583  0.00  0.00    -0.082 Cl
ATOM     18  C   UNL     1      35.913 -21.601 -18.368  0.00  0.00    +0.051 C 
ATOM     19  C   UNL     1      34.593 -21.437 -18.788  0.00  0.00    +0.026 C 
ATOM     20  C   UNL     1      36.964 -21.272 -19.225  0.00  0.00    +0.015 C 
ATOM     21  C   UNL     1      34.323 -20.945 -20.065  0.00  0.00    +0.059 C 
ATOM     22  C   UNL     1      36.693 -20.780 -20.502  0.00  0.00    +0.002 C 
ATOM     23  C   UNL     1      35.373 -20.616 -20.921  0.00  0.00    +0.011 C 
ENDBRANCH   2  18
BRANCH  13  25
ATOM     24  O   UNL     1      29.077 -23.004 -15.287  0.00  0.00    -0.245 OA
ATOM     25  C   UNL     1      29.657 -24.006 -14.854  0.00  0.00    +0.338 C 
BRANCH  25  26
ATOM     26  O   UNL     1      28.979 -25.111 -14.440  0.00  0.00    -0.477 OA
ATOM     27  H   UNL     1      28.783 -25.227 -13.531  0.00  0.00    +0.295 HD
ENDBRANCH  25  26
ENDBRANCH  13  25
TORSDOF 3
ENDMDL
MODEL 8
REMARK VINA RESULT:      -9.6     12.136     14.833
REMARK  Name = 24748573
REMARK  3 active torsions:
REMARK  status: ('A' for Active; 'I' for Inactive)
REMARK    1  A    between atoms: N_2  and  C_18
REMARK    2  A    between atoms: C_13  and  C_25
REMARK    3  A    between atoms: C_25  and  O_26
REMARK                            x       y       z     vdW  Elec       q    Type
REMARK                         _______ _______ _______ _____ _____    ______ ____
ROOT
ATOM      1  N   UNL     1      32.640 -10.468 -23.909  0.00  0.00    -0.391 NA
ATOM      2  N   UNL     1      32.188  -8.343 -23.017  0.00  0.00    -0.288 N 
ATOM      3  N   UNL     1      31.495 -11.410 -19.067  0.00  0.00    -0.243 NA
ATOM      4  C   UNL     1      32.506 -12.470 -22.561  0.00  0.00    +0.098 C 
ATOM      5  C   UNL     1      32.130 -11.676 -21.428  0.00  0.00    +0.011 C 
ATOM      6  C   UNL     1      32.021 -10.282 -21.574  0.00  0.00    +0.044 C 
ATOM      7  C   UNL     1      32.749 -11.799 -23.782  0.00  0.00    +0.119 C 
ATOM      8  C   UNL     1      32.285  -9.745 -22.826  0.00  0.00    +0.183 C 
ATOM      9  C   UNL     1      32.647 -13.879 -22.532  0.00  0.00    -0.015 C 
ATOM     10  C   UNL     1      33.114 -12.540 -24.902  0.00  0.00    +0.035 C 
ATOM     11  C   UNL     1      31.657  -9.473 -20.489  0.00  0.00    +0.024 C 
ATOM     12  C   UNL     1      31.850 -12.163 -20.137  0.00  0.00    +0.095 C 
ATOM     13  C   UNL     1      33.248 -13.927 -24.856  0.00  0.00    +0.077 C 
ATOM     14  C   UNL     1      33.014 -14.598 -23.667  0.00  0.00    +0.003 C 
ATOM     15  C   UNL     1      31.408 -10.081 -19.273  0.00  0.00    +0.099 C 
ATOM     16  H   UNL     1      31.525  -7.908 -22.433  0.00  0.00    +0.155 HD
ENDROOT
BRANCH   2  18
ATOM     17 CL   UNL     1      31.948  -4.234 -26.069  0.00  0.00    -0.082 Cl
ATOM     18  C   UNL     1      32.852  -7.456 -23.878  0.00  0.00    +0.051 C 
ATOM     19  C   UNL     1      32.151  -6.410 -24.478  0.00  0.00    +0.026 C 
ATOM     20  C   UNL     1      34.214  -7.619 -24.131  0.00  0.00    +0.015 C 
ATOM     21  C   UNL     1      32.812  -5.526 -25.330  0.00  0.00    +0.059 C 
ATOM     22  C   UNL     1      34.875  -6.735 -24.984  0.00  0.00    +0.002 C 
ATOM     23  C   UNL     1      34.174  -5.688 -25.583  0.00  0.00    +0.011 C 
ENDBRANCH   2  18
BRANCH  13  25
ATOM     24  O   UNL     1      33.983 -15.849 -26.076  0.00  0.00    -0.245 OA
ATOM     25  C   UNL     1      33.633 -14.664 -26.048  0.00  0.00    +0.338 C 
BRANCH  25  26
ATOM     26  O   UNL     1      33.570 -13.902 -27.175  0.00  0.00    -0.477 OA
ATOM     27  H   UNL     1      32.794 -13.412 -27.365  0.00  0.00    +0.295 HD
ENDBRANCH  25  26
ENDBRANCH  13  25
TORSDOF 3
ENDMDL
