MODEL 1
REMARK VINA RESULT:     -10.6      0.000      0.000
REMARK  Name = 10114365
REMARK  11 active torsions:
REMARK  status: ('A' for Active; 'I' for Inactive)
REMARK    1  A    between atoms: C_3  and  N_9
REMARK    2  A    between atoms: C_4  and  C_21
REMARK    3  A    between atoms: N_9  and  C_11
REMARK    4  A    between atoms: C_11  and  C_14
REMARK    5  A    between atoms: C_14  and  C_15
REMARK    6  A    between atoms: C_21  and  C_24
REMARK    7  A    between atoms: N_23  and  C_26
REMARK    8  A    between atoms: C_26  and  C_27
REMARK    9  A    between atoms: C_27  and  O_28
REMARK   10  A    between atoms: O_28  and  N_29
REMARK   11  A    between atoms: N_29  and  C_32
REMARK                            x       y       z     vdW  Elec       q    Type
REMARK                         _______ _______ _______ _____ _____    ______ ____
ROOT
ATOM      1 CL   UNL     1      32.559 -13.878 -26.106  0.00  0.00    -0.082 Cl
ATOM      2  F   UNL     1      35.301 -15.635 -22.187  0.00  0.00    -0.203 F 
ATOM      3  C   UNL     1      34.902 -17.111 -23.997  0.00  0.00    +0.072 C 
ATOM      4  C   UNL     1      34.030 -14.858 -24.031  0.00  0.00    +0.026 C 
ATOM      5  C   UNL     1      34.752 -15.865 -23.390  0.00  0.00    +0.150 C 
ATOM      6  C   UNL     1      34.332 -17.351 -25.248  0.00  0.00    +0.017 C 
ATOM      7  C   UNL     1      33.459 -15.099 -25.280  0.00  0.00    +0.056 C 
ATOM      8  C   UNL     1      33.609 -16.345 -25.889  0.00  0.00    +0.012 C 
ENDROOT
BRANCH   3   9
ATOM      9  N   UNL     1      35.631 -18.131 -23.351  0.00  0.00    -0.326 N 
ATOM     10  H   UNL     1      36.615 -18.094 -23.377  0.00  0.00    +0.147 HD
BRANCH   9  11
ATOM     11  C   UNL     1      35.005 -19.214 -22.659  0.00  0.00    +0.159 C 
BRANCH  11  14
ATOM     12  F   UNL     1      33.796 -17.994 -21.057  0.00  0.00    -0.198 F 
ATOM     13  F   UNL     1      35.941 -18.163 -20.779  0.00  0.00    -0.198 F 
ATOM     14  C   UNL     1      34.840 -18.866 -21.180  0.00  0.00    +0.300 C 
BRANCH  14  15
ATOM     15  C   UNL     1      34.636 -20.112 -20.353  0.00  0.00    +0.039 C 
ATOM     16  C   UNL     1      33.344 -20.565 -20.081  0.00  0.00    +0.001 C 
ATOM     17  C   UNL     1      35.738 -20.811 -19.861  0.00  0.00    +0.001 C 
ATOM     18  C   UNL     1      33.155 -21.717 -19.316  0.00  0.00    -0.000 C 
ATOM     19  C   UNL     1      35.549 -21.964 -19.097  0.00  0.00    -0.000 C 
ATOM     20  C   UNL     1      34.258 -22.415 -18.824  0.00  0.00    -0.000 C 
ENDBRANCH  14  15
ENDBRANCH  11  14
ENDBRANCH   9  11
ENDBRANCH   3   9
BRANCH   4  21
ATOM     21  C   UNL     1      33.889 -13.526 -23.345  0.00  0.00    +0.114 C 
BRANCH  21  24
ATOM     22  O   UNL     1      32.082 -14.404 -21.992  0.00  0.00    -0.275 OA
ATOM     23  N   UNL     1      32.249 -12.108 -22.298  0.00  0.00    -0.302 N 
ATOM     24  C   UNL     1      32.651 -13.427 -22.473  0.00  0.00    +0.227 C 
ATOM     25  H   UNL     1      32.773 -11.394 -22.726  0.00  0.00    +0.150 HD
BRANCH  23  26
ATOM     26  C   UNL     1      31.097 -11.742 -21.516  0.00  0.00    +0.125 C 
BRANCH  26  27
ATOM     27  C   UNL     1      31.490 -11.312 -20.114  0.00  0.00    +0.197 C 
BRANCH  27  28
ATOM     28  O   UNL     1      31.423  -9.897 -20.020  0.00  0.00    -0.232 OA
BRANCH  28  29
ATOM     29  N   UNL     1      31.965  -9.357 -21.196  0.00  0.00    -0.096 NA
BRANCH  29  32
ATOM     30  N   UNL     1      32.707  -7.177 -21.854  0.00  0.00    -0.368 N 
ATOM     31  N   UNL     1      32.953  -7.871 -19.690  0.00  0.00    -0.368 N 
ATOM     32  C   UNL     1      32.509  -8.194 -20.949  0.00  0.00    +0.217 C 
ATOM     33  H   UNL     1      32.429  -7.291 -22.791  0.00  0.00    +0.159 HD
ATOM     34  H   UNL     1      33.127  -6.335 -21.564  0.00  0.00    +0.159 HD
ATOM     35  H   UNL     1      32.865  -8.520 -18.955  0.00  0.00    +0.159 HD
ATOM     36  H   UNL     1      33.359  -6.990 -19.522  0.00  0.00    +0.159 HD
ENDBRANCH  29  32
ENDBRANCH  28  29
ENDBRANCH  27  28
ENDBRANCH  26  27
ENDBRANCH  23  26
ENDBRANCH  21  24
ENDBRANCH   4  21
TORSDOF 11
ENDMDL
MODEL 2
REMARK VINA RESULT:     -10.4      1.669      2.244
REMARK  Name = 10114365
REMARK  11 active torsions:
REMARK  status: ('A' for Active; 'I' for Inactive)
REMARK    1  A    between atoms: C_3  and  N_9
REMARK    2  A    between atoms: C_4  and  C_21
REMARK    3  A    between atoms: N_9  and  C_11
REMARK    4  A    between atoms: C_11  and  C_14
REMARK    5  A    between atoms: C_14  and  C_15
REMARK    6  A    between atoms: C_21  and  C_24
REMARK    7  A    between atoms: N_23  and  C_26
REMARK    8  A    between atoms: C_26  and  C_27
REMARK    9  A    between atoms: C_27  and  O_28
REMARK   10  A    between atoms: O_28  and  N_29
REMARK   11  A    between atoms: N_29  and  C_32
REMARK                            x       y       z     vdW  Elec       q    Type
REMARK                         _______ _______ _______ _____ _____    ______ ____
ROOT
ATOM      1 CL   UNL     1      32.567 -14.015 -26.577  0.00  0.00    -0.082 Cl
ATOM      2  F   UNL     1      34.002 -14.332 -21.698  0.00  0.00    -0.203 F 
ATOM      3  C   UNL     1      34.682 -16.071 -23.158  0.00  0.00    +0.072 C 
ATOM      4  C   UNL     1      33.356 -14.225 -23.976  0.00  0.00    +0.026 C 
ATOM      5  C   UNL     1      34.014 -14.869 -22.928  0.00  0.00    +0.150 C 
ATOM      6  C   UNL     1      34.695 -16.629 -24.436  0.00  0.00    +0.017 C 
ATOM      7  C   UNL     1      33.368 -14.783 -25.254  0.00  0.00    +0.056 C 
ATOM      8  C   UNL     1      34.037 -15.986 -25.485  0.00  0.00    +0.012 C 
ENDROOT
BRANCH   3   9
ATOM      9  N   UNL     1      35.347 -16.725 -22.100  0.00  0.00    -0.326 N 
ATOM     10  H   UNL     1      36.269 -16.453 -21.884  0.00  0.00    +0.147 HD
BRANCH   9  11
ATOM     11  C   UNL     1      34.742 -17.764 -21.326  0.00  0.00    +0.159 C 
BRANCH  11  14
ATOM     12  F   UNL     1      36.804 -18.881 -21.448  0.00  0.00    -0.198 F 
ATOM     13  F   UNL     1      35.275 -19.439 -22.882  0.00  0.00    -0.198 F 
ATOM     14  C   UNL     1      35.460 -19.090 -21.574  0.00  0.00    +0.300 C 
BRANCH  14  15
ATOM     15  C   UNL     1      34.963 -20.157 -20.629  0.00  0.00    +0.039 C 
ATOM     16  C   UNL     1      35.871 -20.994 -19.981  0.00  0.00    +0.001 C 
ATOM     17  C   UNL     1      33.594 -20.305 -20.404  0.00  0.00    +0.001 C 
ATOM     18  C   UNL     1      35.411 -21.980 -19.108  0.00  0.00    -0.000 C 
ATOM     19  C   UNL     1      33.134 -21.291 -19.530  0.00  0.00    -0.000 C 
ATOM     20  C   UNL     1      34.043 -22.129 -18.884  0.00  0.00    -0.000 C 
ENDBRANCH  14  15
ENDBRANCH  11  14
ENDBRANCH   9  11
ENDBRANCH   3   9
BRANCH   4  21
ATOM     21  C   UNL     1      32.645 -12.929 -23.691  0.00  0.00    +0.114 C 
BRANCH  21  24
ATOM     22  O   UNL     1      34.468 -11.733 -24.745  0.00  0.00    -0.275 OA
ATOM     23  N   UNL     1      32.972 -10.560 -23.412  0.00  0.00    -0.302 N 
ATOM     24  C   UNL     1      33.474 -11.703 -24.025  0.00  0.00    +0.227 C 
ATOM     25  H   UNL     1      32.167 -10.640 -22.851  0.00  0.00    +0.150 HD
BRANCH  23  26
ATOM     26  C   UNL     1      33.579  -9.264 -23.564  0.00  0.00    +0.125 C 
BRANCH  26  27
ATOM     27  C   UNL     1      32.540  -8.157 -23.547  0.00  0.00    +0.197 C 
BRANCH  27  28
ATOM     28  O   UNL     1      32.400  -7.663 -22.223  0.00  0.00    -0.232 OA
BRANCH  28  29
ATOM     29  N   UNL     1      31.922  -8.708 -21.418  0.00  0.00    -0.096 NA
BRANCH  29  32
ATOM     30  N   UNL     1      33.039  -7.484 -19.689  0.00  0.00    -0.368 N 
ATOM     31  N   UNL     1      32.145  -9.542 -19.248  0.00  0.00    -0.368 N 
ATOM     32  C   UNL     1      32.353  -8.565 -20.192  0.00  0.00    +0.217 C 
ATOM     33  H   UNL     1      33.248  -6.718 -20.272  0.00  0.00    +0.159 HD
ATOM     34  H   UNL     1      33.320  -7.475 -18.745  0.00  0.00    +0.159 HD
ATOM     35  H   UNL     1      31.664 -10.365 -19.490  0.00  0.00    +0.159 HD
ATOM     36  H   UNL     1      32.477  -9.416 -18.330  0.00  0.00    +0.159 HD
ENDBRANCH  29  32
ENDBRANCH  28  29
ENDBRANCH  27  28
ENDBRANCH  26  27
ENDBRANCH  23  26
ENDBRANCH  21  24
ENDBRANCH   4  21
TORSDOF 11
ENDMDL
MODEL 3
REMARK VINA RESULT:     -10.3      2.241      2.992
REMARK  Name = 10114365
REMARK  11 active torsions:
REMARK  status: ('A' for Active; 'I' for Inactive)
REMARK    1  A    between atoms: C_3  and  N_9
REMARK    2  A    between atoms: C_4  and  C_21
REMARK    3  A    between atoms: N_9  and  C_11
REMARK    4  A    between atoms: C_11  and  C_14
REMARK    5  A    between atoms: C_14  and  C_15
REMARK    6  A    between atoms: C_21  and  C_24
REMARK    7  A    between atoms: N_23  and  C_26
REMARK    8  A    between atoms: C_26  and  C_27
REMARK    9  A    between atoms: C_27  and  O_28
REMARK   10  A    between atoms: O_28  and  N_29
REMARK   11  A    between atoms: N_29  and  C_32
REMARK                            x       y       z     vdW  Elec       q    Type
REMARK                         _______ _______ _______ _____ _____    ______ ____
ROOT
ATOM      1 CL   UNL     1      31.281 -12.003 -21.327  0.00  0.00    -0.082 Cl
ATOM      2  F   UNL     1      34.316 -14.903 -24.214  0.00  0.00    -0.203 F 
ATOM      3  C   UNL     1      34.110 -15.472 -21.922  0.00  0.00    +0.072 C 
ATOM      4  C   UNL     1      32.914 -13.580 -22.834  0.00  0.00    +0.026 C 
ATOM      5  C   UNL     1      33.787 -14.655 -23.006  0.00  0.00    +0.150 C 
ATOM      6  C   UNL     1      33.559 -15.214 -20.667  0.00  0.00    +0.017 C 
ATOM      7  C   UNL     1      32.365 -13.323 -21.579  0.00  0.00    +0.056 C 
ATOM      8  C   UNL     1      32.687 -14.140 -20.494  0.00  0.00    +0.012 C 
ENDROOT
BRANCH   3   9
ATOM      9  N   UNL     1      34.991 -16.559 -22.094  0.00  0.00    -0.326 N 
ATOM     10  H   UNL     1      35.332 -16.750 -22.998  0.00  0.00    +0.147 HD
BRANCH   9  11
ATOM     11  C   UNL     1      35.413 -17.394 -21.012  0.00  0.00    +0.159 C 
BRANCH  11  14
ATOM     12  F   UNL     1      37.200 -18.846 -21.477  0.00  0.00    -0.198 F 
ATOM     13  F   UNL     1      35.540 -18.819 -22.874  0.00  0.00    -0.198 F 
ATOM     14  C   UNL     1      35.838 -18.763 -21.542  0.00  0.00    +0.300 C 
BRANCH  14  15
ATOM     15  C   UNL     1      35.168 -19.872 -20.767  0.00  0.00    +0.039 C 
ATOM     16  C   UNL     1      33.776 -19.919 -20.678  0.00  0.00    +0.001 C 
ATOM     17  C   UNL     1      35.941 -20.849 -20.139  0.00  0.00    +0.001 C 
ATOM     18  C   UNL     1      33.157 -20.944 -19.962  0.00  0.00    -0.000 C 
ATOM     19  C   UNL     1      35.320 -21.874 -19.423  0.00  0.00    -0.000 C 
ATOM     20  C   UNL     1      33.930 -21.920 -19.334  0.00  0.00    -0.000 C 
ENDBRANCH  14  15
ENDBRANCH  11  14
ENDBRANCH   9  11
ENDBRANCH   3   9
BRANCH   4  21
ATOM     21  C   UNL     1      32.589 -12.720 -24.026  0.00  0.00    +0.114 C 
BRANCH  21  24
ATOM     22  O   UNL     1      34.602 -11.723 -24.931  0.00  0.00    -0.275 OA
ATOM     23  N   UNL     1      33.213 -10.437 -23.587  0.00  0.00    -0.302 N 
ATOM     24  C   UNL     1      33.588 -11.601 -24.250  0.00  0.00    +0.227 C 
ATOM     25  H   UNL     1      32.379 -10.439 -23.064  0.00  0.00    +0.150 HD
BRANCH  23  26
ATOM     26  C   UNL     1      33.993  -9.228 -23.633  0.00  0.00    +0.125 C 
BRANCH  26  27
ATOM     27  C   UNL     1      33.113  -7.994 -23.551  0.00  0.00    +0.197 C 
BRANCH  27  28
ATOM     28  O   UNL     1      33.057  -7.544 -22.207  0.00  0.00    -0.232 OA
BRANCH  28  29
ATOM     29  N   UNL     1      32.215  -8.411 -21.493  0.00  0.00    -0.096 NA
BRANCH  29  32
ATOM     30  N   UNL     1      32.481  -9.448 -19.351  0.00  0.00    -0.368 N 
ATOM     31  N   UNL     1      32.910  -7.217 -19.610  0.00  0.00    -0.368 N 
ATOM     32  C   UNL     1      32.514  -8.382 -20.221  0.00  0.00    +0.217 C 
ATOM     33  H   UNL     1      32.212 -10.339 -19.673  0.00  0.00    +0.159 HD
ATOM     34  H   UNL     1      32.726  -9.320 -18.406  0.00  0.00    +0.159 HD
ATOM     35  H   UNL     1      32.972  -6.385 -20.132  0.00  0.00    +0.159 HD
ATOM     36  H   UNL     1      33.131  -7.216 -18.651  0.00  0.00    +0.159 HD
ENDBRANCH  29  32
ENDBRANCH  28  29
ENDBRANCH  27  28
ENDBRANCH  26  27
ENDBRANCH  23  26
ENDBRANCH  21  24
ENDBRANCH   4  21
TORSDOF 11
ENDMDL
MODEL 4
REMARK VINA RESULT:     -10.1      3.818      9.638
REMARK  Name = 10114365
REMARK  11 active torsions:
REMARK  status: ('A' for Active; 'I' for Inactive)
REMARK    1  A    between atoms: C_3  and  N_9
REMARK    2  A    between atoms: C_4  and  C_21
REMARK    3  A    between atoms: N_9  and  C_11
REMARK    4  A    between atoms: C_11  and  C_14
REMARK    5  A    between atoms: C_14  and  C_15
REMARK    6  A    between atoms: C_21  and  C_24
REMARK    7  A    between atoms: N_23  and  C_26
REMARK    8  A    between atoms: C_26  and  C_27
REMARK    9  A    between atoms: C_27  and  O_28
REMARK   10  A    between atoms: O_28  and  N_29
REMARK   11  A    between atoms: N_29  and  C_32
REMARK                            x       y       z     vdW  Elec       q    Type
REMARK                         _______ _______ _______ _____ _____    ______ ____
ROOT
ATOM      1 CL   UNL     1      35.038 -17.126 -25.232  0.00  0.00    -0.082 Cl
ATOM      2  F   UNL     1      33.973 -15.454 -20.538  0.00  0.00    -0.203 F 
ATOM      3  C   UNL     1      33.038 -14.268 -22.364  0.00  0.00    +0.072 C 
ATOM      4  C   UNL     1      34.443 -16.198 -22.740  0.00  0.00    +0.026 C 
ATOM      5  C   UNL     1      33.820 -15.309 -21.863  0.00  0.00    +0.150 C 
ATOM      6  C   UNL     1      32.878 -14.117 -23.742  0.00  0.00    +0.017 C 
ATOM      7  C   UNL     1      34.283 -16.046 -24.116  0.00  0.00    +0.056 C 
ATOM      8  C   UNL     1      33.501 -15.005 -24.618  0.00  0.00    +0.012 C 
ENDROOT
BRANCH   3   9
ATOM      9  N   UNL     1      32.407 -13.368 -21.481  0.00  0.00    -0.326 N 
ATOM     10  H   UNL     1      32.521 -13.502 -20.512  0.00  0.00    +0.147 HD
BRANCH   9  11
ATOM     11  C   UNL     1      31.610 -12.269 -21.930  0.00  0.00    +0.159 C 
BRANCH  11  14
ATOM     12  F   UNL     1      31.870 -11.847 -19.635  0.00  0.00    -0.198 F 
ATOM     13  F   UNL     1      29.994 -11.263 -20.556  0.00  0.00    -0.198 F 
ATOM     14  C   UNL     1      31.342 -11.307 -20.773  0.00  0.00    +0.300 C 
BRANCH  14  15
ATOM     15  C   UNL     1      31.911  -9.940 -21.067  0.00  0.00    +0.039 C 
ATOM     16  C   UNL     1      32.101  -9.026 -20.030  0.00  0.00    +0.001 C 
ATOM     17  C   UNL     1      32.248  -9.592 -22.375  0.00  0.00    +0.001 C 
ATOM     18  C   UNL     1      32.627  -7.762 -20.302  0.00  0.00    -0.000 C 
ATOM     19  C   UNL     1      32.775  -8.328 -22.646  0.00  0.00    -0.000 C 
ATOM     20  C   UNL     1      32.963  -7.414 -21.610  0.00  0.00    -0.000 C 
ENDBRANCH  14  15
ENDBRANCH  11  14
ENDBRANCH   9  11
ENDBRANCH   3   9
BRANCH   4  21
ATOM     21  C   UNL     1      35.279 -17.309 -22.162  0.00  0.00    +0.114 C 
BRANCH  21  24
ATOM     22  O   UNL     1      34.667 -19.493 -23.012  0.00  0.00    -0.275 OA
ATOM     23  N   UNL     1      33.778 -18.780 -20.989  0.00  0.00    -0.302 N 
ATOM     24  C   UNL     1      34.562 -18.645 -22.129  0.00  0.00    +0.227 C 
ATOM     25  H   UNL     1      33.760 -18.041 -20.338  0.00  0.00    +0.150 HD
BRANCH  23  26
ATOM     26  C   UNL     1      32.991 -19.954 -20.719  0.00  0.00    +0.125 C 
BRANCH  26  27
ATOM     27  C   UNL     1      33.754 -20.953 -19.868  0.00  0.00    +0.197 C 
BRANCH  27  28
ATOM     28  O   UNL     1      33.015 -22.161 -19.784  0.00  0.00    -0.232 OA
BRANCH  28  29
ATOM     29  N   UNL     1      33.755 -23.071 -19.013  0.00  0.00    -0.096 NA
BRANCH  29  32
ATOM     30  N   UNL     1      34.054 -23.318 -16.650  0.00  0.00    -0.368 N 
ATOM     31  N   UNL     1      31.983 -22.866 -17.507  0.00  0.00    -0.368 N 
ATOM     32  C   UNL     1      33.309 -23.089 -17.785  0.00  0.00    +0.217 C 
ATOM     33  H   UNL     1      35.020 -23.491 -16.721  0.00  0.00    +0.159 HD
ATOM     34  H   UNL     1      33.619 -23.309 -15.767  0.00  0.00    +0.159 HD
ATOM     35  H   UNL     1      31.350 -22.689 -18.240  0.00  0.00    +0.159 HD
ATOM     36  H   UNL     1      31.666 -22.882 -16.576  0.00  0.00    +0.159 HD
ENDBRANCH  29  32
ENDBRANCH  28  29
ENDBRANCH  27  28
ENDBRANCH  26  27
ENDBRANCH  23  26
ENDBRANCH  21  24
ENDBRANCH   4  21
TORSDOF 11
ENDMDL
MODEL 5
REMARK VINA RESULT:      -9.8      3.849     10.402
REMARK  Name = 10114365
REMARK  11 active torsions:
REMARK  status: ('A' for Active; 'I' for Inactive)
REMARK    1  A    between atoms: C_3  and  N_9
REMARK    2  A    between atoms: C_4  and  C_21
REMARK    3  A    between atoms: N_9  and  C_11
REMARK    4  A    between atoms: C_11  and  C_14
REMARK    5  A    between atoms: C_14  and  C_15
REMARK    6  A    between atoms: C_21  and  C_24
REMARK    7  A    between atoms: N_23  and  C_26
REMARK    8  A    between atoms: C_26  and  C_27
REMARK    9  A    between atoms: C_27  and  O_28
REMARK   10  A    between atoms: O_28  and  N_29
REMARK   11  A    between atoms: N_29  and  C_32
REMARK                            x       y       z     vdW  Elec       q    Type
REMARK                         _______ _______ _______ _____ _____    ______ ____
ROOT
ATOM      1 CL   UNL     1      32.349 -15.098 -21.249  0.00  0.00    -0.082 Cl
ATOM      2  F   UNL     1      34.532 -11.781 -24.442  0.00  0.00    -0.203 F 
ATOM      3  C   UNL     1      32.681 -11.025 -23.169  0.00  0.00    +0.072 C 
ATOM      4  C   UNL     1      33.486 -13.292 -22.944  0.00  0.00    +0.026 C 
ATOM      5  C   UNL     1      33.579 -12.029 -23.530  0.00  0.00    +0.150 C 
ATOM      6  C   UNL     1      31.691 -11.282 -22.221  0.00  0.00    +0.017 C 
ATOM      7  C   UNL     1      32.496 -13.549 -21.997  0.00  0.00    +0.056 C 
ATOM      8  C   UNL     1      31.597 -12.544 -21.635  0.00  0.00    +0.012 C 
ENDROOT
BRANCH   3   9
ATOM      9  N   UNL     1      32.773  -9.748 -23.760  0.00  0.00    -0.326 N 
ATOM     10  H   UNL     1      32.504  -9.645 -24.702  0.00  0.00    +0.147 HD
BRANCH   9  11
ATOM     11  C   UNL     1      33.238  -8.596 -23.052  0.00  0.00    +0.159 C 
BRANCH  11  14
ATOM     12  F   UNL     1      34.926  -8.809 -24.671  0.00  0.00    -0.198 F 
ATOM     13  F   UNL     1      35.307  -7.486 -22.994  0.00  0.00    -0.198 F 
ATOM     14  C   UNL     1      34.328  -7.889 -23.858  0.00  0.00    +0.300 C 
BRANCH  14  15
ATOM     15  C   UNL     1      33.754  -6.732 -24.640  0.00  0.00    +0.039 C 
ATOM     16  C   UNL     1      34.459  -6.203 -25.721  0.00  0.00    +0.001 C 
ATOM     17  C   UNL     1      32.518  -6.192 -24.281  0.00  0.00    +0.001 C 
ATOM     18  C   UNL     1      33.928  -5.133 -26.444  0.00  0.00    -0.000 C 
ATOM     19  C   UNL     1      31.988  -5.123 -25.004  0.00  0.00    -0.000 C 
ATOM     20  C   UNL     1      32.694  -4.594 -26.084  0.00  0.00    -0.000 C 
ENDBRANCH  14  15
ENDBRANCH  11  14
ENDBRANCH   9  11
ENDBRANCH   3   9
BRANCH   4  21
ATOM     21  C   UNL     1      34.472 -14.351 -23.358  0.00  0.00    +0.114 C 
BRANCH  21  24
ATOM     22  O   UNL     1      33.051 -15.005 -25.207  0.00  0.00    -0.275 OA
ATOM     23  N   UNL     1      34.522 -16.562 -24.310  0.00  0.00    -0.302 N 
ATOM     24  C   UNL     1      33.922 -15.310 -24.397  0.00  0.00    +0.227 C 
ATOM     25  H   UNL     1      35.213 -16.708 -23.624  0.00  0.00    +0.150 HD
BRANCH  23  26
ATOM     26  C   UNL     1      34.174 -17.655 -25.179  0.00  0.00    +0.125 C 
BRANCH  26  27
ATOM     27  C   UNL     1      34.543 -18.994 -24.567  0.00  0.00    +0.197 C 
BRANCH  27  28
ATOM     28  O   UNL     1      35.428 -18.785 -23.477  0.00  0.00    -0.232 OA
BRANCH  28  29
ATOM     29  N   UNL     1      34.748 -19.115 -22.295  0.00  0.00    -0.096 NA
BRANCH  29  32
ATOM     30  N   UNL     1      36.291 -19.282 -20.472  0.00  0.00    -0.368 N 
ATOM     31  N   UNL     1      35.167 -17.328 -20.852  0.00  0.00    -0.368 N 
ATOM     32  C   UNL     1      35.377 -18.622 -21.261  0.00  0.00    +0.217 C 
ATOM     33  H   UNL     1      36.525 -20.218 -20.666  0.00  0.00    +0.159 HD
ATOM     34  H   UNL     1      36.712 -18.817 -19.712  0.00  0.00    +0.159 HD
ATOM     35  H   UNL     1      34.533 -16.754 -21.340  0.00  0.00    +0.159 HD
ATOM     36  H   UNL     1      35.651 -16.974 -20.071  0.00  0.00    +0.159 HD
ENDBRANCH  29  32
ENDBRANCH  28  29
ENDBRANCH  27  28
ENDBRANCH  26  27
ENDBRANCH  23  26
ENDBRANCH  21  24
ENDBRANCH   4  21
TORSDOF 11
ENDMDL
MODEL 6
REMARK VINA RESULT:      -9.6      2.424      3.435
REMARK  Name = 10114365
REMARK  11 active torsions:
REMARK  status: ('A' for Active; 'I' for Inactive)
REMARK    1  A    between atoms: C_3  and  N_9
REMARK    2  A    between atoms: C_4  and  C_21
REMARK    3  A    between atoms: N_9  and  C_11
REMARK    4  A    between atoms: C_11  and  C_14
REMARK    5  A    between atoms: C_14  and  C_15
REMARK    6  A    between atoms: C_21  and  C_24
REMARK    7  A    between atoms: N_23  and  C_26
REMARK    8  A    between atoms: C_26  and  C_27
REMARK    9  A    between atoms: C_27  and  O_28
REMARK   10  A    between atoms: O_28  and  N_29
REMARK   11  A    between atoms: N_29  and  C_32
REMARK                            x       y       z     vdW  Elec       q    Type
REMARK                         _______ _______ _______ _____ _____    ______ ____
ROOT
ATOM      1 CL   UNL     1      30.982 -11.537 -21.401  0.00  0.00    -0.082 Cl
ATOM      2  F   UNL     1      34.485 -14.083 -24.085  0.00  0.00    -0.203 F 
ATOM      3  C   UNL     1      33.976 -14.879 -21.911  0.00  0.00    +0.072 C 
ATOM      4  C   UNL     1      32.861 -12.928 -22.801  0.00  0.00    +0.026 C 
ATOM      5  C   UNL     1      33.783 -13.965 -22.948  0.00  0.00    +0.150 C 
ATOM      6  C   UNL     1      33.245 -14.757 -20.729  0.00  0.00    +0.017 C 
ATOM      7  C   UNL     1      32.132 -12.806 -21.619  0.00  0.00    +0.056 C 
ATOM      8  C   UNL     1      32.324 -13.720 -20.582  0.00  0.00    +0.012 C 
ENDROOT
BRANCH   3   9
ATOM      9  N   UNL     1      34.907 -15.928 -22.057  0.00  0.00    -0.326 N 
ATOM     10  H   UNL     1      35.518 -15.910 -22.829  0.00  0.00    +0.147 HD
BRANCH   9  11
ATOM     11  C   UNL     1      35.003 -17.014 -21.132  0.00  0.00    +0.159 C 
BRANCH  11  14
ATOM     12  F   UNL     1      36.524 -18.396 -22.268  0.00  0.00    -0.198 F 
ATOM     13  F   UNL     1      34.505 -18.272 -23.051  0.00  0.00    -0.198 F 
ATOM     14  C   UNL     1      35.215 -18.327 -21.885  0.00  0.00    +0.300 C 
BRANCH  14  15
ATOM     15  C   UNL     1      34.813 -19.507 -21.034  0.00  0.00    +0.039 C 
ATOM     16  C   UNL     1      35.790 -20.343 -20.493  0.00  0.00    +0.001 C 
ATOM     17  C   UNL     1      33.463 -19.761 -20.788  0.00  0.00    +0.001 C 
ATOM     18  C   UNL     1      35.418 -21.434 -19.706  0.00  0.00    -0.000 C 
ATOM     19  C   UNL     1      33.092 -20.852 -20.001  0.00  0.00    -0.000 C 
ATOM     20  C   UNL     1      34.069 -21.688 -19.461  0.00  0.00    -0.000 C 
ENDBRANCH  14  15
ENDBRANCH  11  14
ENDBRANCH   9  11
ENDBRANCH   3   9
BRANCH   4  21
ATOM     21  C   UNL     1      32.680 -11.961 -23.940  0.00  0.00    +0.114 C 
BRANCH  21  24
ATOM     22  O   UNL     1      34.613 -10.504 -24.020  0.00  0.00    -0.275 OA
ATOM     23  N   UNL     1      32.603  -9.668 -23.212  0.00  0.00    -0.302 N 
ATOM     24  C   UNL     1      33.426 -10.655 -23.744  0.00  0.00    +0.227 C 
ATOM     25  H   UNL     1      31.662  -9.888 -23.024  0.00  0.00    +0.150 HD
BRANCH  23  26
ATOM     26  C   UNL     1      33.068  -8.337 -22.925  0.00  0.00    +0.125 C 
BRANCH  26  27
ATOM     27  C   UNL     1      32.756  -7.934 -21.495  0.00  0.00    +0.197 C 
BRANCH  27  28
ATOM     28  O   UNL     1      31.770  -6.913 -21.498  0.00  0.00    -0.232 OA
BRANCH  28  29
ATOM     29  N   UNL     1      31.446  -6.625 -22.833  0.00  0.00    -0.096 NA
BRANCH  29  32
ATOM     30  N   UNL     1      30.771  -4.686 -24.065  0.00  0.00    -0.368 N 
ATOM     31  N   UNL     1      30.406  -4.801 -21.811  0.00  0.00    -0.368 N 
ATOM     32  C   UNL     1      30.909  -5.437 -22.920  0.00  0.00    +0.217 C 
ATOM     33  H   UNL     1      31.094  -5.036 -24.926  0.00  0.00    +0.159 HD
ATOM     34  H   UNL     1      30.348  -3.797 -24.022  0.00  0.00    +0.159 HD
ATOM     35  H   UNL     1      30.448  -5.241 -20.931  0.00  0.00    +0.159 HD
ATOM     36  H   UNL     1      30.004  -3.907 -21.896  0.00  0.00    +0.159 HD
ENDBRANCH  29  32
ENDBRANCH  28  29
ENDBRANCH  27  28
ENDBRANCH  26  27
ENDBRANCH  23  26
ENDBRANCH  21  24
ENDBRANCH   4  21
TORSDOF 11
ENDMDL
MODEL 7
REMARK VINA RESULT:      -9.5      3.265      6.544
REMARK  Name = 10114365
REMARK  11 active torsions:
REMARK  status: ('A' for Active; 'I' for Inactive)
REMARK    1  A    between atoms: C_3  and  N_9
REMARK    2  A    between atoms: C_4  and  C_21
REMARK    3  A    between atoms: N_9  and  C_11
REMARK    4  A    between atoms: C_11  and  C_14
REMARK    5  A    between atoms: C_14  and  C_15
REMARK    6  A    between atoms: C_21  and  C_24
REMARK    7  A    between atoms: N_23  and  C_26
REMARK    8  A    between atoms: C_26  and  C_27
REMARK    9  A    between atoms: C_27  and  O_28
REMARK   10  A    between atoms: O_28  and  N_29
REMARK   11  A    between atoms: N_29  and  C_32
REMARK                            x       y       z     vdW  Elec       q    Type
REMARK                         _______ _______ _______ _____ _____    ______ ____
ROOT
ATOM      1 CL   UNL     1      35.474 -18.516 -21.387  0.00  0.00    -0.082 Cl
ATOM      2  F   UNL     1      33.771 -14.234 -23.562  0.00  0.00    -0.203 F 
ATOM      3  C   UNL     1      34.139 -16.107 -24.967  0.00  0.00    +0.072 C 
ATOM      4  C   UNL     1      34.563 -16.247 -22.592  0.00  0.00    +0.026 C 
ATOM      5  C   UNL     1      34.152 -15.513 -23.705  0.00  0.00    +0.150 C 
ATOM      6  C   UNL     1      34.535 -17.437 -25.115  0.00  0.00    +0.017 C 
ATOM      7  C   UNL     1      34.960 -17.575 -22.741  0.00  0.00    +0.056 C 
ATOM      8  C   UNL     1      34.946 -18.171 -24.003  0.00  0.00    +0.012 C 
ENDROOT
BRANCH   3   9
ATOM      9  N   UNL     1      33.724 -15.368 -26.093  0.00  0.00    -0.326 N 
ATOM     10  H   UNL     1      34.066 -15.629 -26.979  0.00  0.00    +0.147 HD
BRANCH   9  11
ATOM     11  C   UNL     1      32.829 -14.256 -26.005  0.00  0.00    +0.159 C 
BRANCH  11  14
ATOM     12  F   UNL     1      32.195 -12.722 -27.666  0.00  0.00    -0.198 F 
ATOM     13  F   UNL     1      34.127 -13.685 -27.877  0.00  0.00    -0.198 F 
ATOM     14  C   UNL     1      33.279 -13.144 -26.952  0.00  0.00    +0.300 C 
BRANCH  14  15
ATOM     15  C   UNL     1      33.926 -12.015 -26.186  0.00  0.00    +0.039 C 
ATOM     16  C   UNL     1      35.018 -11.339 -26.730  0.00  0.00    +0.001 C 
ATOM     17  C   UNL     1      33.430 -11.647 -24.935  0.00  0.00    +0.001 C 
ATOM     18  C   UNL     1      35.616 -10.295 -26.022  0.00  0.00    -0.000 C 
ATOM     19  C   UNL     1      34.027 -10.603 -24.228  0.00  0.00    -0.000 C 
ATOM     20  C   UNL     1      35.120  -9.928 -24.771  0.00  0.00    -0.000 C 
ENDBRANCH  14  15
ENDBRANCH  11  14
ENDBRANCH   9  11
ENDBRANCH   3   9
BRANCH   4  21
ATOM     21  C   UNL     1      34.564 -15.572 -21.246  0.00  0.00    +0.114 C 
BRANCH  21  24
ATOM     22  O   UNL     1      32.255 -15.815 -20.558  0.00  0.00    -0.275 OA
ATOM     23  N   UNL     1      33.146 -13.682 -20.783  0.00  0.00    -0.302 N 
ATOM     24  C   UNL     1      33.196 -15.072 -20.824  0.00  0.00    +0.227 C 
ATOM     25  H   UNL     1      33.956 -13.174 -21.015  0.00  0.00    +0.150 HD
BRANCH  23  26
ATOM     26  C   UNL     1      31.959 -12.956 -20.417  0.00  0.00    +0.125 C 
BRANCH  26  27
ATOM     27  C   UNL     1      31.593 -11.921 -21.466  0.00  0.00    +0.197 C 
BRANCH  27  28
ATOM     28  O   UNL     1      31.124 -10.746 -20.824  0.00  0.00    -0.232 OA
BRANCH  28  29
ATOM     29  N   UNL     1      31.986  -9.692 -21.161  0.00  0.00    -0.096 NA
BRANCH  29  32
ATOM     30  N   UNL     1      32.809  -7.765 -20.001  0.00  0.00    -0.368 N 
ATOM     31  N   UNL     1      32.410  -9.709 -18.865  0.00  0.00    -0.368 N 
ATOM     32  C   UNL     1      32.384  -9.071 -20.082  0.00  0.00    +0.217 C 
ATOM     33  H   UNL     1      32.834  -7.204 -20.810  0.00  0.00    +0.159 HD
ATOM     34  H   UNL     1      33.089  -7.392 -19.134  0.00  0.00    +0.159 HD
ATOM     35  H   UNL     1      32.127 -10.649 -18.796  0.00  0.00    +0.159 HD
ATOM     36  H   UNL     1      32.712  -9.225 -18.063  0.00  0.00    +0.159 HD
ENDBRANCH  29  32
ENDBRANCH  28  29
ENDBRANCH  27  28
ENDBRANCH  26  27
ENDBRANCH  23  26
ENDBRANCH  21  24
ENDBRANCH   4  21
TORSDOF 11
ENDMDL
MODEL 8
REMARK VINA RESULT:      -9.5      4.071      9.314
REMARK  Name = 10114365
REMARK  11 active torsions:
REMARK  status: ('A' for Active; 'I' for Inactive)
REMARK    1  A    between atoms: C_3  and  N_9
REMARK    2  A    between atoms: C_4  and  C_21
REMARK    3  A    between atoms: N_9  and  C_11
REMARK    4  A    between atoms: C_11  and  C_14
REMARK    5  A    between atoms: C_14  and  C_15
REMARK    6  A    between atoms: C_21  and  C_24
REMARK    7  A    between atoms: N_23  and  C_26
REMARK    8  A    between atoms: C_26  and  C_27
REMARK    9  A    between atoms: C_27  and  O_28
REMARK   10  A    between atoms: O_28  and  N_29
REMARK   11  A    between atoms: N_29  and  C_32
REMARK                            x       y       z     vdW  Elec       q    Type
REMARK                         _______ _______ _______ _____ _____    ______ ____
ROOT
ATOM      1 CL   UNL     1      34.940 -19.805 -24.534  0.00  0.00    -0.082 Cl
ATOM      2  F   UNL     1      35.184 -16.198 -20.944  0.00  0.00    -0.203 F 
ATOM      3  C   UNL     1      34.647 -15.517 -23.150  0.00  0.00    +0.072 C 
ATOM      4  C   UNL     1      35.060 -17.844 -22.646  0.00  0.00    +0.026 C 
ATOM      5  C   UNL     1      34.966 -16.515 -22.229  0.00  0.00    +0.150 C 
ATOM      6  C   UNL     1      34.420 -15.847 -24.486  0.00  0.00    +0.017 C 
ATOM      7  C   UNL     1      34.834 -18.173 -23.982  0.00  0.00    +0.056 C 
ATOM      8  C   UNL     1      34.514 -17.175 -24.903  0.00  0.00    +0.012 C 
ENDROOT
BRANCH   3   9
ATOM      9  N   UNL     1      34.552 -14.173 -22.732  0.00  0.00    -0.326 N 
ATOM     10  H   UNL     1      35.335 -13.588 -22.850  0.00  0.00    +0.147 HD
BRANCH   9  11
ATOM     11  C   UNL     1      33.369 -13.625 -22.145  0.00  0.00    +0.159 C 
BRANCH  11  14
ATOM     12  F   UNL     1      31.549 -12.204 -22.573  0.00  0.00    -0.198 F 
ATOM     13  F   UNL     1      31.936 -13.792 -23.998  0.00  0.00    -0.198 F 
ATOM     14  C   UNL     1      32.559 -12.874 -23.202  0.00  0.00    +0.300 C 
BRANCH  14  15
ATOM     15  C   UNL     1      33.444 -11.945 -23.998  0.00  0.00    +0.039 C 
ATOM     16  C   UNL     1      33.805 -12.274 -25.304  0.00  0.00    +0.001 C 
ATOM     17  C   UNL     1      33.900 -10.756 -23.426  0.00  0.00    +0.001 C 
ATOM     18  C   UNL     1      34.624 -11.415 -26.039  0.00  0.00    -0.000 C 
ATOM     19  C   UNL     1      34.717  -9.897 -24.162  0.00  0.00    -0.000 C 
ATOM     20  C   UNL     1      35.079 -10.227 -25.467  0.00  0.00    -0.000 C 
ENDBRANCH  14  15
ENDBRANCH  11  14
ENDBRANCH   9  11
ENDBRANCH   3   9
BRANCH   4  21
ATOM     21  C   UNL     1      35.406 -18.894 -21.625  0.00  0.00    +0.114 C 
BRANCH  21  24
ATOM     22  O   UNL     1      33.041 -19.143 -21.167  0.00  0.00    -0.275 OA
ATOM     23  N   UNL     1      34.538 -20.639 -20.211  0.00  0.00    -0.302 N 
ATOM     24  C   UNL     1      34.189 -19.546 -20.997  0.00  0.00    +0.227 C 
ATOM     25  H   UNL     1      35.489 -20.883 -20.138  0.00  0.00    +0.150 HD
BRANCH  23  26
ATOM     26  C   UNL     1      33.568 -21.429 -19.500  0.00  0.00    +0.125 C 
BRANCH  26  27
ATOM     27  C   UNL     1      34.078 -22.836 -19.240  0.00  0.00    +0.197 C 
BRANCH  27  28
ATOM     28  O   UNL     1      34.679 -22.889 -17.956  0.00  0.00    -0.232 OA
BRANCH  28  29
ATOM     29  N   UNL     1      35.870 -22.149 -18.002  0.00  0.00    -0.096 NA
BRANCH  29  32
ATOM     30  N   UNL     1      37.485 -21.316 -16.442  0.00  0.00    -0.368 N 
ATOM     31  N   UNL     1      35.928 -22.852 -15.776  0.00  0.00    -0.368 N 
ATOM     32  C   UNL     1      36.412 -22.094 -16.814  0.00  0.00    +0.217 C 
ATOM     33  H   UNL     1      37.919 -20.728 -17.101  0.00  0.00    +0.159 HD
ATOM     34  H   UNL     1      37.818 -21.347 -15.516  0.00  0.00    +0.159 HD
ATOM     35  H   UNL     1      35.159 -23.449 -15.920  0.00  0.00    +0.159 HD
ATOM     36  H   UNL     1      36.348 -22.796 -14.888  0.00  0.00    +0.159 HD
ENDBRANCH  29  32
ENDBRANCH  28  29
ENDBRANCH  27  28
ENDBRANCH  26  27
ENDBRANCH  23  26
ENDBRANCH  21  24
ENDBRANCH   4  21
TORSDOF 11
ENDMDL
MODEL 9
REMARK VINA RESULT:      -9.4      1.627      2.187
REMARK  Name = 10114365
REMARK  11 active torsions:
REMARK  status: ('A' for Active; 'I' for Inactive)
REMARK    1  A    between atoms: C_3  and  N_9
REMARK    2  A    between atoms: C_4  and  C_21
REMARK    3  A    between atoms: N_9  and  C_11
REMARK    4  A    between atoms: C_11  and  C_14
REMARK    5  A    between atoms: C_14  and  C_15
REMARK    6  A    between atoms: C_21  and  C_24
REMARK    7  A    between atoms: N_23  and  C_26
REMARK    8  A    between atoms: C_26  and  C_27
REMARK    9  A    between atoms: C_27  and  O_28
REMARK   10  A    between atoms: O_28  and  N_29
REMARK   11  A    between atoms: N_29  and  C_32
REMARK                            x       y       z     vdW  Elec       q    Type
REMARK                         _______ _______ _______ _____ _____    ______ ____
ROOT
ATOM      1 CL   UNL     1      33.372 -12.158 -26.680  0.00  0.00    -0.082 Cl
ATOM      2  F   UNL     1      34.279 -13.697 -21.908  0.00  0.00    -0.203 F 
ATOM      3  C   UNL     1      33.787 -15.360 -23.523  0.00  0.00    +0.072 C 
ATOM      4  C   UNL     1      33.851 -13.025 -24.141  0.00  0.00    +0.026 C 
ATOM      5  C   UNL     1      33.977 -14.023 -23.174  0.00  0.00    +0.150 C 
ATOM      6  C   UNL     1      33.473 -15.699 -24.839  0.00  0.00    +0.017 C 
ATOM      7  C   UNL     1      33.536 -13.365 -25.456  0.00  0.00    +0.056 C 
ATOM      8  C   UNL     1      33.346 -14.702 -25.806  0.00  0.00    +0.012 C 
ENDROOT
BRANCH   3   9
ATOM      9  N   UNL     1      33.914 -16.371 -22.548  0.00  0.00    -0.326 N 
ATOM     10  H   UNL     1      33.099 -16.703 -22.106  0.00  0.00    +0.147 HD
BRANCH   9  11
ATOM     11  C   UNL     1      35.174 -16.935 -22.174  0.00  0.00    +0.159 C 
BRANCH  11  14
ATOM     12  F   UNL     1      36.550 -18.609 -23.078  0.00  0.00    -0.198 F 
ATOM     13  F   UNL     1      34.506 -18.499 -23.793  0.00  0.00    -0.198 F 
ATOM     14  C   UNL     1      35.269 -18.379 -22.667  0.00  0.00    +0.300 C 
BRANCH  14  15
ATOM     15  C   UNL     1      34.839 -19.344 -21.589  0.00  0.00    +0.039 C 
ATOM     16  C   UNL     1      35.798 -20.024 -20.838  0.00  0.00    +0.001 C 
ATOM     17  C   UNL     1      33.482 -19.557 -21.344  0.00  0.00    +0.001 C 
ATOM     18  C   UNL     1      35.401 -20.917 -19.841  0.00  0.00    -0.000 C 
ATOM     19  C   UNL     1      33.085 -20.450 -20.347  0.00  0.00    -0.000 C 
ATOM     20  C   UNL     1      34.044 -21.130 -19.597  0.00  0.00    -0.000 C 
ENDBRANCH  14  15
ENDBRANCH  11  14
ENDBRANCH   9  11
ENDBRANCH   3   9
BRANCH   4  21
ATOM     21  C   UNL     1      34.062 -11.593 -23.727  0.00  0.00    +0.114 C 
BRANCH  21  24
ATOM     22  O   UNL     1      32.403  -9.829 -23.789  0.00  0.00    -0.275 OA
ATOM     23  N   UNL     1      32.109 -11.603 -22.319  0.00  0.00    -0.302 N 
ATOM     24  C   UNL     1      32.783 -10.894 -23.308  0.00  0.00    +0.227 C 
ATOM     25  H   UNL     1      32.496 -12.449 -21.999  0.00  0.00    +0.150 HD
BRANCH  23  26
ATOM     26  C   UNL     1      30.870 -11.152 -21.744  0.00  0.00    +0.125 C 
BRANCH  26  27
ATOM     27  C   UNL     1      30.912 -11.191 -20.227  0.00  0.00    +0.197 C 
BRANCH  27  28
ATOM     28  O   UNL     1      31.181  -9.890 -19.730  0.00  0.00    -0.232 OA
BRANCH  28  29
ATOM     29  N   UNL     1      32.411  -9.468 -20.258  0.00  0.00    -0.096 NA
BRANCH  29  32
ATOM     30  N   UNL     1      31.914  -7.563 -21.622  0.00  0.00    -0.368 N 
ATOM     31  N   UNL     1      32.853  -7.285 -19.556  0.00  0.00    -0.368 N 
ATOM     32  C   UNL     1      32.385  -8.181 -20.486  0.00  0.00    +0.217 C 
ATOM     33  H   UNL     1      31.552  -8.102 -22.362  0.00  0.00    +0.159 HD
ATOM     34  H   UNL     1      31.939  -6.581 -21.695  0.00  0.00    +0.159 HD
ATOM     35  H   UNL     1      33.216  -7.609 -18.700  0.00  0.00    +0.159 HD
ATOM     36  H   UNL     1      32.825  -6.320 -19.745  0.00  0.00    +0.159 HD
ENDBRANCH  29  32
ENDBRANCH  28  29
ENDBRANCH  27  28
ENDBRANCH  26  27
ENDBRANCH  23  26
ENDBRANCH  21  24
ENDBRANCH   4  21
TORSDOF 11
ENDMDL
