MODEL 1
REMARK VINA RESULT:      -8.9      0.000      0.000
REMARK  Name = 4369432
REMARK  5 active torsions:
REMARK  status: ('A' for Active; 'I' for Inactive)
REMARK    1  A    between atoms: C_5  and  C_10
REMARK    2  A    between atoms: C_7  and  C_16
REMARK    3  A    between atoms: N_22  and  C_24
REMARK    4  A    between atoms: C_24  and  C_25
REMARK    5  A    between atoms: C_25  and  O_26
REMARK                            x       y       z     vdW  Elec       q    Type
REMARK                         _______ _______ _______ _____ _____    ______ ____
ROOT
ATOM      1  O   UNL     1      32.340 -13.659 -22.046  0.00  0.00    -0.440 OA
ATOM      2  N   UNL     1      31.172  -9.894 -21.160  0.00  0.00    -0.233 NA
ATOM      3  N   UNL     1      31.052 -12.261 -20.600  0.00  0.00    -0.214 NA
ATOM      4  C   UNL     1      32.384 -11.447 -22.481  0.00  0.00    +0.155 C 
ATOM      5  C   UNL     1      33.198 -12.108 -23.432  0.00  0.00    +0.028 C 
ATOM      6  C   UNL     1      32.000 -10.137 -22.202  0.00  0.00    +0.118 C 
ATOM      7  C   UNL     1      33.137 -13.447 -23.124  0.00  0.00    +0.144 C 
ATOM      8  C   UNL     1      31.877 -12.440 -21.648  0.00  0.00    +0.214 C 
ATOM      9  C   UNL     1      30.756 -10.956 -20.434  0.00  0.00    +0.254 C 
ATOM     10  N   UNL     1      32.460  -9.064 -22.986  0.00  0.00    -0.292 N 
ATOM     11  C   UNL     1      31.713  -8.630 -24.153  0.00  0.00    +0.113 C 
ENDROOT
BRANCH   5  12
ATOM     12  C   UNL     1      33.965 -11.582 -24.526  0.00  0.00    -0.000 C 
ATOM     13  C   UNL     1      34.920 -10.591 -24.297  0.00  0.00    -0.000 C 
ATOM     14  C   UNL     1      33.756 -12.062 -25.819  0.00  0.00    -0.000 C 
ATOM     15  C   UNL     1      35.665 -10.081 -25.360  0.00  0.00    -0.000 C 
ATOM     16  C   UNL     1      34.501 -11.552 -26.882  0.00  0.00    -0.000 C 
ATOM     17  C   UNL     1      35.455 -10.561 -26.653  0.00  0.00    -0.000 C 
ENDBRANCH   5  12
BRANCH   7  18
ATOM     18  C   UNL     1      33.719 -14.638 -23.684  0.00  0.00    +0.034 C 
ATOM     19  C   UNL     1      34.660 -15.370 -22.954  0.00  0.00    +0.003 C 
ATOM     20  C   UNL     1      33.345 -15.070 -24.959  0.00  0.00    +0.003 C 
ATOM     21  C   UNL     1      35.223 -16.525 -23.496  0.00  0.00    +0.000 C 
ATOM     22  C   UNL     1      33.908 -16.226 -25.500  0.00  0.00    +0.000 C 
ATOM     23  C   UNL     1      34.847 -16.953 -24.770  0.00  0.00    +0.000 C 
ENDBRANCH   7  18
BRANCH  10  24
ATOM     24  C   UNL     1      33.681  -8.363 -22.634  0.00  0.00    +0.124 C 
BRANCH  24  25
ATOM     25  C   UNL     1      33.368  -7.216 -21.689  0.00  0.00    +0.159 C 
BRANCH  25  26
ATOM     26  O   UNL     1      33.245  -7.715 -20.363  0.00  0.00    -0.380 OA
ATOM     27  H   UNL     1      32.514  -8.351 -20.325  0.00  0.00    +0.211 HD
ENDBRANCH  25  26
ENDBRANCH  24  25
ENDBRANCH  10  24
TORSDOF 5
ENDMDL
MODEL 2
REMARK VINA RESULT:      -8.0      1.912      5.771
REMARK  Name = 4369432
REMARK  5 active torsions:
REMARK  status: ('A' for Active; 'I' for Inactive)
REMARK    1  A    between atoms: C_5  and  C_10
REMARK    2  A    between atoms: C_7  and  C_16
REMARK    3  A    between atoms: N_22  and  C_24
REMARK    4  A    between atoms: C_24  and  C_25
REMARK    5  A    between atoms: C_25  and  O_26
REMARK                            x       y       z     vdW  Elec       q    Type
REMARK                         _______ _______ _______ _____ _____    ______ ____
ROOT
ATOM      1  O   UNL     1      31.876  -9.784 -22.076  0.00  0.00    -0.440 OA
ATOM      2  N   UNL     1      32.181 -13.754 -21.388  0.00  0.00    -0.233 NA
ATOM      3  N   UNL     1      31.331 -11.602 -20.628  0.00  0.00    -0.214 NA
ATOM      4  C   UNL     1      32.619 -11.822 -22.692  0.00  0.00    +0.155 C 
ATOM      5  C   UNL     1      33.035 -10.880 -23.664  0.00  0.00    +0.028 C 
ATOM      6  C   UNL     1      32.743 -13.194 -22.485  0.00  0.00    +0.118 C 
ATOM      7  C   UNL     1      32.559  -9.660 -23.243  0.00  0.00    +0.144 C 
ATOM      8  C   UNL     1      31.910 -11.103 -21.735  0.00  0.00    +0.214 C 
ATOM      9  C   UNL     1      31.519 -12.934 -20.540  0.00  0.00    +0.254 C 
ATOM     10  N   UNL     1      33.441 -14.006 -23.396  0.00  0.00    -0.292 N 
ATOM     11  C   UNL     1      34.864 -14.240 -23.235  0.00  0.00    +0.113 C 
ENDROOT
BRANCH   5  12
ATOM     12  C   UNL     1      33.796 -11.059 -24.868  0.00  0.00    -0.000 C 
ATOM     13  C   UNL     1      35.008 -10.386 -25.035  0.00  0.00    -0.000 C 
ATOM     14  C   UNL     1      33.326 -11.904 -25.873  0.00  0.00    -0.000 C 
ATOM     15  C   UNL     1      35.748 -10.559 -26.205  0.00  0.00    -0.000 C 
ATOM     16  C   UNL     1      34.065 -12.078 -27.042  0.00  0.00    -0.000 C 
ATOM     17  C   UNL     1      35.276 -11.405 -27.209  0.00  0.00    -0.000 C 
ENDBRANCH   5  12
BRANCH   7  18
ATOM     18  C   UNL     1      32.628  -8.318 -23.758  0.00  0.00    +0.034 C 
ATOM     19  C   UNL     1      33.868  -7.705 -23.958  0.00  0.00    +0.003 C 
ATOM     20  C   UNL     1      31.455  -7.622 -24.064  0.00  0.00    +0.003 C 
ATOM     21  C   UNL     1      33.934  -6.405 -24.458  0.00  0.00    +0.000 C 
ATOM     22  C   UNL     1      31.522  -6.323 -24.565  0.00  0.00    +0.000 C 
ATOM     23  C   UNL     1      32.761  -5.713 -24.762  0.00  0.00    +0.000 C 
ENDBRANCH   7  18
BRANCH  10  24
ATOM     24  C   UNL     1      32.748 -14.635 -24.505  0.00  0.00    +0.124 C 
BRANCH  24  25
ATOM     25  C   UNL     1      33.679 -15.598 -25.221  0.00  0.00    +0.159 C 
BRANCH  25  26
ATOM     26  O   UNL     1      33.350 -15.634 -26.604  0.00  0.00    -0.380 OA
ATOM     27  H   UNL     1      32.622 -15.017 -26.779  0.00  0.00    +0.211 HD
ENDBRANCH  25  26
ENDBRANCH  24  25
ENDBRANCH  10  24
TORSDOF 5
ENDMDL
MODEL 3
REMARK VINA RESULT:      -7.9     12.974     15.526
REMARK  Name = 4369432
REMARK  5 active torsions:
REMARK  status: ('A' for Active; 'I' for Inactive)
REMARK    1  A    between atoms: C_5  and  C_10
REMARK    2  A    between atoms: C_7  and  C_16
REMARK    3  A    between atoms: N_22  and  C_24
REMARK    4  A    between atoms: C_24  and  C_25
REMARK    5  A    between atoms: C_25  and  O_26
REMARK                            x       y       z     vdW  Elec       q    Type
REMARK                         _______ _______ _______ _____ _____    ______ ____
ROOT
ATOM      1  O   UNL     1      33.086 -24.393 -12.800  0.00  0.00    -0.440 OA
ATOM      2  N   UNL     1      37.100 -24.335 -12.341  0.00  0.00    -0.233 NA
ATOM      3  N   UNL     1      34.927 -24.760 -11.325  0.00  0.00    -0.214 NA
ATOM      4  C   UNL     1      35.144 -24.027 -13.646  0.00  0.00    +0.155 C 
ATOM      5  C   UNL     1      34.189 -23.761 -14.657  0.00  0.00    +0.028 C 
ATOM      6  C   UNL     1      36.530 -23.996 -13.521  0.00  0.00    +0.118 C 
ATOM      7  C   UNL     1      32.957 -23.998 -14.093  0.00  0.00    +0.144 C 
ATOM      8  C   UNL     1      34.420 -24.413 -12.522  0.00  0.00    +0.214 C 
ATOM      9  C   UNL     1      36.274 -24.691 -11.330  0.00  0.00    +0.254 C 
ATOM     10  N   UNL     1      37.349 -23.620 -14.600  0.00  0.00    -0.292 N 
ATOM     11  C   UNL     1      37.718 -22.230 -14.796  0.00  0.00    +0.113 C 
ENDROOT
BRANCH   5  12
ATOM     12  C   UNL     1      34.366 -23.329 -16.015  0.00  0.00    -0.000 C 
ATOM     13  C   UNL     1      35.411 -22.464 -16.342  0.00  0.00    -0.000 C 
ATOM     14  C   UNL     1      33.494 -23.774 -17.008  0.00  0.00    -0.000 C 
ATOM     15  C   UNL     1      35.584 -22.044 -17.661  0.00  0.00    -0.000 C 
ATOM     16  C   UNL     1      33.666 -23.354 -18.327  0.00  0.00    -0.000 C 
ATOM     17  C   UNL     1      34.710 -22.490 -18.654  0.00  0.00    -0.000 C 
ENDBRANCH   5  12
BRANCH   7  18
ATOM     18  C   UNL     1      31.600 -23.919 -14.564  0.00  0.00    +0.034 C 
ATOM     19  C   UNL     1      30.854 -25.085 -14.756  0.00  0.00    +0.003 C 
ATOM     20  C   UNL     1      31.020 -22.675 -14.830  0.00  0.00    +0.003 C 
ATOM     21  C   UNL     1      29.538 -25.008 -15.211  0.00  0.00    +0.000 C 
ATOM     22  C   UNL     1      29.704 -22.599 -15.285  0.00  0.00    +0.000 C 
ATOM     23  C   UNL     1      28.963 -23.765 -15.476  0.00  0.00    +0.000 C 
ENDBRANCH   7  18
BRANCH  10  24
ATOM     24  C   UNL     1      37.849 -24.616 -15.529  0.00  0.00    +0.124 C 
BRANCH  24  25
ATOM     25  C   UNL     1      38.994 -25.388 -14.896  0.00  0.00    +0.159 C 
BRANCH  25  26
ATOM     26  O   UNL     1      39.966 -25.691 -15.888  0.00  0.00    -0.380 OA
ATOM     27  H   UNL     1      39.891 -26.625 -16.139  0.00  0.00    +0.211 HD
ENDBRANCH  25  26
ENDBRANCH  24  25
ENDBRANCH  10  24
TORSDOF 5
ENDMDL
MODEL 4
REMARK VINA RESULT:      -7.6      4.569      7.799
REMARK  Name = 4369432
REMARK  5 active torsions:
REMARK  status: ('A' for Active; 'I' for Inactive)
REMARK    1  A    between atoms: C_5  and  C_10
REMARK    2  A    between atoms: C_7  and  C_16
REMARK    3  A    between atoms: N_22  and  C_24
REMARK    4  A    between atoms: C_24  and  C_25
REMARK    5  A    between atoms: C_25  and  O_26
REMARK                            x       y       z     vdW  Elec       q    Type
REMARK                         _______ _______ _______ _____ _____    ______ ____
ROOT
ATOM      1  O   UNL     1      34.284 -16.758 -25.805  0.00  0.00    -0.440 OA
ATOM      2  N   UNL     1      34.928 -20.095 -23.618  0.00  0.00    -0.233 NA
ATOM      3  N   UNL     1      34.815 -19.086 -25.833  0.00  0.00    -0.214 NA
ATOM      4  C   UNL     1      34.412 -17.787 -23.802  0.00  0.00    +0.155 C 
ATOM      5  C   UNL     1      34.091 -16.425 -23.588  0.00  0.00    +0.028 C 
ATOM      6  C   UNL     1      34.628 -18.919 -23.020  0.00  0.00    +0.118 C 
ATOM      7  C   UNL     1      34.025 -15.845 -24.834  0.00  0.00    +0.144 C 
ATOM      8  C   UNL     1      34.521 -17.947 -25.180  0.00  0.00    +0.214 C 
ATOM      9  C   UNL     1      35.002 -20.105 -24.969  0.00  0.00    +0.254 C 
ATOM     10  N   UNL     1      34.540 -18.859 -21.617  0.00  0.00    -0.292 N 
ATOM     11  C   UNL     1      33.277 -19.104 -20.946  0.00  0.00    +0.113 C 
ENDROOT
BRANCH   5  12
ATOM     12  C   UNL     1      33.861 -15.704 -22.368  0.00  0.00    -0.000 C 
ATOM     13  C   UNL     1      32.557 -15.436 -21.949  0.00  0.00    -0.000 C 
ATOM     14  C   UNL     1      34.941 -15.269 -21.600  0.00  0.00    -0.000 C 
ATOM     15  C   UNL     1      32.334 -14.736 -20.764  0.00  0.00    -0.000 C 
ATOM     16  C   UNL     1      34.718 -14.568 -20.415  0.00  0.00    -0.000 C 
ATOM     17  C   UNL     1      33.415 -14.301 -19.997  0.00  0.00    -0.000 C 
ENDBRANCH   5  12
BRANCH   7  18
ATOM     18  C   UNL     1      33.748 -14.519 -25.315  0.00  0.00    +0.034 C 
ATOM     19  C   UNL     1      33.956 -13.413 -24.487  0.00  0.00    +0.003 C 
ATOM     20  C   UNL     1      33.271 -14.329 -26.616  0.00  0.00    +0.003 C 
ATOM     21  C   UNL     1      33.688 -12.126 -24.955  0.00  0.00    +0.000 C 
ATOM     22  C   UNL     1      33.004 -13.042 -27.083  0.00  0.00    +0.000 C 
ATOM     23  C   UNL     1      33.212 -11.941 -26.253  0.00  0.00    +0.000 C 
ENDBRANCH   7  18
BRANCH  10  24
ATOM     24  C   UNL     1      35.714 -18.564 -20.817  0.00  0.00    +0.124 C 
BRANCH  24  25
ATOM     25  C   UNL     1      36.559 -19.816 -20.652  0.00  0.00    +0.159 C 
BRANCH  25  26
ATOM     26  O   UNL     1      36.342 -20.367 -19.359  0.00  0.00    -0.380 OA
ATOM     27  H   UNL     1      37.175 -20.728 -19.018  0.00  0.00    +0.211 HD
ENDBRANCH  25  26
ENDBRANCH  24  25
ENDBRANCH  10  24
TORSDOF 5
ENDMDL
MODEL 5
REMARK VINA RESULT:      -7.2      2.395      4.685
REMARK  Name = 4369432
REMARK  5 active torsions:
REMARK  status: ('A' for Active; 'I' for Inactive)
REMARK    1  A    between atoms: C_5  and  C_10
REMARK    2  A    between atoms: C_7  and  C_16
REMARK    3  A    between atoms: N_22  and  C_24
REMARK    4  A    between atoms: C_24  and  C_25
REMARK    5  A    between atoms: C_25  and  O_26
REMARK                            x       y       z     vdW  Elec       q    Type
REMARK                         _______ _______ _______ _____ _____    ______ ____
ROOT
ATOM      1  O   UNL     1      34.350 -10.271 -24.685  0.00  0.00    -0.440 OA
ATOM      2  N   UNL     1      33.712  -6.363 -23.880  0.00  0.00    -0.233 NA
ATOM      3  N   UNL     1      34.813  -8.011 -25.297  0.00  0.00    -0.214 NA
ATOM      4  C   UNL     1      33.377  -8.668 -23.432  0.00  0.00    +0.155 C 
ATOM      5  C   UNL     1      32.990  -9.931 -22.924  0.00  0.00    +0.028 C 
ATOM      6  C   UNL     1      33.137  -7.330 -23.128  0.00  0.00    +0.118 C 
ATOM      7  C   UNL     1      33.607 -10.870 -23.718  0.00  0.00    +0.144 C 
ATOM      8  C   UNL     1      34.213  -8.926 -24.514  0.00  0.00    +0.214 C 
ATOM      9  C   UNL     1      34.503  -6.758 -24.903  0.00  0.00    +0.254 C 
ATOM     10  N   UNL     1      32.306  -6.968 -22.053  0.00  0.00    -0.292 N 
ATOM     11  C   UNL     1      32.860  -6.774 -20.725  0.00  0.00    +0.113 C 
ENDROOT
BRANCH   5  12
ATOM     12  C   UNL     1      32.139 -10.269 -21.818  0.00  0.00    -0.000 C 
ATOM     13  C   UNL     1      32.480  -9.867 -20.525  0.00  0.00    -0.000 C 
ATOM     14  C   UNL     1      30.971 -11.000 -22.034  0.00  0.00    -0.000 C 
ATOM     15  C   UNL     1      31.653 -10.195 -19.451  0.00  0.00    -0.000 C 
ATOM     16  C   UNL     1      30.144 -11.328 -20.959  0.00  0.00    -0.000 C 
ATOM     17  C   UNL     1      30.485 -10.926 -19.668  0.00  0.00    -0.000 C 
ENDBRANCH   5  12
BRANCH   7  18
ATOM     18  C   UNL     1      33.634 -12.308 -23.745  0.00  0.00    +0.034 C 
ATOM     19  C   UNL     1      33.314 -12.995 -24.919  0.00  0.00    +0.003 C 
ATOM     20  C   UNL     1      33.982 -13.025 -22.597  0.00  0.00    +0.003 C 
ATOM     21  C   UNL     1      33.342 -14.389 -24.944  0.00  0.00    +0.000 C 
ATOM     22  C   UNL     1      34.011 -14.419 -22.623  0.00  0.00    +0.000 C 
ATOM     23  C   UNL     1      33.690 -15.101 -23.797  0.00  0.00    +0.000 C 
ENDBRANCH   7  18
BRANCH  10  24
ATOM     24  C   UNL     1      30.883  -6.768 -22.255  0.00  0.00    +0.124 C 
BRANCH  24  25
ATOM     25  C   UNL     1      30.546  -5.290 -22.158  0.00  0.00    +0.159 C 
BRANCH  25  26
ATOM     26  O   UNL     1      30.830  -4.657 -23.399  0.00  0.00    -0.380 OA
ATOM     27  H   UNL     1      30.816  -5.318 -24.109  0.00  0.00    +0.211 HD
ENDBRANCH  25  26
ENDBRANCH  24  25
ENDBRANCH  10  24
TORSDOF 5
ENDMDL
MODEL 6
REMARK VINA RESULT:      -7.1      2.705      5.103
REMARK  Name = 4369432
REMARK  5 active torsions:
REMARK  status: ('A' for Active; 'I' for Inactive)
REMARK    1  A    between atoms: C_5  and  C_10
REMARK    2  A    between atoms: C_7  and  C_16
REMARK    3  A    between atoms: N_22  and  C_24
REMARK    4  A    between atoms: C_24  and  C_25
REMARK    5  A    between atoms: C_25  and  O_26
REMARK                            x       y       z     vdW  Elec       q    Type
REMARK                         _______ _______ _______ _____ _____    ______ ____
ROOT
ATOM      1  O   UNL     1      34.163 -15.962 -26.096  0.00  0.00    -0.440 OA
ATOM      2  N   UNL     1      33.069 -12.075 -26.239  0.00  0.00    -0.233 NA
ATOM      3  N   UNL     1      33.697 -14.074 -27.481  0.00  0.00    -0.214 NA
ATOM      4  C   UNL     1      33.572 -14.059 -25.040  0.00  0.00    +0.155 C 
ATOM      5  C   UNL     1      33.806 -15.058 -24.066  0.00  0.00    +0.028 C 
ATOM      6  C   UNL     1      33.194 -12.718 -25.055  0.00  0.00    +0.118 C 
ATOM      7  C   UNL     1      34.162 -16.193 -24.757  0.00  0.00    +0.144 C 
ATOM      8  C   UNL     1      33.803 -14.659 -26.274  0.00  0.00    +0.214 C 
ATOM      9  C   UNL     1      33.325 -12.783 -27.362  0.00  0.00    +0.254 C 
ATOM     10  N   UNL     1      32.937 -12.024 -23.859  0.00  0.00    -0.292 N 
ATOM     11  C   UNL     1      34.004 -11.319 -23.173  0.00  0.00    +0.113 C 
ENDROOT
BRANCH   5  12
ATOM     12  C   UNL     1      33.720 -15.001 -22.633  0.00  0.00    -0.000 C 
ATOM     13  C   UNL     1      32.513 -15.291 -21.994  0.00  0.00    -0.000 C 
ATOM     14  C   UNL     1      34.841 -14.654 -21.880  0.00  0.00    -0.000 C 
ATOM     15  C   UNL     1      32.429 -15.235 -20.603  0.00  0.00    -0.000 C 
ATOM     16  C   UNL     1      34.757 -14.599 -20.489  0.00  0.00    -0.000 C 
ATOM     17  C   UNL     1      33.551 -14.889 -19.850  0.00  0.00    -0.000 C 
ENDBRANCH   5  12
BRANCH   7  18
ATOM     18  C   UNL     1      34.523 -17.533 -24.379  0.00  0.00    +0.034 C 
ATOM     19  C   UNL     1      34.244 -18.603 -25.234  0.00  0.00    +0.003 C 
ATOM     20  C   UNL     1      35.157 -17.771 -23.156  0.00  0.00    +0.003 C 
ATOM     21  C   UNL     1      34.596 -19.902 -24.867  0.00  0.00    +0.000 C 
ATOM     22  C   UNL     1      35.509 -19.070 -22.791  0.00  0.00    +0.000 C 
ATOM     23  C   UNL     1      35.228 -20.136 -23.646  0.00  0.00    +0.000 C 
ENDBRANCH   7  18
BRANCH  10  24
ATOM     24  C   UNL     1      31.599 -11.987 -23.299  0.00  0.00    +0.124 C 
BRANCH  24  25
ATOM     25  C   UNL     1      31.666 -11.703 -21.809  0.00  0.00    +0.159 C 
BRANCH  25  26
ATOM     26  O   UNL     1      30.351 -11.513 -21.303  0.00  0.00    -0.380 OA
ATOM     27  H   UNL     1      30.365 -11.581 -20.335  0.00  0.00    +0.211 HD
ENDBRANCH  25  26
ENDBRANCH  24  25
ENDBRANCH  10  24
TORSDOF 5
ENDMDL
MODEL 7
REMARK VINA RESULT:      -6.9     10.956     14.434
REMARK  Name = 4369432
REMARK  5 active torsions:
REMARK  status: ('A' for Active; 'I' for Inactive)
REMARK    1  A    between atoms: C_5  and  C_10
REMARK    2  A    between atoms: C_7  and  C_16
REMARK    3  A    between atoms: N_22  and  C_24
REMARK    4  A    between atoms: C_24  and  C_25
REMARK    5  A    between atoms: C_25  and  O_26
REMARK                            x       y       z     vdW  Elec       q    Type
REMARK                         _______ _______ _______ _____ _____    ______ ____
ROOT
ATOM      1  O   UNL     1      32.232 -23.060 -17.109  0.00  0.00    -0.440 OA
ATOM      2  N   UNL     1      32.413 -24.887 -13.509  0.00  0.00    -0.233 NA
ATOM      3  N   UNL     1      31.024 -24.183 -15.383  0.00  0.00    -0.214 NA
ATOM      4  C   UNL     1      33.428 -23.752 -15.328  0.00  0.00    +0.155 C 
ATOM      5  C   UNL     1      34.306 -23.115 -16.237  0.00  0.00    +0.028 C 
ATOM      6  C   UNL     1      33.525 -24.376 -14.086  0.00  0.00    +0.118 C 
ATOM      7  C   UNL     1      33.531 -22.714 -17.301  0.00  0.00    +0.144 C 
ATOM      8  C   UNL     1      32.164 -23.696 -15.905  0.00  0.00    +0.214 C 
ATOM      9  C   UNL     1      31.247 -24.761 -14.185  0.00  0.00    +0.254 C 
ATOM     10  N   UNL     1      34.760 -24.484 -13.422  0.00  0.00    -0.292 N 
ATOM     11  C   UNL     1      35.199 -23.445 -12.508  0.00  0.00    +0.113 C 
ENDROOT
BRANCH   5  12
ATOM     12  C   UNL     1      35.721 -22.884 -16.160  0.00  0.00    -0.000 C 
ATOM     13  C   UNL     1      36.583 -23.931 -15.827  0.00  0.00    -0.000 C 
ATOM     14  C   UNL     1      36.236 -21.614 -16.418  0.00  0.00    -0.000 C 
ATOM     15  C   UNL     1      37.957 -23.706 -15.752  0.00  0.00    -0.000 C 
ATOM     16  C   UNL     1      37.610 -21.390 -16.343  0.00  0.00    -0.000 C 
ATOM     17  C   UNL     1      38.471 -22.435 -16.009  0.00  0.00    -0.000 C 
ENDBRANCH   5  12
BRANCH   7  18
ATOM     18  C   UNL     1      33.792 -22.024 -18.536  0.00  0.00    +0.034 C 
ATOM     19  C   UNL     1      32.789 -21.261 -19.140  0.00  0.00    +0.003 C 
ATOM     20  C   UNL     1      35.050 -22.113 -19.137  0.00  0.00    +0.003 C 
ATOM     21  C   UNL     1      33.043 -20.592 -20.337  0.00  0.00    +0.000 C 
ATOM     22  C   UNL     1      35.304 -21.443 -20.334  0.00  0.00    +0.000 C 
ATOM     23  C   UNL     1      34.300 -20.683 -20.934  0.00  0.00    +0.000 C 
ENDBRANCH   7  18
BRANCH  10  24
ATOM     24  C   UNL     1      35.610 -25.641 -13.628  0.00  0.00    +0.124 C 
BRANCH  24  25
ATOM     25  C   UNL     1      36.867 -25.521 -12.784  0.00  0.00    +0.159 C 
BRANCH  25  26
ATOM     26  O   UNL     1      36.854 -26.520 -11.772  0.00  0.00    -0.380 OA
ATOM     27  H   UNL     1      37.199 -27.351 -12.134  0.00  0.00    +0.211 HD
ENDBRANCH  25  26
ENDBRANCH  24  25
ENDBRANCH  10  24
TORSDOF 5
ENDMDL
MODEL 8
REMARK VINA RESULT:      -6.8     10.983     14.588
REMARK  Name = 4369432
REMARK  5 active torsions:
REMARK  status: ('A' for Active; 'I' for Inactive)
REMARK    1  A    between atoms: C_5  and  C_10
REMARK    2  A    between atoms: C_7  and  C_16
REMARK    3  A    between atoms: N_22  and  C_24
REMARK    4  A    between atoms: C_24  and  C_25
REMARK    5  A    between atoms: C_25  and  O_26
REMARK                            x       y       z     vdW  Elec       q    Type
REMARK                         _______ _______ _______ _____ _____    ______ ____
ROOT
ATOM      1  O   UNL     1      37.173 -22.291 -17.524  0.00  0.00    -0.440 OA
ATOM      2  N   UNL     1      37.972 -24.389 -14.164  0.00  0.00    -0.233 NA
ATOM      3  N   UNL     1      38.858 -23.196 -16.094  0.00  0.00    -0.214 NA
ATOM      4  C   UNL     1      36.455 -23.416 -15.707  0.00  0.00    +0.155 C 
ATOM      5  C   UNL     1      35.325 -22.958 -16.426  0.00  0.00    +0.028 C 
ATOM      6  C   UNL     1      36.696 -24.143 -14.543  0.00  0.00    +0.118 C 
ATOM      7  C   UNL     1      35.815 -22.282 -17.520  0.00  0.00    +0.144 C 
ATOM      8  C   UNL     1      37.570 -22.983 -16.418  0.00  0.00    +0.214 C 
ATOM      9  C   UNL     1      38.959 -23.907 -14.952  0.00  0.00    +0.254 C 
ATOM     10  N   UNL     1      35.635 -24.624 -13.755  0.00  0.00    -0.292 N 
ATOM     11  C   UNL     1      35.070 -25.938 -14.003  0.00  0.00    +0.113 C 
ENDROOT
BRANCH   5  12
ATOM     12  C   UNL     1      33.924 -23.114 -16.157  0.00  0.00    -0.000 C 
ATOM     13  C   UNL     1      33.383 -22.633 -14.964  0.00  0.00    -0.000 C 
ATOM     14  C   UNL     1      33.101 -23.748 -17.088  0.00  0.00    -0.000 C 
ATOM     15  C   UNL     1      32.021 -22.785 -14.703  0.00  0.00    -0.000 C 
ATOM     16  C   UNL     1      31.739 -23.899 -16.827  0.00  0.00    -0.000 C 
ATOM     17  C   UNL     1      31.199 -23.419 -15.635  0.00  0.00    -0.000 C 
ENDBRANCH   5  12
BRANCH   7  18
ATOM     18  C   UNL     1      35.216 -21.588 -18.628  0.00  0.00    +0.034 C 
ATOM     19  C   UNL     1      33.835 -21.648 -18.831  0.00  0.00    +0.003 C 
ATOM     20  C   UNL     1      36.013 -20.848 -19.506  0.00  0.00    +0.003 C 
ATOM     21  C   UNL     1      33.254 -20.974 -19.905  0.00  0.00    +0.000 C 
ATOM     22  C   UNL     1      35.431 -20.173 -20.580  0.00  0.00    +0.000 C 
ATOM     23  C   UNL     1      34.053 -20.236 -20.780  0.00  0.00    +0.000 C 
ENDBRANCH   7  18
BRANCH  10  24
ATOM     24  C   UNL     1      35.097 -23.822 -12.672  0.00  0.00    +0.124 C 
BRANCH  24  25
ATOM     25  C   UNL     1      35.893 -24.063 -11.401  0.00  0.00    +0.159 C 
BRANCH  25  26
ATOM     26  O   UNL     1      35.250 -25.063 -10.622  0.00  0.00    -0.380 OA
ATOM     27  H   UNL     1      35.915 -25.674 -10.269  0.00  0.00    +0.211 HD
ENDBRANCH  25  26
ENDBRANCH  24  25
ENDBRANCH  10  24
TORSDOF 5
ENDMDL
MODEL 9
REMARK VINA RESULT:      -6.8      1.968      3.947
REMARK  Name = 4369432
REMARK  5 active torsions:
REMARK  status: ('A' for Active; 'I' for Inactive)
REMARK    1  A    between atoms: C_5  and  C_10
REMARK    2  A    between atoms: C_7  and  C_16
REMARK    3  A    between atoms: N_22  and  C_24
REMARK    4  A    between atoms: C_24  and  C_25
REMARK    5  A    between atoms: C_25  and  O_26
REMARK                            x       y       z     vdW  Elec       q    Type
REMARK                         _______ _______ _______ _____ _____    ______ ____
ROOT
ATOM      1  O   UNL     1      33.927 -13.390 -23.551  0.00  0.00    -0.440 OA
ATOM      2  N   UNL     1      32.017 -13.534 -19.993  0.00  0.00    -0.233 NA
ATOM      3  N   UNL     1      33.282 -14.740 -21.690  0.00  0.00    -0.214 NA
ATOM      4  C   UNL     1      32.750 -12.366 -21.923  0.00  0.00    +0.155 C 
ATOM      5  C   UNL     1      33.040 -11.416 -22.932  0.00  0.00    +0.028 C 
ATOM      6  C   UNL     1      32.084 -12.382 -20.700  0.00  0.00    +0.118 C 
ATOM      7  C   UNL     1      33.755 -12.088 -23.896  0.00  0.00    +0.144 C 
ATOM      8  C   UNL     1      33.315 -13.565 -22.346  0.00  0.00    +0.214 C 
ATOM      9  C   UNL     1      32.612 -14.626 -20.525  0.00  0.00    +0.254 C 
ATOM     10  N   UNL     1      31.480 -11.220 -20.187  0.00  0.00    -0.292 N 
ATOM     11  C   UNL     1      30.098 -10.906 -20.502  0.00  0.00    +0.113 C 
ENDROOT
BRANCH   5  12
ATOM     12  C   UNL     1      32.703 -10.024 -23.024  0.00  0.00    -0.000 C 
ATOM     13  C   UNL     1      33.697  -9.053 -22.885  0.00  0.00    -0.000 C 
ATOM     14  C   UNL     1      31.382  -9.639 -23.253  0.00  0.00    -0.000 C 
ATOM     15  C   UNL     1      33.370  -7.701 -22.976  0.00  0.00    -0.000 C 
ATOM     16  C   UNL     1      31.055  -8.286 -23.343  0.00  0.00    -0.000 C 
ATOM     17  C   UNL     1      32.048  -7.317 -23.204  0.00  0.00    -0.000 C 
ENDBRANCH   5  12
BRANCH   7  18
ATOM     18  C   UNL     1      34.342 -11.718 -25.156  0.00  0.00    +0.034 C 
ATOM     19  C   UNL     1      35.209 -10.625 -25.234  0.00  0.00    +0.003 C 
ATOM     20  C   UNL     1      34.051 -12.453 -26.309  0.00  0.00    +0.003 C 
ATOM     21  C   UNL     1      35.779 -10.268 -26.456  0.00  0.00    +0.000 C 
ATOM     22  C   UNL     1      34.622 -12.096 -27.530  0.00  0.00    +0.000 C 
ATOM     23  C   UNL     1      35.485 -11.003 -27.604  0.00  0.00    +0.000 C 
ENDBRANCH   7  18
BRANCH  10  24
ATOM     24  C   UNL     1      32.224 -10.322 -19.322  0.00  0.00    +0.124 C 
BRANCH  24  25
ATOM     25  C   UNL     1      31.851  -8.881 -19.626  0.00  0.00    +0.159 C 
BRANCH  25  26
ATOM     26  O   UNL     1      33.020  -8.072 -19.588  0.00  0.00    -0.380 OA
ATOM     27  H   UNL     1      33.414  -8.034 -20.474  0.00  0.00    +0.211 HD
ENDBRANCH  25  26
ENDBRANCH  24  25
ENDBRANCH  10  24
TORSDOF 5
ENDMDL
