MODEL 1
REMARK VINA RESULT:      -7.1      0.000      0.000
REMARK  Name = 10367
REMARK  4 active torsions:
REMARK  status: ('A' for Active; 'I' for Inactive)
REMARK    1  A    between atoms: CA_2  and  C_8
REMARK    2  A    between atoms: CA_3  and  C_12
REMARK    3  A    between atoms: C_8  and  O_9
REMARK    4  A    between atoms: C_12  and  O_13
REMARK                            x       y       z     vdW  Elec       q    Type
REMARK                         _______ _______ _______ _____ _____    ______ ____
ROOT
ATOM      1  N   UNL     1      38.942 -24.856 -13.266  0.00  0.00    -0.393 NA
ATOM      2  CA  UNL     1      37.716 -24.507 -12.816  0.00  0.00    +0.206 C 
ATOM      3  CA  UNL     1      38.977 -25.722 -14.303  0.00  0.00    +0.188 C 
ATOM      4  C   UNL     1      36.529 -24.980 -13.354  0.00  0.00    +0.035 C 
ATOM      5  C   UNL     1      37.850 -26.253 -14.910  0.00  0.00    +0.092 C 
ATOM      6  C   UNL     1      36.606 -25.869 -14.420  0.00  0.00    -0.016 C 
ENDROOT
BRANCH   2   8
ATOM      7  OXT UNL     1      38.336 -22.521 -11.636  0.00  0.00    -0.242 OA
ATOM      8  C   UNL     1      37.695 -23.576 -11.701  0.00  0.00    +0.368 C 
BRANCH   8   9
ATOM      9  O   UNL     1      36.877 -23.986 -10.693  0.00  0.00    -0.475 OA
ATOM     10  H   UNL     1      37.029 -24.808 -10.270  0.00  0.00    +0.295 HD
ENDBRANCH   8   9
ENDBRANCH   2   8
BRANCH   3  12
ATOM     11  OXT UNL     1      41.215 -26.533 -14.060  0.00  0.00    -0.243 OA
ATOM     12  C   UNL     1      40.302 -26.093 -14.769  0.00  0.00    +0.364 C 
BRANCH  12  13
ATOM     13  O   UNL     1      40.456 -25.909 -16.109  0.00  0.00    -0.476 OA
ATOM     14  H   UNL     1      41.082 -26.420 -16.583  0.00  0.00    +0.295 HD
ENDBRANCH  12  13
ENDBRANCH   3  12
TORSDOF 4
ENDMDL
MODEL 2
REMARK VINA RESULT:      -7.1      0.118      4.221
REMARK  Name = 10367
REMARK  4 active torsions:
REMARK  status: ('A' for Active; 'I' for Inactive)
REMARK    1  A    between atoms: CA_2  and  C_8
REMARK    2  A    between atoms: CA_3  and  C_12
REMARK    3  A    between atoms: C_8  and  O_9
REMARK    4  A    between atoms: C_12  and  O_13
REMARK                            x       y       z     vdW  Elec       q    Type
REMARK                         _______ _______ _______ _____ _____    ______ ____
ROOT
ATOM      1  N   UNL     1      38.885 -24.900 -13.200  0.00  0.00    -0.393 NA
ATOM      2  CA  UNL     1      38.937 -25.700 -14.288  0.00  0.00    +0.206 C 
ATOM      3  CA  UNL     1      37.653 -24.570 -12.754  0.00  0.00    +0.188 C 
ATOM      4  C   UNL     1      37.818 -26.183 -14.948  0.00  0.00    +0.035 C 
ATOM      5  C   UNL     1      36.474 -25.000 -13.343  0.00  0.00    +0.092 C 
ATOM      6  C   UNL     1      36.567 -25.822 -14.460  0.00  0.00    -0.016 C 
ENDROOT
BRANCH   2   8
ATOM      7  OXT UNL     1      41.190 -26.465 -14.045  0.00  0.00    -0.242 OA
ATOM      8  C   UNL     1      40.268 -26.045 -14.755  0.00  0.00    +0.368 C 
BRANCH   8   9
ATOM      9  O   UNL     1      40.418 -25.858 -16.095  0.00  0.00    -0.475 OA
ATOM     10  H   UNL     1      40.876 -25.105 -16.414  0.00  0.00    +0.295 HD
ENDBRANCH   8   9
ENDBRANCH   2   8
BRANCH   3  12
ATOM     11  OXT UNL     1      36.875 -23.850 -10.609  0.00  0.00    -0.243 OA
ATOM     12  C   UNL     1      37.615 -23.704 -11.589  0.00  0.00    +0.364 C 
BRANCH  12  13
ATOM     13  O   UNL     1      38.504 -22.676 -11.672  0.00  0.00    -0.476 OA
ATOM     14  H   UNL     1      38.410 -21.928 -11.115  0.00  0.00    +0.295 HD
ENDBRANCH  12  13
ENDBRANCH   3  12
TORSDOF 4
ENDMDL
MODEL 3
REMARK VINA RESULT:      -6.8      2.046      2.565
REMARK  Name = 10367
REMARK  4 active torsions:
REMARK  status: ('A' for Active; 'I' for Inactive)
REMARK    1  A    between atoms: CA_2  and  C_8
REMARK    2  A    between atoms: CA_3  and  C_12
REMARK    3  A    between atoms: C_8  and  O_9
REMARK    4  A    between atoms: C_12  and  O_13
REMARK                            x       y       z     vdW  Elec       q    Type
REMARK                         _______ _______ _______ _____ _____    ______ ____
ROOT
ATOM      1  N   UNL     1      36.651 -25.526 -13.091  0.00  0.00    -0.393 NA
ATOM      2  CA  UNL     1      35.824 -24.653 -12.474  0.00  0.00    +0.206 C 
ATOM      3  CA  UNL     1      36.440 -25.725 -14.411  0.00  0.00    +0.188 C 
ATOM      4  C   UNL     1      34.800 -23.972 -13.114  0.00  0.00    +0.035 C 
ATOM      5  C   UNL     1      35.445 -25.095 -15.141  0.00  0.00    +0.092 C 
ATOM      6  C   UNL     1      34.613 -24.203 -14.472  0.00  0.00    -0.016 C 
ENDROOT
BRANCH   2   8
ATOM      7  OXT UNL     1      36.942 -23.724 -10.575  0.00  0.00    -0.242 OA
ATOM      8  C   UNL     1      36.064 -24.450 -11.056  0.00  0.00    +0.368 C 
BRANCH   8   9
ATOM      9  O   UNL     1      35.205 -25.158 -10.274  0.00  0.00    -0.475 OA
ATOM     10  H   UNL     1      35.245 -25.077  -9.341  0.00  0.00    +0.295 HD
ENDBRANCH   8   9
ENDBRANCH   2   8
BRANCH   3  12
ATOM     11  OXT UNL     1      38.450 -27.002 -14.641  0.00  0.00    -0.243 OA
ATOM     12  C   UNL     1      37.333 -26.672 -15.056  0.00  0.00    +0.364 C 
BRANCH  12  13
ATOM     13  O   UNL     1      36.809 -27.186 -16.202  0.00  0.00    -0.476 OA
ATOM     14  H   UNL     1      36.412 -28.035 -16.197  0.00  0.00    +0.295 HD
ENDBRANCH  12  13
ENDBRANCH   3  12
TORSDOF 4
ENDMDL
MODEL 4
REMARK VINA RESULT:      -6.8      8.162      9.641
REMARK  Name = 10367
REMARK  4 active torsions:
REMARK  status: ('A' for Active; 'I' for Inactive)
REMARK    1  A    between atoms: CA_2  and  C_8
REMARK    2  A    between atoms: CA_3  and  C_12
REMARK    3  A    between atoms: C_8  and  O_9
REMARK    4  A    between atoms: C_12  and  O_13
REMARK                            x       y       z     vdW  Elec       q    Type
REMARK                         _______ _______ _______ _____ _____    ______ ____
ROOT
ATOM      1  N   UNL     1      30.633 -22.878 -17.122  0.00  0.00    -0.393 NA
ATOM      2  CA  UNL     1      31.854 -23.036 -16.565  0.00  0.00    +0.206 C 
ATOM      3  CA  UNL     1      29.582 -22.863 -16.273  0.00  0.00    +0.188 C 
ATOM      4  C   UNL     1      32.072 -23.178 -15.204  0.00  0.00    +0.035 C 
ATOM      5  C   UNL     1      29.694 -22.998 -14.898  0.00  0.00    +0.092 C 
ATOM      6  C   UNL     1      30.967 -23.157 -14.361  0.00  0.00    -0.016 C 
ENDROOT
BRANCH   2   8
ATOM      7  OXT UNL     1      34.049 -23.631 -17.307  0.00  0.00    -0.242 OA
ATOM      8  C   UNL     1      32.973 -23.050 -17.491  0.00  0.00    +0.368 C 
BRANCH   8   9
ATOM      9  O   UNL     1      32.722 -22.339 -18.625  0.00  0.00    -0.475 OA
ATOM     10  H   UNL     1      33.303 -21.651 -18.884  0.00  0.00    +0.295 HD
ENDBRANCH   8   9
ENDBRANCH   2   8
BRANCH   3  12
ATOM     11  OXT UNL     1      27.622 -21.652 -16.917  0.00  0.00    -0.243 OA
ATOM     12  C   UNL     1      28.276 -22.700 -16.888  0.00  0.00    +0.364 C 
BRANCH  12  13
ATOM     13  O   UNL     1      27.819 -23.851 -17.455  0.00  0.00    -0.476 OA
ATOM     14  H   UNL     1      27.362 -23.821 -18.272  0.00  0.00    +0.295 HD
ENDBRANCH  12  13
ENDBRANCH   3  12
TORSDOF 4
ENDMDL
MODEL 5
REMARK VINA RESULT:      -6.8      8.163      9.010
REMARK  Name = 10367
REMARK  4 active torsions:
REMARK  status: ('A' for Active; 'I' for Inactive)
REMARK    1  A    between atoms: CA_2  and  C_8
REMARK    2  A    between atoms: CA_3  and  C_12
REMARK    3  A    between atoms: C_8  and  O_9
REMARK    4  A    between atoms: C_12  and  O_13
REMARK                            x       y       z     vdW  Elec       q    Type
REMARK                         _______ _______ _______ _____ _____    ______ ____
ROOT
ATOM      1  N   UNL     1      30.633 -22.885 -17.122  0.00  0.00    -0.393 NA
ATOM      2  CA  UNL     1      29.580 -22.867 -16.274  0.00  0.00    +0.206 C 
ATOM      3  CA  UNL     1      31.853 -23.039 -16.563  0.00  0.00    +0.188 C 
ATOM      4  C   UNL     1      29.692 -22.997 -14.899  0.00  0.00    +0.035 C 
ATOM      5  C   UNL     1      32.071 -23.176 -15.201  0.00  0.00    +0.092 C 
ATOM      6  C   UNL     1      30.963 -23.154 -14.360  0.00  0.00    -0.016 C 
ENDROOT
BRANCH   2   8
ATOM      7  OXT UNL     1      27.624 -21.650 -16.916  0.00  0.00    -0.242 OA
ATOM      8  C   UNL     1      28.276 -22.700 -16.891  0.00  0.00    +0.368 C 
BRANCH   8   9
ATOM      9  O   UNL     1      27.817 -23.848 -17.462  0.00  0.00    -0.475 OA
ATOM     10  H   UNL     1      27.582 -23.859 -18.369  0.00  0.00    +0.295 HD
ENDBRANCH   8   9
ENDBRANCH   2   8
BRANCH   3  12
ATOM     11  OXT UNL     1      34.054 -23.619 -17.299  0.00  0.00    -0.243 OA
ATOM     12  C   UNL     1      32.974 -23.048 -17.487  0.00  0.00    +0.364 C 
BRANCH  12  13
ATOM     13  O   UNL     1      32.719 -22.346 -18.625  0.00  0.00    -0.476 OA
ATOM     14  H   UNL     1      31.889 -22.432 -19.052  0.00  0.00    +0.295 HD
ENDBRANCH  12  13
ENDBRANCH   3  12
TORSDOF 4
ENDMDL
MODEL 6
REMARK VINA RESULT:      -6.8      2.065      4.843
REMARK  Name = 10367
REMARK  4 active torsions:
REMARK  status: ('A' for Active; 'I' for Inactive)
REMARK    1  A    between atoms: CA_2  and  C_8
REMARK    2  A    between atoms: CA_3  and  C_12
REMARK    3  A    between atoms: C_8  and  O_9
REMARK    4  A    between atoms: C_12  and  O_13
REMARK                            x       y       z     vdW  Elec       q    Type
REMARK                         _______ _______ _______ _____ _____    ______ ____
ROOT
ATOM      1  N   UNL     1      36.625 -25.543 -13.096  0.00  0.00    -0.393 NA
ATOM      2  CA  UNL     1      36.431 -25.722 -14.422  0.00  0.00    +0.206 C 
ATOM      3  CA  UNL     1      35.822 -24.641 -12.488  0.00  0.00    +0.188 C 
ATOM      4  C   UNL     1      35.476 -25.046 -15.164  0.00  0.00    +0.035 C 
ATOM      5  C   UNL     1      34.839 -23.914 -13.140  0.00  0.00    +0.092 C 
ATOM      6  C   UNL     1      34.669 -24.127 -14.504  0.00  0.00    -0.016 C 
ENDROOT
BRANCH   2   8
ATOM      7  OXT UNL     1      38.407 -27.053 -14.637  0.00  0.00    -0.242 OA
ATOM      8  C   UNL     1      37.302 -26.694 -15.060  0.00  0.00    +0.368 C 
BRANCH   8   9
ATOM      9  O   UNL     1      36.773 -27.193 -16.211  0.00  0.00    -0.475 OA
ATOM     10  H   UNL     1      36.663 -28.118 -16.313  0.00  0.00    +0.295 HD
ENDBRANCH   8   9
ENDBRANCH   2   8
BRANCH   3  12
ATOM     11  OXT UNL     1      36.910 -23.722 -10.566  0.00  0.00    -0.243 OA
ATOM     12  C   UNL     1      36.048 -24.455 -11.065  0.00  0.00    +0.364 C 
BRANCH  12  13
ATOM     13  O   UNL     1      35.193 -25.186 -10.299  0.00  0.00    -0.476 OA
ATOM     14  H   UNL     1      34.341 -24.850 -10.098  0.00  0.00    +0.295 HD
ENDBRANCH  12  13
ENDBRANCH   3  12
TORSDOF 4
ENDMDL
MODEL 7
REMARK VINA RESULT:      -6.6     13.001     13.701
REMARK  Name = 10367
REMARK  4 active torsions:
REMARK  status: ('A' for Active; 'I' for Inactive)
REMARK    1  A    between atoms: CA_2  and  C_8
REMARK    2  A    between atoms: CA_3  and  C_12
REMARK    3  A    between atoms: C_8  and  O_9
REMARK    4  A    between atoms: C_12  and  O_13
REMARK                            x       y       z     vdW  Elec       q    Type
REMARK                         _______ _______ _______ _____ _____    ______ ____
ROOT
ATOM      1  N   UNL     1      34.564 -16.643 -23.185  0.00  0.00    -0.393 NA
ATOM      2  CA  UNL     1      34.247 -16.834 -24.485  0.00  0.00    +0.206 C 
ATOM      3  CA  UNL     1      34.991 -17.730 -22.504  0.00  0.00    +0.188 C 
ATOM      4  C   UNL     1      34.337 -18.056 -25.133  0.00  0.00    +0.035 C 
ATOM      5  C   UNL     1      35.114 -18.994 -23.059  0.00  0.00    +0.092 C 
ATOM      6  C   UNL     1      34.780 -19.151 -24.400  0.00  0.00    -0.016 C 
ENDROOT
BRANCH   2   8
ATOM      7  OXT UNL     1      33.736 -15.543 -26.433  0.00  0.00    -0.242 OA
ATOM      8  C   UNL     1      33.791 -15.656 -25.203  0.00  0.00    +0.368 C 
BRANCH   8   9
ATOM      9  O   UNL     1      33.417 -14.648 -24.368  0.00  0.00    -0.475 OA
ATOM     10  H   UNL     1      33.817 -14.565 -23.525  0.00  0.00    +0.295 HD
ENDBRANCH   8   9
ENDBRANCH   2   8
BRANCH   3  12
ATOM     11  OXT UNL     1      35.083 -16.476 -20.469  0.00  0.00    -0.243 OA
ATOM     12  C   UNL     1      35.319 -17.509 -21.107  0.00  0.00    +0.364 C 
BRANCH  12  13
ATOM     13  O   UNL     1      35.933 -18.582 -20.538  0.00  0.00    -0.476 OA
ATOM     14  H   UNL     1      36.521 -18.459 -19.819  0.00  0.00    +0.295 HD
ENDBRANCH  12  13
ENDBRANCH   3  12
TORSDOF 4
ENDMDL
MODEL 8
REMARK VINA RESULT:      -6.6     12.983     13.580
REMARK  Name = 10367
REMARK  4 active torsions:
REMARK  status: ('A' for Active; 'I' for Inactive)
REMARK    1  A    between atoms: CA_2  and  C_8
REMARK    2  A    between atoms: CA_3  and  C_12
REMARK    3  A    between atoms: C_8  and  O_9
REMARK    4  A    between atoms: C_12  and  O_13
REMARK                            x       y       z     vdW  Elec       q    Type
REMARK                         _______ _______ _______ _____ _____    ______ ____
ROOT
ATOM      1  N   UNL     1      34.577 -16.654 -23.175  0.00  0.00    -0.393 NA
ATOM      2  CA  UNL     1      34.995 -17.744 -22.493  0.00  0.00    +0.206 C 
ATOM      3  CA  UNL     1      34.262 -16.844 -24.476  0.00  0.00    +0.188 C 
ATOM      4  C   UNL     1      35.112 -19.008 -23.048  0.00  0.00    +0.035 C 
ATOM      5  C   UNL     1      34.345 -18.067 -25.124  0.00  0.00    +0.092 C 
ATOM      6  C   UNL     1      34.779 -19.164 -24.388  0.00  0.00    -0.016 C 
ENDROOT
BRANCH   2   8
ATOM      7  OXT UNL     1      35.110 -16.484 -20.463  0.00  0.00    -0.242 OA
ATOM      8  C   UNL     1      35.330 -17.523 -21.097  0.00  0.00    +0.368 C 
BRANCH   8   9
ATOM      9  O   UNL     1      35.931 -18.602 -20.526  0.00  0.00    -0.475 OA
ATOM     10  H   UNL     1      36.466 -18.493 -19.765  0.00  0.00    +0.295 HD
ENDBRANCH   8   9
ENDBRANCH   2   8
BRANCH   3  12
ATOM     11  OXT UNL     1      33.756 -15.556 -26.427  0.00  0.00    -0.243 OA
ATOM     12  C   UNL     1      33.822 -15.662 -25.197  0.00  0.00    +0.364 C 
BRANCH  12  13
ATOM     13  O   UNL     1      33.474 -14.642 -24.365  0.00  0.00    -0.476 OA
ATOM     14  H   UNL     1      32.575 -14.390 -24.284  0.00  0.00    +0.295 HD
ENDBRANCH  12  13
ENDBRANCH   3  12
TORSDOF 4
ENDMDL
MODEL 9
REMARK VINA RESULT:      -6.5      2.252      4.377
REMARK  Name = 10367
REMARK  4 active torsions:
REMARK  status: ('A' for Active; 'I' for Inactive)
REMARK    1  A    between atoms: CA_2  and  C_8
REMARK    2  A    between atoms: CA_3  and  C_12
REMARK    3  A    between atoms: C_8  and  O_9
REMARK    4  A    between atoms: C_12  and  O_13
REMARK                            x       y       z     vdW  Elec       q    Type
REMARK                         _______ _______ _______ _____ _____    ______ ____
ROOT
ATOM      1  N   UNL     1      38.527 -24.386 -14.976  0.00  0.00    -0.393 NA
ATOM      2  CA  UNL     1      39.136 -25.286 -14.172  0.00  0.00    +0.206 C 
ATOM      3  CA  UNL     1      37.443 -23.761 -14.466  0.00  0.00    +0.188 C 
ATOM      4  C   UNL     1      38.712 -25.588 -12.887  0.00  0.00    +0.035 C 
ATOM      5  C   UNL     1      36.939 -23.993 -13.196  0.00  0.00    +0.092 C 
ATOM      6  C   UNL     1      37.593 -24.925 -12.398  0.00  0.00    -0.016 C 
ENDROOT
BRANCH   2   8
ATOM      7  OXT UNL     1      41.174 -26.535 -14.086  0.00  0.00    -0.242 OA
ATOM      8  C   UNL     1      40.299 -25.949 -14.734  0.00  0.00    +0.368 C 
BRANCH   8   9
ATOM      9  O   UNL     1      40.345 -25.862 -16.092  0.00  0.00    -0.475 OA
ATOM     10  H   UNL     1      39.586 -25.589 -16.570  0.00  0.00    +0.295 HD
ENDBRANCH   8   9
ENDBRANCH   2   8
BRANCH   3  12
ATOM     11  OXT UNL     1      37.295 -22.315 -16.366  0.00  0.00    -0.243 OA
ATOM     12  C   UNL     1      36.796 -22.803 -15.346  0.00  0.00    +0.364 C 
BRANCH  12  13
ATOM     13  O   UNL     1      35.541 -22.478 -14.932  0.00  0.00    -0.476 OA
ATOM     14  H   UNL     1      35.351 -22.413 -14.017  0.00  0.00    +0.295 HD
ENDBRANCH  12  13
ENDBRANCH   3  12
TORSDOF 4
ENDMDL
