MODEL 1
REMARK VINA RESULT:     -10.2      0.000      0.000
REMARK  Name = 11974
REMARK  8 active torsions:
REMARK  status: ('A' for Active; 'I' for Inactive)
REMARK    1  A    between atoms: C_1  and  C_2
REMARK    2  A    between atoms: C_1  and  C_17
REMARK    3  A    between atoms: C_2  and  O_3
REMARK    4  A    between atoms: O_3  and  C_5
REMARK    5  A    between atoms: C_8  and  C_13
REMARK    6  A    between atoms: C_17  and  O_18
REMARK    7  A    between atoms: O_18  and  C_20
REMARK    8  A    between atoms: C_23  and  C_28
REMARK                            x       y       z     vdW  Elec       q    Type
REMARK                         _______ _______ _______ _____ _____    ______ ____
ROOT
ATOM      1  C   UNL     1      35.244 -20.504 -20.270  0.00  0.00    +0.095 C 
ENDROOT
BRANCH   1   2
ATOM      2  C   UNL     1      34.528 -19.384 -21.005  0.00  0.00    +0.209 C 
BRANCH   2   3
ATOM      3  O   UNL     1      35.447 -18.325 -21.237  0.00  0.00    -0.475 OA
BRANCH   3   5
ATOM      4 BR   UNL     1      34.914 -18.321 -24.312  0.00  0.00    -0.046 Br
ATOM      5  C   UNL     1      34.925 -17.141 -21.688  0.00  0.00    +0.145 C 
ATOM      6  C   UNL     1      34.622 -16.953 -23.033  0.00  0.00    +0.069 C 
ATOM      7  C   UNL     1      34.703 -16.124 -20.765  0.00  0.00    +0.037 C 
ATOM      8  C   UNL     1      33.869 -14.711 -22.538  0.00  0.00    +0.031 C 
ATOM      9  C   UNL     1      34.092 -15.735 -23.459  0.00  0.00    +0.012 C 
ATOM     10  C   UNL     1      34.174 -14.906 -21.191  0.00  0.00    +0.006 C 
BRANCH   8  13
ATOM     11  N   UNL     1      32.020 -13.056 -22.641  0.00  0.00    -0.343 N 
ATOM     12  N   UNL     1      34.046 -12.629 -23.727  0.00  0.00    -0.285 NA
ATOM     13  C   UNL     1      33.316 -13.442 -22.982  0.00  0.00    +0.117 C 
ATOM     14  H   UNL     1      31.666 -12.192 -22.952  0.00  0.00    +0.144 HD
ATOM     15  H   UNL     1      31.460 -13.648 -22.090  0.00  0.00    +0.144 HD
ATOM     16  H   UNL     1      33.674 -11.770 -24.027  0.00  0.00    +0.188 HD
ENDBRANCH   8  13
ENDBRANCH   3   5
ENDBRANCH   2   3
ENDBRANCH   1   2
BRANCH   1  17
ATOM     17  C   UNL     1      34.272 -21.439 -19.569  0.00  0.00    +0.209 C 
BRANCH  17  18
ATOM     18  O   UNL     1      34.990 -22.383 -18.785  0.00  0.00    -0.475 OA
BRANCH  18  20
ATOM     19 BR   UNL     1      37.035 -22.377 -16.428  0.00  0.00    -0.046 Br
ATOM     20  C   UNL     1      34.429 -22.746 -17.588  0.00  0.00    +0.145 C 
ATOM     21  C   UNL     1      35.188 -22.801 -16.424  0.00  0.00    +0.069 C 
ATOM     22  C   UNL     1      33.073 -23.061 -17.564  0.00  0.00    +0.037 C 
ATOM     23  C   UNL     1      33.228 -23.492 -15.191  0.00  0.00    +0.031 C 
ATOM     24  C   UNL     1      34.585 -23.175 -15.222  0.00  0.00    +0.012 C 
ATOM     25  C   UNL     1      32.472 -23.435 -16.362  0.00  0.00    +0.006 C 
BRANCH  23  28
ATOM     26  N   UNL     1      32.293 -25.215 -13.667  0.00  0.00    -0.343 N 
ATOM     27  N   UNL     1      32.304 -22.964 -13.036  0.00  0.00    -0.285 NA
ATOM     28  C   UNL     1      32.600 -23.883 -13.939  0.00  0.00    +0.117 C 
ATOM     29  H   UNL     1      31.868 -25.458 -12.813  0.00  0.00    +0.144 HD
ATOM     30  H   UNL     1      32.503 -25.914 -14.328  0.00  0.00    +0.144 HD
ATOM     31  H   UNL     1      31.879 -23.227 -12.188  0.00  0.00    +0.188 HD
ENDBRANCH  23  28
ENDBRANCH  18  20
ENDBRANCH  17  18
ENDBRANCH   1  17
TORSDOF 8
ENDMDL
MODEL 2
REMARK VINA RESULT:     -10.1      0.047     10.188
REMARK  Name = 11974
REMARK  8 active torsions:
REMARK  status: ('A' for Active; 'I' for Inactive)
REMARK    1  A    between atoms: C_1  and  C_2
REMARK    2  A    between atoms: C_1  and  C_17
REMARK    3  A    between atoms: C_2  and  O_3
REMARK    4  A    between atoms: O_3  and  C_5
REMARK    5  A    between atoms: C_8  and  C_13
REMARK    6  A    between atoms: C_17  and  O_18
REMARK    7  A    between atoms: O_18  and  C_20
REMARK    8  A    between atoms: C_23  and  C_28
REMARK                            x       y       z     vdW  Elec       q    Type
REMARK                         _______ _______ _______ _____ _____    ______ ____
ROOT
ATOM      1  C   UNL     1      35.222 -20.505 -20.251  0.00  0.00    +0.095 C 
ENDROOT
BRANCH   1   2
ATOM      2  C   UNL     1      34.231 -21.442 -19.580  0.00  0.00    +0.209 C 
BRANCH   2   3
ATOM      3  O   UNL     1      34.949 -22.400 -18.815  0.00  0.00    -0.475 OA
BRANCH   3   5
ATOM      4 BR   UNL     1      37.025 -22.318 -16.486  0.00  0.00    -0.046 Br
ATOM      5  C   UNL     1      34.411 -22.755 -17.605  0.00  0.00    +0.145 C 
ATOM      6  C   UNL     1      35.187 -22.777 -16.450  0.00  0.00    +0.069 C 
ATOM      7  C   UNL     1      33.063 -23.095 -17.558  0.00  0.00    +0.037 C 
ATOM      8  C   UNL     1      33.257 -23.487 -15.182  0.00  0.00    +0.031 C 
ATOM      9  C   UNL     1      34.607 -23.144 -15.235  0.00  0.00    +0.012 C 
ATOM     10  C   UNL     1      32.485 -23.463 -16.344  0.00  0.00    +0.006 C 
BRANCH   8  13
ATOM     11  N   UNL     1      32.332 -25.197 -13.636  0.00  0.00    -0.343 N 
ATOM     12  N   UNL     1      32.392 -22.947 -13.005  0.00  0.00    -0.285 NA
ATOM     13  C   UNL     1      32.652 -23.869 -13.916  0.00  0.00    +0.117 C 
ATOM     14  H   UNL     1      31.924 -25.433 -12.772  0.00  0.00    +0.144 HD
ATOM     15  H   UNL     1      32.515 -25.898 -14.302  0.00  0.00    +0.144 HD
ATOM     16  H   UNL     1      31.984 -23.204 -12.148  0.00  0.00    +0.188 HD
ENDBRANCH   8  13
ENDBRANCH   3   5
ENDBRANCH   2   3
ENDBRANCH   1   2
BRANCH   1  17
ATOM     17  C   UNL     1      34.526 -19.380 -20.998  0.00  0.00    +0.209 C 
BRANCH  17  18
ATOM     18  O   UNL     1      35.444 -18.323 -21.243  0.00  0.00    -0.475 OA
BRANCH  18  20
ATOM     19 BR   UNL     1      34.934 -18.297 -24.321  0.00  0.00    -0.046 Br
ATOM     20  C   UNL     1      34.919 -17.138 -21.689  0.00  0.00    +0.145 C 
ATOM     21  C   UNL     1      34.625 -16.941 -23.034  0.00  0.00    +0.069 C 
ATOM     22  C   UNL     1      34.684 -16.129 -20.759  0.00  0.00    +0.037 C 
ATOM     23  C   UNL     1      33.853 -14.708 -22.527  0.00  0.00    +0.031 C 
ATOM     24  C   UNL     1      34.091 -15.722 -23.454  0.00  0.00    +0.012 C 
ATOM     25  C   UNL     1      34.150 -14.911 -21.180  0.00  0.00    +0.006 C 
BRANCH  23  28
ATOM     26  N   UNL     1      34.019 -12.576 -23.790  0.00  0.00    -0.343 N 
ATOM     27  N   UNL     1      32.086 -13.080 -22.576  0.00  0.00    -0.285 NA
ATOM     28  C   UNL     1      33.297 -13.437 -22.965  0.00  0.00    +0.117 C 
ATOM     29  H   UNL     1      33.623 -11.720 -24.074  0.00  0.00    +0.144 HD
ATOM     30  H   UNL     1      34.924 -12.823 -24.088  0.00  0.00    +0.144 HD
ATOM     31  H   UNL     1      31.708 -12.220 -22.871  0.00  0.00    +0.188 HD
ENDBRANCH  23  28
ENDBRANCH  18  20
ENDBRANCH  17  18
ENDBRANCH   1  17
TORSDOF 8
ENDMDL
MODEL 3
REMARK VINA RESULT:     -10.0      1.527      1.994
REMARK  Name = 11974
REMARK  8 active torsions:
REMARK  status: ('A' for Active; 'I' for Inactive)
REMARK    1  A    between atoms: C_1  and  C_2
REMARK    2  A    between atoms: C_1  and  C_17
REMARK    3  A    between atoms: C_2  and  O_3
REMARK    4  A    between atoms: O_3  and  C_5
REMARK    5  A    between atoms: C_8  and  C_13
REMARK    6  A    between atoms: C_17  and  O_18
REMARK    7  A    between atoms: O_18  and  C_20
REMARK    8  A    between atoms: C_23  and  C_28
REMARK                            x       y       z     vdW  Elec       q    Type
REMARK                         _______ _______ _______ _____ _____    ______ ____
ROOT
ATOM      1  C   UNL     1      35.145 -20.303 -20.238  0.00  0.00    +0.095 C 
ENDROOT
BRANCH   1   2
ATOM      2  C   UNL     1      34.711 -19.803 -21.605  0.00  0.00    +0.209 C 
BRANCH   2   3
ATOM      3  O   UNL     1      35.566 -18.739 -22.000  0.00  0.00    -0.475 OA
BRANCH   3   5
ATOM      4 BR   UNL     1      34.681 -16.123 -20.547  0.00  0.00    -0.046 Br
ATOM      5  C   UNL     1      35.040 -17.805 -22.853  0.00  0.00    +0.145 C 
ATOM      6  C   UNL     1      34.590 -16.574 -22.386  0.00  0.00    +0.069 C 
ATOM      7  C   UNL     1      34.965 -18.117 -24.207  0.00  0.00    +0.037 C 
ATOM      8  C   UNL     1      33.980 -15.953 -24.640  0.00  0.00    +0.031 C 
ATOM      9  C   UNL     1      34.059 -15.646 -23.281  0.00  0.00    +0.012 C 
ATOM     10  C   UNL     1      34.433 -17.189 -25.102  0.00  0.00    +0.006 C 
BRANCH   8  13
ATOM     11  N   UNL     1      32.878 -13.783 -25.132  0.00  0.00    -0.343 N 
ATOM     12  N   UNL     1      33.436 -15.243 -26.870  0.00  0.00    -0.285 NA
ATOM     13  C   UNL     1      33.427 -14.986 -25.573  0.00  0.00    +0.117 C 
ATOM     14  H   UNL     1      32.510 -13.142 -25.782  0.00  0.00    +0.144 HD
ATOM     15  H   UNL     1      32.860 -13.574 -24.170  0.00  0.00    +0.144 HD
ATOM     16  H   UNL     1      33.063 -14.589 -27.504  0.00  0.00    +0.188 HD
ENDBRANCH   8  13
ENDBRANCH   3   5
ENDBRANCH   2   3
ENDBRANCH   1   2
BRANCH   1  17
ATOM     17  C   UNL     1      34.192 -21.349 -19.684  0.00  0.00    +0.209 C 
BRANCH  17  18
ATOM     18  O   UNL     1      34.920 -22.325 -18.950  0.00  0.00    -0.475 OA
BRANCH  18  20
ATOM     19 BR   UNL     1      37.022 -22.180 -16.648  0.00  0.00    -0.046 Br
ATOM     20  C   UNL     1      34.408 -22.693 -17.734  0.00  0.00    +0.145 C 
ATOM     21  C   UNL     1      35.198 -22.691 -16.589  0.00  0.00    +0.069 C 
ATOM     22  C   UNL     1      33.070 -23.071 -17.669  0.00  0.00    +0.037 C 
ATOM     23  C   UNL     1      33.304 -23.452 -15.294  0.00  0.00    +0.031 C 
ATOM     24  C   UNL     1      34.644 -23.072 -15.365  0.00  0.00    +0.012 C 
ATOM     25  C   UNL     1      32.518 -23.452 -16.446  0.00  0.00    +0.006 C 
BRANCH  23  28
ATOM     26  N   UNL     1      32.515 -25.191 -13.707  0.00  0.00    -0.343 N 
ATOM     27  N   UNL     1      32.389 -22.929 -13.135  0.00  0.00    -0.285 NA
ATOM     28  C   UNL     1      32.727 -23.849 -14.020  0.00  0.00    +0.117 C 
ATOM     29  H   UNL     1      32.123 -25.438 -12.839  0.00  0.00    +0.144 HD
ATOM     30  H   UNL     1      32.758 -25.892 -14.355  0.00  0.00    +0.144 HD
ATOM     31  H   UNL     1      31.998 -23.196 -12.272  0.00  0.00    +0.188 HD
ENDBRANCH  23  28
ENDBRANCH  18  20
ENDBRANCH  17  18
ENDBRANCH   1  17
TORSDOF 8
ENDMDL
MODEL 4
REMARK VINA RESULT:     -10.0      4.663      6.558
REMARK  Name = 11974
REMARK  8 active torsions:
REMARK  status: ('A' for Active; 'I' for Inactive)
REMARK    1  A    between atoms: C_1  and  C_2
REMARK    2  A    between atoms: C_1  and  C_17
REMARK    3  A    between atoms: C_2  and  O_3
REMARK    4  A    between atoms: O_3  and  C_5
REMARK    5  A    between atoms: C_8  and  C_13
REMARK    6  A    between atoms: C_17  and  O_18
REMARK    7  A    between atoms: O_18  and  C_20
REMARK    8  A    between atoms: C_23  and  C_28
REMARK                            x       y       z     vdW  Elec       q    Type
REMARK                         _______ _______ _______ _____ _____    ______ ____
ROOT
ATOM      1  C   UNL     1      33.273 -23.258 -15.039  0.00  0.00    +0.095 C 
ENDROOT
BRANCH   1   2
ATOM      2  C   UNL     1      33.120 -23.354 -16.548  0.00  0.00    +0.209 C 
BRANCH   2   3
ATOM      3  O   UNL     1      34.410 -23.446 -17.136  0.00  0.00    -0.475 OA
BRANCH   3   5
ATOM      4 BR   UNL     1      37.247 -22.199 -16.765  0.00  0.00    -0.046 Br
ATOM      5  C   UNL     1      34.718 -22.521 -18.099  0.00  0.00    +0.145 C 
ATOM      6  C   UNL     1      35.942 -21.859 -18.097  0.00  0.00    +0.069 C 
ATOM      7  C   UNL     1      33.773 -22.258 -19.086  0.00  0.00    +0.037 C 
ATOM      8  C   UNL     1      35.280 -20.654 -20.084  0.00  0.00    +0.031 C 
ATOM      9  C   UNL     1      36.224 -20.923 -19.093  0.00  0.00    +0.012 C 
ATOM     10  C   UNL     1      34.055 -21.322 -20.081  0.00  0.00    +0.006 C 
BRANCH   8  13
ATOM     11  N   UNL     1      34.652 -19.391 -22.128  0.00  0.00    -0.343 N 
ATOM     12  N   UNL     1      36.735 -19.049 -21.125  0.00  0.00    -0.285 NA
ATOM     13  C   UNL     1      35.573 -19.679 -21.122  0.00  0.00    +0.117 C 
ATOM     14  H   UNL     1      34.871 -18.727 -22.821  0.00  0.00    +0.144 HD
ATOM     15  H   UNL     1      33.783 -19.852 -22.145  0.00  0.00    +0.144 HD
ATOM     16  H   UNL     1      36.935 -18.388 -21.826  0.00  0.00    +0.188 HD
ENDBRANCH   8  13
ENDBRANCH   3   5
ENDBRANCH   2   3
ENDBRANCH   1   2
BRANCH   1  17
ATOM     17  C   UNL     1      33.756 -24.564 -14.430  0.00  0.00    +0.209 C 
BRANCH  17  18
ATOM     18  O   UNL     1      34.755 -24.300 -13.454  0.00  0.00    -0.475 OA
BRANCH  18  20
ATOM     19 BR   UNL     1      36.903 -23.015 -11.590  0.00  0.00    -0.046 Br
ATOM     20  C   UNL     1      36.031 -24.702 -13.751  0.00  0.00    +0.145 C 
ATOM     21  C   UNL     1      37.122 -24.233 -13.026  0.00  0.00    +0.069 C 
ATOM     22  C   UNL     1      36.213 -25.596 -14.802  0.00  0.00    +0.037 C 
ATOM     23  C   UNL     1      38.597 -25.558 -14.406  0.00  0.00    +0.031 C 
ATOM     24  C   UNL     1      38.408 -24.662 -13.355  0.00  0.00    +0.012 C 
ATOM     25  C   UNL     1      37.499 -26.025 -15.130  0.00  0.00    +0.006 C 
BRANCH  23  28
ATOM     26  N   UNL     1      40.786 -26.554 -13.790  0.00  0.00    -0.343 N 
ATOM     27  N   UNL     1      40.372 -25.890 -15.992  0.00  0.00    -0.285 NA
ATOM     28  C   UNL     1      39.937 -26.005 -14.750  0.00  0.00    +0.117 C 
ATOM     29  H   UNL     1      41.690 -26.850 -14.044  0.00  0.00    +0.144 HD
ATOM     30  H   UNL     1      40.482 -26.646 -12.858  0.00  0.00    +0.144 HD
ATOM     31  H   UNL     1      41.279 -26.192 -16.227  0.00  0.00    +0.188 HD
ENDBRANCH  23  28
ENDBRANCH  18  20
ENDBRANCH  17  18
ENDBRANCH   1  17
TORSDOF 8
ENDMDL
MODEL 5
REMARK VINA RESULT:      -9.9      1.566     10.314
REMARK  Name = 11974
REMARK  8 active torsions:
REMARK  status: ('A' for Active; 'I' for Inactive)
REMARK    1  A    between atoms: C_1  and  C_2
REMARK    2  A    between atoms: C_1  and  C_17
REMARK    3  A    between atoms: C_2  and  O_3
REMARK    4  A    between atoms: O_3  and  C_5
REMARK    5  A    between atoms: C_8  and  C_13
REMARK    6  A    between atoms: C_17  and  O_18
REMARK    7  A    between atoms: O_18  and  C_20
REMARK    8  A    between atoms: C_23  and  C_28
REMARK                            x       y       z     vdW  Elec       q    Type
REMARK                         _______ _______ _______ _____ _____    ______ ____
ROOT
ATOM      1  C   UNL     1      35.543 -20.525 -20.309  0.00  0.00    +0.095 C 
ENDROOT
BRANCH   1   2
ATOM      2  C   UNL     1      34.673 -21.584 -19.653  0.00  0.00    +0.209 C 
BRANCH   2   3
ATOM      3  O   UNL     1      35.451 -22.290 -18.696  0.00  0.00    -0.475 OA
BRANCH   3   5
ATOM      4 BR   UNL     1      37.379 -22.372 -16.244  0.00  0.00    -0.046 Br
ATOM      5  C   UNL     1      34.823 -22.652 -17.533  0.00  0.00    +0.145 C 
ATOM      6  C   UNL     1      35.523 -22.743 -16.334  0.00  0.00    +0.069 C 
ATOM      7  C   UNL     1      33.460 -22.928 -17.579  0.00  0.00    +0.037 C 
ATOM      8  C   UNL     1      33.486 -23.393 -15.207  0.00  0.00    +0.031 C 
ATOM      9  C   UNL     1      34.852 -23.114 -15.168  0.00  0.00    +0.012 C 
ATOM     10  C   UNL     1      32.790 -23.300 -16.413  0.00  0.00    +0.006 C 
BRANCH   8  13
ATOM     11  N   UNL     1      31.821 -22.955 -13.419  0.00  0.00    -0.343 N 
ATOM     12  N   UNL     1      33.068 -24.932 -13.409  0.00  0.00    -0.285 NA
ATOM     13  C   UNL     1      32.787 -23.779 -13.993  0.00  0.00    +0.117 C 
ATOM     14  H   UNL     1      31.359 -23.236 -12.596  0.00  0.00    +0.144 HD
ATOM     15  H   UNL     1      31.600 -22.092 -13.836  0.00  0.00    +0.144 HD
ATOM     16  H   UNL     1      32.595 -25.195 -12.588  0.00  0.00    +0.188 HD
ENDBRANCH   8  13
ENDBRANCH   3   5
ENDBRANCH   2   3
ENDBRANCH   1   2
BRANCH   1  17
ATOM     17  C   UNL     1      34.715 -19.417 -20.938  0.00  0.00    +0.209 C 
BRANCH  17  18
ATOM     18  O   UNL     1      35.573 -18.411 -21.460  0.00  0.00    -0.475 OA
BRANCH  18  20
ATOM     19 BR   UNL     1      34.657 -15.644 -20.343  0.00  0.00    -0.046 Br
ATOM     20  C   UNL     1      35.049 -17.591 -22.425  0.00  0.00    +0.145 C 
ATOM     21  C   UNL     1      34.586 -16.316 -22.114  0.00  0.00    +0.069 C 
ATOM     22  C   UNL     1      34.988 -18.066 -23.732  0.00  0.00    +0.037 C 
ATOM     23  C   UNL     1      33.995 -15.977 -24.432  0.00  0.00    +0.031 C 
ATOM     24  C   UNL     1      34.058 -15.507 -23.121  0.00  0.00    +0.012 C 
ATOM     25  C   UNL     1      34.459 -17.256 -24.737  0.00  0.00    +0.006 C 
BRANCH  23  28
ATOM     26  N   UNL     1      33.144 -13.792 -25.251  0.00  0.00    -0.343 N 
ATOM     27  N   UNL     1      33.213 -15.641 -26.680  0.00  0.00    -0.285 NA
ATOM     28  C   UNL     1      33.444 -15.134 -25.482  0.00  0.00    +0.117 C 
ATOM     29  H   UNL     1      32.771 -13.240 -25.976  0.00  0.00    +0.144 HD
ATOM     30  H   UNL     1      33.306 -13.397 -24.364  0.00  0.00    +0.144 HD
ATOM     31  H   UNL     1      32.840 -15.072 -27.391  0.00  0.00    +0.188 HD
ENDBRANCH  23  28
ENDBRANCH  18  20
ENDBRANCH  17  18
ENDBRANCH   1  17
TORSDOF 8
ENDMDL
MODEL 6
REMARK VINA RESULT:      -9.7      5.012      7.249
REMARK  Name = 11974
REMARK  8 active torsions:
REMARK  status: ('A' for Active; 'I' for Inactive)
REMARK    1  A    between atoms: C_1  and  C_2
REMARK    2  A    between atoms: C_1  and  C_17
REMARK    3  A    between atoms: C_2  and  O_3
REMARK    4  A    between atoms: O_3  and  C_5
REMARK    5  A    between atoms: C_8  and  C_13
REMARK    6  A    between atoms: C_17  and  O_18
REMARK    7  A    between atoms: O_18  and  C_20
REMARK    8  A    between atoms: C_23  and  C_28
REMARK                            x       y       z     vdW  Elec       q    Type
REMARK                         _______ _______ _______ _____ _____    ______ ____
ROOT
ATOM      1  C   UNL     1      33.402 -14.777 -25.826  0.00  0.00    +0.095 C 
ENDROOT
BRANCH   1   2
ATOM      2  C   UNL     1      32.937 -13.929 -24.655  0.00  0.00    +0.209 C 
BRANCH   2   3
ATOM      3  O   UNL     1      33.903 -12.916 -24.408  0.00  0.00    -0.475 OA
BRANCH   3   5
ATOM      4 BR   UNL     1      35.279 -10.360 -25.553  0.00  0.00    -0.046 Br
ATOM      5  C   UNL     1      33.452 -11.759 -23.827  0.00  0.00    +0.145 C 
ATOM      6  C   UNL     1      33.951 -10.518 -24.210  0.00  0.00    +0.069 C 
ATOM      7  C   UNL     1      32.477 -11.855 -22.839  0.00  0.00    +0.037 C 
ATOM      8  C   UNL     1      32.494  -9.450 -22.606  0.00  0.00    +0.031 C 
ATOM      9  C   UNL     1      33.470  -9.360 -23.598  0.00  0.00    +0.012 C 
ATOM     10  C   UNL     1      31.997 -10.697 -22.227  0.00  0.00    +0.006 C 
BRANCH   8  13
ATOM     11  N   UNL     1      31.184  -7.341 -22.657  0.00  0.00    -0.343 N 
ATOM     12  N   UNL     1      32.306  -7.984 -20.711  0.00  0.00    -0.285 NA
ATOM     13  C   UNL     1      31.992  -8.244 -21.969  0.00  0.00    +0.117 C 
ATOM     14  H   UNL     1      30.855  -6.531 -22.206  0.00  0.00    +0.144 HD
ATOM     15  H   UNL     1      30.941  -7.515 -23.596  0.00  0.00    +0.144 HD
ATOM     16  H   UNL     1      31.967  -7.169 -20.277  0.00  0.00    +0.188 HD
ENDBRANCH   8  13
ENDBRANCH   3   5
ENDBRANCH   2   3
ENDBRANCH   1   2
BRANCH   1  17
ATOM     17  C   UNL     1      33.858 -16.158 -25.384  0.00  0.00    +0.209 C 
BRANCH  17  18
ATOM     18  O   UNL     1      34.777 -16.041 -24.306  0.00  0.00    -0.475 OA
BRANCH  18  20
ATOM     19 BR   UNL     1      34.417 -14.922 -21.415  0.00  0.00    -0.046 Br
ATOM     20  C   UNL     1      34.739 -17.024 -23.352  0.00  0.00    +0.145 C 
ATOM     21  C   UNL     1      34.584 -16.715 -22.005  0.00  0.00    +0.069 C 
ATOM     22  C   UNL     1      34.860 -18.348 -23.764  0.00  0.00    +0.037 C 
ATOM     23  C   UNL     1      34.671 -19.069 -21.466  0.00  0.00    +0.031 C 
ATOM     24  C   UNL     1      34.550 -17.741 -21.059  0.00  0.00    +0.012 C 
ATOM     25  C   UNL     1      34.826 -19.373 -22.818  0.00  0.00    +0.006 C 
BRANCH  23  28
ATOM     26  N   UNL     1      35.800 -20.594 -19.864  0.00  0.00    -0.343 N 
ATOM     27  N   UNL     1      33.484 -20.700 -20.159  0.00  0.00    -0.285 NA
ATOM     28  C   UNL     1      34.636 -20.139 -20.480  0.00  0.00    +0.117 C 
ATOM     29  H   UNL     1      35.754 -21.320 -19.200  0.00  0.00    +0.144 HD
ATOM     30  H   UNL     1      36.669 -20.191 -20.093  0.00  0.00    +0.144 HD
ATOM     31  H   UNL     1      33.458 -21.424 -19.492  0.00  0.00    +0.188 HD
ENDBRANCH  23  28
ENDBRANCH  18  20
ENDBRANCH  17  18
ENDBRANCH   1  17
TORSDOF 8
ENDMDL
MODEL 7
REMARK VINA RESULT:      -9.7      5.048     11.114
REMARK  Name = 11974
REMARK  8 active torsions:
REMARK  status: ('A' for Active; 'I' for Inactive)
REMARK    1  A    between atoms: C_1  and  C_2
REMARK    2  A    between atoms: C_1  and  C_17
REMARK    3  A    between atoms: C_2  and  O_3
REMARK    4  A    between atoms: O_3  and  C_5
REMARK    5  A    between atoms: C_8  and  C_13
REMARK    6  A    between atoms: C_17  and  O_18
REMARK    7  A    between atoms: O_18  and  C_20
REMARK    8  A    between atoms: C_23  and  C_28
REMARK                            x       y       z     vdW  Elec       q    Type
REMARK                         _______ _______ _______ _____ _____    ______ ____
ROOT
ATOM      1  C   UNL     1      33.439 -14.757 -25.900  0.00  0.00    +0.095 C 
ENDROOT
BRANCH   1   2
ATOM      2  C   UNL     1      33.806 -16.145 -25.401  0.00  0.00    +0.209 C 
BRANCH   2   3
ATOM      3  O   UNL     1      34.761 -16.020 -24.356  0.00  0.00    -0.475 OA
BRANCH   3   5
ATOM      4 BR   UNL     1      34.473 -14.891 -21.461  0.00  0.00    -0.046 Br
ATOM      5  C   UNL     1      34.760 -17.000 -23.397  0.00  0.00    +0.145 C 
ATOM      6  C   UNL     1      34.641 -16.686 -22.047  0.00  0.00    +0.069 C 
ATOM      7  C   UNL     1      34.882 -18.324 -23.807  0.00  0.00    +0.037 C 
ATOM      8  C   UNL     1      34.767 -19.037 -21.501  0.00  0.00    +0.031 C 
ATOM      9  C   UNL     1      34.644 -17.708 -21.096  0.00  0.00    +0.012 C 
ATOM     10  C   UNL     1      34.886 -19.344 -22.857  0.00  0.00    +0.006 C 
BRANCH   8  13
ATOM     11  N   UNL     1      35.946 -20.502 -19.879  0.00  0.00    -0.343 N 
ATOM     12  N   UNL     1      33.641 -20.713 -20.199  0.00  0.00    -0.285 NA
ATOM     13  C   UNL     1      34.770 -20.101 -20.512  0.00  0.00    +0.117 C 
ATOM     14  H   UNL     1      35.926 -21.224 -19.212  0.00  0.00    +0.144 HD
ATOM     15  H   UNL     1      36.798 -20.061 -20.101  0.00  0.00    +0.144 HD
ATOM     16  H   UNL     1      33.641 -21.434 -19.529  0.00  0.00    +0.188 HD
ENDBRANCH   8  13
ENDBRANCH   3   5
ENDBRANCH   2   3
ENDBRANCH   1   2
BRANCH   1  17
ATOM     17  C   UNL     1      32.915 -13.870 -24.783  0.00  0.00    +0.209 C 
BRANCH  17  18
ATOM     18  O   UNL     1      33.899 -12.907 -24.429  0.00  0.00    -0.475 OA
BRANCH  18  20
ATOM     19 BR   UNL     1      35.256 -10.343 -25.578  0.00  0.00    -0.046 Br
ATOM     20  C   UNL     1      33.451 -11.754 -23.839  0.00  0.00    +0.145 C 
ATOM     21  C   UNL     1      33.943 -10.510 -24.222  0.00  0.00    +0.069 C 
ATOM     22  C   UNL     1      32.486 -11.855 -22.841  0.00  0.00    +0.037 C 
ATOM     23  C   UNL     1      32.499  -9.451 -22.600  0.00  0.00    +0.031 C 
ATOM     24  C   UNL     1      33.465  -9.356 -23.600  0.00  0.00    +0.012 C 
ATOM     25  C   UNL     1      32.010 -10.701 -22.220  0.00  0.00    +0.006 C 
BRANCH  23  28
ATOM     26  N   UNL     1      31.227  -7.318 -22.645  0.00  0.00    -0.343 N 
ATOM     27  N   UNL     1      32.286  -8.019 -20.682  0.00  0.00    -0.285 NA
ATOM     28  C   UNL     1      32.001  -8.248 -21.952  0.00  0.00    +0.117 C 
ATOM     29  H   UNL     1      30.901  -6.510 -22.186  0.00  0.00    +0.144 HD
ATOM     30  H   UNL     1      31.007  -7.469 -23.592  0.00  0.00    +0.144 HD
ATOM     31  H   UNL     1      31.950  -7.205 -20.242  0.00  0.00    +0.188 HD
ENDBRANCH  23  28
ENDBRANCH  18  20
ENDBRANCH  17  18
ENDBRANCH   1  17
TORSDOF 8
ENDMDL
MODEL 8
REMARK VINA RESULT:      -9.5      2.771      3.298
REMARK  Name = 11974
REMARK  8 active torsions:
REMARK  status: ('A' for Active; 'I' for Inactive)
REMARK    1  A    between atoms: C_1  and  C_2
REMARK    2  A    between atoms: C_1  and  C_17
REMARK    3  A    between atoms: C_2  and  O_3
REMARK    4  A    between atoms: O_3  and  C_5
REMARK    5  A    between atoms: C_8  and  C_13
REMARK    6  A    between atoms: C_17  and  O_18
REMARK    7  A    between atoms: O_18  and  C_20
REMARK    8  A    between atoms: C_23  and  C_28
REMARK                            x       y       z     vdW  Elec       q    Type
REMARK                         _______ _______ _______ _____ _____    ______ ____
ROOT
ATOM      1  C   UNL     1      36.655 -21.868 -18.256  0.00  0.00    +0.095 C 
ENDROOT
BRANCH   1   2
ATOM      2  C   UNL     1      36.676 -21.250 -19.644  0.00  0.00    +0.209 C 
BRANCH   2   3
ATOM      3  O   UNL     1      35.949 -20.030 -19.615  0.00  0.00    -0.475 OA
BRANCH   3   5
ATOM      4 BR   UNL     1      32.954 -20.453 -20.383  0.00  0.00    -0.046 Br
ATOM      5  C   UNL     1      35.623 -19.474 -20.825  0.00  0.00    +0.145 C 
ATOM      6  C   UNL     1      34.331 -19.562 -21.333  0.00  0.00    +0.069 C 
ATOM      7  C   UNL     1      36.620 -18.816 -21.538  0.00  0.00    +0.037 C 
ATOM      8  C   UNL     1      35.028 -18.326 -23.289  0.00  0.00    +0.031 C 
ATOM      9  C   UNL     1      34.032 -18.986 -22.568  0.00  0.00    +0.012 C 
ATOM     10  C   UNL     1      36.322 -18.240 -22.773  0.00  0.00    +0.006 C 
BRANCH   8  13
ATOM     11  N   UNL     1      35.158 -16.443 -24.903  0.00  0.00    -0.343 N 
ATOM     12  N   UNL     1      34.001 -18.395 -25.460  0.00  0.00    -0.285 NA
ATOM     13  C   UNL     1      34.718 -17.724 -24.575  0.00  0.00    +0.117 C 
ATOM     14  H   UNL     1      34.937 -16.055 -25.779  0.00  0.00    +0.144 HD
ATOM     15  H   UNL     1      35.691 -15.926 -24.256  0.00  0.00    +0.144 HD
ATOM     16  H   UNL     1      33.790 -17.990 -26.332  0.00  0.00    +0.188 HD
ENDBRANCH   8  13
ENDBRANCH   3   5
ENDBRANCH   2   3
ENDBRANCH   1   2
BRANCH   1  17
ATOM     17  C   UNL     1      35.259 -22.311 -17.850  0.00  0.00    +0.209 C 
BRANCH  17  18
ATOM     18  O   UNL     1      35.304 -22.940 -16.576  0.00  0.00    -0.475 OA
BRANCH  18  20
ATOM     19 BR   UNL     1      35.579 -24.021 -13.661  0.00  0.00    -0.046 Br
ATOM     20  C   UNL     1      34.105 -23.311 -16.027  0.00  0.00    +0.145 C 
ATOM     21  C   UNL     1      34.029 -23.818 -14.734  0.00  0.00    +0.069 C 
ATOM     22  C   UNL     1      32.955 -23.170 -16.799  0.00  0.00    +0.037 C 
ATOM     23  C   UNL     1      31.636 -24.047 -14.974  0.00  0.00    +0.031 C 
ATOM     24  C   UNL     1      32.792 -24.187 -14.206  0.00  0.00    +0.012 C 
ATOM     25  C   UNL     1      31.718 -23.539 -16.270  0.00  0.00    +0.006 C 
BRANCH  23  28
ATOM     26  N   UNL     1      29.171 -24.284 -15.161  0.00  0.00    -0.343 N 
ATOM     27  N   UNL     1      30.273 -24.927 -13.201  0.00  0.00    -0.285 NA
ATOM     28  C   UNL     1      30.346 -24.432 -14.424  0.00  0.00    +0.117 C 
ATOM     29  H   UNL     1      28.308 -24.551 -14.769  0.00  0.00    +0.144 HD
ATOM     30  H   UNL     1      29.205 -23.915 -16.072  0.00  0.00    +0.144 HD
ATOM     31  H   UNL     1      29.400 -25.188 -12.828  0.00  0.00    +0.188 HD
ENDBRANCH  23  28
ENDBRANCH  18  20
ENDBRANCH  17  18
ENDBRANCH   1  17
TORSDOF 8
ENDMDL
MODEL 9
REMARK VINA RESULT:      -9.5      6.916     13.230
REMARK  Name = 11974
REMARK  8 active torsions:
REMARK  status: ('A' for Active; 'I' for Inactive)
REMARK    1  A    between atoms: C_1  and  C_2
REMARK    2  A    between atoms: C_1  and  C_17
REMARK    3  A    between atoms: C_2  and  O_3
REMARK    4  A    between atoms: O_3  and  C_5
REMARK    5  A    between atoms: C_8  and  C_13
REMARK    6  A    between atoms: C_17  and  O_18
REMARK    7  A    between atoms: O_18  and  C_20
REMARK    8  A    between atoms: C_23  and  C_28
REMARK                            x       y       z     vdW  Elec       q    Type
REMARK                         _______ _______ _______ _____ _____    ______ ____
ROOT
ATOM      1  C   UNL     1      31.025 -10.925 -20.717  0.00  0.00    +0.095 C 
ENDROOT
BRANCH   1   2
ATOM      2  C   UNL     1      31.773 -12.230 -20.504  0.00  0.00    +0.209 C 
BRANCH   2   3
ATOM      3  O   UNL     1      31.810 -12.944 -21.732  0.00  0.00    -0.475 OA
BRANCH   3   5
ATOM      4 BR   UNL     1      33.685 -12.793 -24.222  0.00  0.00    -0.046 Br
ATOM      5  C   UNL     1      32.684 -13.998 -21.809  0.00  0.00    +0.145 C 
ATOM      6  C   UNL     1      33.598 -14.101 -22.853  0.00  0.00    +0.069 C 
ATOM      7  C   UNL     1      32.636 -14.968 -20.812  0.00  0.00    +0.037 C 
ATOM      8  C   UNL     1      34.429 -16.163 -21.906  0.00  0.00    +0.031 C 
ATOM      9  C   UNL     1      34.473 -15.186 -22.901  0.00  0.00    +0.012 C 
ATOM     10  C   UNL     1      33.511 -16.053 -20.862  0.00  0.00    +0.006 C 
BRANCH   8  13
ATOM     11  N   UNL     1      36.008 -17.638 -23.131  0.00  0.00    -0.343 N 
ATOM     12  N   UNL     1      35.548 -18.021 -20.872  0.00  0.00    -0.285 NA
ATOM     13  C   UNL     1      35.341 -17.294 -21.955  0.00  0.00    +0.117 C 
ATOM     14  H   UNL     1      36.621 -18.407 -23.142  0.00  0.00    +0.144 HD
ATOM     15  H   UNL     1      35.865 -17.110 -23.949  0.00  0.00    +0.144 HD
ATOM     16  H   UNL     1      36.165 -18.787 -20.903  0.00  0.00    +0.188 HD
ENDBRANCH   8  13
ENDBRANCH   3   5
ENDBRANCH   2   3
ENDBRANCH   1   2
BRANCH   1  17
ATOM     17  C   UNL     1      31.101 -10.454 -22.160  0.00  0.00    +0.209 C 
BRANCH  17  18
ATOM     18  O   UNL     1      32.181  -9.543 -22.314  0.00  0.00    -0.475 OA
BRANCH  18  20
ATOM     19 BR   UNL     1      32.565  -7.634 -19.875  0.00  0.00    -0.046 Br
ATOM     20  C   UNL     1      31.856  -8.241 -22.596  0.00  0.00    +0.145 C 
ATOM     21  C   UNL     1      31.964  -7.246 -21.630  0.00  0.00    +0.069 C 
ATOM     22  C   UNL     1      31.412  -7.936 -23.880  0.00  0.00    +0.037 C 
ATOM     23  C   UNL     1      31.180  -5.619 -23.235  0.00  0.00    +0.031 C 
ATOM     24  C   UNL     1      31.625  -5.931 -21.951  0.00  0.00    +0.012 C 
ATOM     25  C   UNL     1      31.073  -6.621 -24.199  0.00  0.00    +0.006 C 
BRANCH  23  28
ATOM     26  N   UNL     1      30.627  -3.288 -22.578  0.00  0.00    -0.343 N 
ATOM     27  N   UNL     1      30.682  -3.895 -24.835  0.00  0.00    -0.285 NA
ATOM     28  C   UNL     1      30.826  -4.248 -23.570  0.00  0.00    +0.117 C 
ATOM     29  H   UNL     1      30.387  -2.366 -22.827  0.00  0.00    +0.144 HD
ATOM     30  H   UNL     1      30.726  -3.532 -21.629  0.00  0.00    +0.144 HD
ATOM     31  H   UNL     1      30.442  -2.968 -25.063  0.00  0.00    +0.188 HD
ENDBRANCH  23  28
ENDBRANCH  18  20
ENDBRANCH  17  18
ENDBRANCH   1  17
TORSDOF 8
ENDMDL
