MODEL 1
REMARK VINA RESULT:     -11.0      0.000      0.000
REMARK  Name = 9919680
REMARK  5 active torsions:
REMARK  status: ('A' for Active; 'I' for Inactive)
REMARK    1  A    between atoms: N_2  and  C_12
REMARK    2  A    between atoms: C_4  and  C_29
REMARK    3  A    between atoms: C_15  and  C_18
REMARK    4  A    between atoms: C_19  and  C_22
REMARK    5  A    between atoms: N_28  and  C_31
REMARK                            x       y       z     vdW  Elec       q    Type
REMARK                         _______ _______ _______ _____ _____    ______ ____
ROOT
ATOM      1  O   UNL     1      34.829 -17.261 -24.084  0.00  0.00    -0.286 OA
ATOM      2  N   UNL     1      33.065 -13.838 -22.682  0.00  0.00    -0.250 N 
ATOM      3  N   UNL     1      32.582 -13.163 -24.973  0.00  0.00    -0.228 NA
ATOM      4  C   UNL     1      34.164 -15.968 -22.222  0.00  0.00    +0.107 C 
ATOM      5  C   UNL     1      33.579 -14.825 -21.846  0.00  0.00    +0.079 C 
ATOM      6  C   UNL     1      34.290 -16.243 -23.670  0.00  0.00    +0.204 C 
ATOM      7  C   UNL     1      33.730 -15.230 -24.595  0.00  0.00    +0.071 C 
ATOM      8  C   UNL     1      33.129 -14.058 -24.106  0.00  0.00    +0.142 C 
ATOM      9  C   UNL     1      33.789 -15.461 -25.973  0.00  0.00    +0.008 C 
ATOM     10  C   UNL     1      33.244 -14.533 -26.847  0.00  0.00    +0.021 C 
ATOM     11  C   UNL     1      32.654 -13.412 -26.301  0.00  0.00    +0.100 C 
ENDROOT
BRANCH   2  12
ATOM     12  C   UNL     1      32.497 -12.649 -22.110  0.00  0.00    +0.058 C 
ATOM     13  C   UNL     1      32.568 -11.431 -22.797  0.00  0.00    +0.023 C 
ATOM     14  C   UNL     1      31.866 -12.697 -20.862  0.00  0.00    +0.015 C 
ATOM     15  C   UNL     1      32.016 -10.277 -22.242  0.00  0.00    +0.043 C 
ATOM     16  C   UNL     1      31.315 -11.543 -20.307  0.00  0.00    +0.002 C 
ATOM     17  C   UNL     1      31.389 -10.332 -20.996  0.00  0.00    +0.008 C 
BRANCH  15  18
ATOM     18  C   UNL     1      32.091  -9.037 -22.948  0.00  0.00    -0.060 C 
ATOM     19  C   UNL     1      32.155  -7.994 -23.542  0.00  0.00    -0.058 C 
BRANCH  19  22
ATOM     20  O   UNL     1      30.271  -3.808 -24.758  0.00  0.00    -0.163 OA
ATOM     21  N   UNL     1      31.233  -4.638 -24.842  0.00  0.00    -0.127 N 
ATOM     22  C   UNL     1      32.229  -6.753 -24.250  0.00  0.00    +0.063 C 
ATOM     23  C   UNL     1      31.183  -5.841 -24.166  0.00  0.00    +0.129 C 
ATOM     24  C   UNL     1      33.342  -6.453 -25.025  0.00  0.00    +0.012 C 
ATOM     25  C   UNL     1      33.403  -5.245 -25.710  0.00  0.00    +0.023 C 
ATOM     26  C   UNL     1      32.345  -4.348 -25.611  0.00  0.00    +0.121 C 
ENDBRANCH  19  22
ENDBRANCH  15  18
ENDBRANCH   2  12
BRANCH   4  29
ATOM     27  O   UNL     1      35.240 -16.442 -20.185  0.00  0.00    -0.270 OA
ATOM     28  N   UNL     1      34.402 -18.205 -21.454  0.00  0.00    -0.302 N 
ATOM     29  C   UNL     1      34.659 -16.872 -21.181  0.00  0.00    +0.250 C 
ATOM     30  H   UNL     1      33.928 -18.435 -22.285  0.00  0.00    +0.150 HD
BRANCH  28  31
ATOM     31  C   UNL     1      34.797 -19.268 -20.571  0.00  0.00    +0.072 C 
ATOM     32  C   UNL     1      35.126 -20.623 -21.106  0.00  0.00    +0.021 C 
ATOM     33  C   UNL     1      33.878 -20.414 -20.298  0.00  0.00    +0.021 C 
ENDBRANCH  28  31
ENDBRANCH   4  29
TORSDOF 5
ENDMDL
MODEL 2
REMARK VINA RESULT:     -10.8      2.118     10.457
REMARK  Name = 9919680
REMARK  5 active torsions:
REMARK  status: ('A' for Active; 'I' for Inactive)
REMARK    1  A    between atoms: N_2  and  C_12
REMARK    2  A    between atoms: C_4  and  C_29
REMARK    3  A    between atoms: C_15  and  C_18
REMARK    4  A    between atoms: C_19  and  C_22
REMARK    5  A    between atoms: N_28  and  C_31
REMARK                            x       y       z     vdW  Elec       q    Type
REMARK                         _______ _______ _______ _____ _____    ______ ____
ROOT
ATOM      1  O   UNL     1      32.513  -7.244 -21.334  0.00  0.00    -0.286 OA
ATOM      2  N   UNL     1      33.018 -10.852 -23.210  0.00  0.00    -0.250 N 
ATOM      3  N   UNL     1      31.934 -11.966 -21.334  0.00  0.00    -0.228 NA
ATOM      4  C   UNL     1      33.263  -8.423 -23.239  0.00  0.00    +0.107 C 
ATOM      5  C   UNL     1      33.396  -9.639 -23.781  0.00  0.00    +0.079 C 
ATOM      6  C   UNL     1      32.651  -8.322 -21.896  0.00  0.00    +0.204 C 
ATOM      7  C   UNL     1      32.209  -9.588 -21.264  0.00  0.00    +0.071 C 
ATOM      8  C   UNL     1      32.388 -10.821 -21.913  0.00  0.00    +0.142 C 
ATOM      9  C   UNL     1      31.590  -9.543 -20.012  0.00  0.00    +0.008 C 
ATOM     10  C   UNL     1      31.148 -10.717 -19.423  0.00  0.00    +0.021 C 
ATOM     11  C   UNL     1      31.340 -11.892 -20.121  0.00  0.00    +0.100 C 
ENDROOT
BRANCH   2  12
ATOM     12  C   UNL     1      33.266 -12.076 -23.919  0.00  0.00    +0.058 C 
ATOM     13  C   UNL     1      33.551 -13.253 -23.217  0.00  0.00    +0.023 C 
ATOM     14  C   UNL     1      33.223 -12.105 -25.317  0.00  0.00    +0.015 C 
ATOM     15  C   UNL     1      33.790 -14.443 -23.904  0.00  0.00    +0.043 C 
ATOM     16  C   UNL     1      33.464 -13.294 -26.005  0.00  0.00    +0.002 C 
ATOM     17  C   UNL     1      33.747 -14.464 -25.299  0.00  0.00    +0.008 C 
BRANCH  15  18
ATOM     18  C   UNL     1      34.080 -15.641 -23.182  0.00  0.00    -0.060 C 
ATOM     19  C   UNL     1      34.323 -16.650 -22.574  0.00  0.00    -0.058 C 
BRANCH  19  22
ATOM     20  O   UNL     1      32.872 -20.501 -20.206  0.00  0.00    -0.163 OA
ATOM     21  N   UNL     1      33.829 -19.791 -20.653  0.00  0.00    -0.127 N 
ATOM     22  C   UNL     1      34.612 -17.849 -21.850  0.00  0.00    +0.063 C 
ATOM     23  C   UNL     1      33.573 -18.630 -21.356  0.00  0.00    +0.129 C 
ATOM     24  C   UNL     1      35.928 -18.239 -21.634  0.00  0.00    +0.012 C 
ATOM     25  C   UNL     1      36.197 -19.405 -20.927  0.00  0.00    +0.023 C 
ATOM     26  C   UNL     1      35.142 -20.171 -20.443  0.00  0.00    +0.121 C 
ENDBRANCH  19  22
ENDBRANCH  15  18
ENDBRANCH   2  12
BRANCH   4  29
ATOM     27  O   UNL     1      34.930  -7.150 -24.301  0.00  0.00    -0.270 OA
ATOM     28  N   UNL     1      32.737  -6.367 -24.311  0.00  0.00    -0.302 N 
ATOM     29  C   UNL     1      33.743  -7.266 -23.997  0.00  0.00    +0.250 C 
ATOM     30  H   UNL     1      31.819  -6.563 -24.015  0.00  0.00    +0.150 HD
BRANCH  28  31
ATOM     31  C   UNL     1      32.978  -5.160 -25.051  0.00  0.00    +0.072 C 
ATOM     32  C   UNL     1      31.884  -4.514 -25.836  0.00  0.00    +0.021 C 
ATOM     33  C   UNL     1      33.029  -5.179 -26.544  0.00  0.00    +0.021 C 
ENDBRANCH  28  31
ENDBRANCH   4  29
TORSDOF 5
ENDMDL
MODEL 3
REMARK VINA RESULT:     -10.8      0.923      1.164
REMARK  Name = 9919680
REMARK  5 active torsions:
REMARK  status: ('A' for Active; 'I' for Inactive)
REMARK    1  A    between atoms: N_2  and  C_12
REMARK    2  A    between atoms: C_4  and  C_29
REMARK    3  A    between atoms: C_15  and  C_18
REMARK    4  A    between atoms: C_19  and  C_22
REMARK    5  A    between atoms: N_28  and  C_31
REMARK                            x       y       z     vdW  Elec       q    Type
REMARK                         _______ _______ _______ _____ _____    ______ ____
ROOT
ATOM      1  O   UNL     1      34.826 -17.295 -24.080  0.00  0.00    -0.286 OA
ATOM      2  N   UNL     1      33.065 -13.892 -22.627  0.00  0.00    -0.250 N 
ATOM      3  N   UNL     1      32.555 -13.196 -24.906  0.00  0.00    -0.228 NA
ATOM      4  C   UNL     1      34.177 -16.022 -22.198  0.00  0.00    +0.107 C 
ATOM      5  C   UNL     1      33.592 -14.885 -21.806  0.00  0.00    +0.079 C 
ATOM      6  C   UNL     1      34.288 -16.283 -23.650  0.00  0.00    +0.204 C 
ATOM      7  C   UNL     1      33.715 -15.263 -24.559  0.00  0.00    +0.071 C 
ATOM      8  C   UNL     1      33.115 -14.098 -24.053  0.00  0.00    +0.142 C 
ATOM      9  C   UNL     1      33.760 -15.481 -25.940  0.00  0.00    +0.008 C 
ATOM     10  C   UNL     1      33.202 -14.547 -26.799  0.00  0.00    +0.021 C 
ATOM     11  C   UNL     1      32.614 -13.433 -26.236  0.00  0.00    +0.100 C 
ENDROOT
BRANCH   2  12
ATOM     12  C   UNL     1      32.499 -12.710 -22.037  0.00  0.00    +0.058 C 
ATOM     13  C   UNL     1      32.525 -11.494 -22.729  0.00  0.00    +0.023 C 
ATOM     14  C   UNL     1      31.915 -12.765 -20.767  0.00  0.00    +0.015 C 
ATOM     15  C   UNL     1      31.975 -10.347 -22.158  0.00  0.00    +0.043 C 
ATOM     16  C   UNL     1      31.366 -11.618 -20.195  0.00  0.00    +0.002 C 
ATOM     17  C   UNL     1      31.395 -10.408 -20.890  0.00  0.00    +0.008 C 
BRANCH  15  18
ATOM     18  C   UNL     1      32.004  -9.108 -22.869  0.00  0.00    -0.060 C 
ATOM     19  C   UNL     1      32.028  -8.066 -23.468  0.00  0.00    -0.058 C 
BRANCH  19  22
ATOM     20  O   UNL     1      34.184  -5.047 -26.432  0.00  0.00    -0.163 OA
ATOM     21  N   UNL     1      33.188  -5.322 -25.688  0.00  0.00    -0.127 N 
ATOM     22  C   UNL     1      32.056  -6.825 -24.179  0.00  0.00    +0.063 C 
ATOM     23  C   UNL     1      33.139  -6.515 -24.993  0.00  0.00    +0.129 C 
ATOM     24  C   UNL     1      31.006  -5.924 -24.060  0.00  0.00    +0.012 C 
ATOM     25  C   UNL     1      31.044  -4.720 -24.754  0.00  0.00    +0.023 C 
ATOM     26  C   UNL     1      32.139  -4.432 -25.563  0.00  0.00    +0.121 C 
ENDBRANCH  19  22
ENDBRANCH  15  18
ENDBRANCH   2  12
BRANCH   4  29
ATOM     27  O   UNL     1      35.285 -16.512 -20.182  0.00  0.00    -0.270 OA
ATOM     28  N   UNL     1      34.421 -18.265 -21.448  0.00  0.00    -0.302 N 
ATOM     29  C   UNL     1      34.687 -16.934 -21.172  0.00  0.00    +0.250 C 
ATOM     30  H   UNL     1      33.932 -18.488 -22.273  0.00  0.00    +0.150 HD
BRANCH  28  31
ATOM     31  C   UNL     1      34.827 -19.334 -20.579  0.00  0.00    +0.072 C 
ATOM     32  C   UNL     1      35.095 -20.699 -21.121  0.00  0.00    +0.021 C 
ATOM     33  C   UNL     1      33.891 -20.454 -20.258  0.00  0.00    +0.021 C 
ENDBRANCH  28  31
ENDBRANCH   4  29
TORSDOF 5
ENDMDL
MODEL 4
REMARK VINA RESULT:     -10.8      4.031     10.568
REMARK  Name = 9919680
REMARK  5 active torsions:
REMARK  status: ('A' for Active; 'I' for Inactive)
REMARK    1  A    between atoms: N_2  and  C_12
REMARK    2  A    between atoms: C_4  and  C_29
REMARK    3  A    between atoms: C_15  and  C_18
REMARK    4  A    between atoms: C_19  and  C_22
REMARK    5  A    between atoms: N_28  and  C_31
REMARK                            x       y       z     vdW  Elec       q    Type
REMARK                         _______ _______ _______ _____ _____    ______ ____
ROOT
ATOM      1  O   UNL     1      32.303 -11.728 -23.246  0.00  0.00    -0.286 OA
ATOM      2  N   UNL     1      33.660 -15.562 -23.742  0.00  0.00    -0.250 N 
ATOM      3  N   UNL     1      33.934 -15.145 -26.127  0.00  0.00    -0.228 NA
ATOM      4  C   UNL     1      32.879 -13.793 -22.253  0.00  0.00    +0.107 C 
ATOM      5  C   UNL     1      33.324 -15.030 -22.501  0.00  0.00    +0.079 C 
ATOM      6  C   UNL     1      32.721 -12.868 -23.397  0.00  0.00    +0.204 C 
ATOM      7  C   UNL     1      33.093 -13.387 -24.734  0.00  0.00    +0.071 C 
ATOM      8  C   UNL     1      33.555 -14.704 -24.896  0.00  0.00    +0.142 C 
ATOM      9  C   UNL     1      32.998 -12.540 -25.843  0.00  0.00    +0.008 C 
ATOM     10  C   UNL     1      33.370 -13.006 -27.094  0.00  0.00    +0.021 C 
ATOM     11  C   UNL     1      33.830 -14.304 -27.182  0.00  0.00    +0.100 C 
ENDROOT
BRANCH   2  12
ATOM     12  C   UNL     1      34.090 -16.930 -23.835  0.00  0.00    +0.058 C 
ATOM     13  C   UNL     1      34.287 -17.689 -22.675  0.00  0.00    +0.023 C 
ATOM     14  C   UNL     1      34.316 -17.516 -25.085  0.00  0.00    +0.015 C 
ATOM     15  C   UNL     1      34.704 -19.016 -22.765  0.00  0.00    +0.043 C 
ATOM     16  C   UNL     1      34.733 -18.844 -25.175  0.00  0.00    +0.002 C 
ATOM     17  C   UNL     1      34.928 -19.595 -24.015  0.00  0.00    +0.008 C 
BRANCH  15  18
ATOM     18  C   UNL     1      34.902 -19.786 -21.577  0.00  0.00    -0.060 C 
ATOM     19  C   UNL     1      35.069 -20.434 -20.578  0.00  0.00    -0.058 C 
BRANCH  19  22
ATOM     20  O   UNL     1      33.428 -23.402 -17.255  0.00  0.00    -0.163 OA
ATOM     21  N   UNL     1      34.389 -22.712 -17.723  0.00  0.00    -0.127 N 
ATOM     22  C   UNL     1      35.266 -21.205 -19.389  0.00  0.00    +0.063 C 
ATOM     23  C   UNL     1      34.222 -21.961 -18.870  0.00  0.00    +0.129 C 
ATOM     24  C   UNL     1      36.497 -21.200 -18.747  0.00  0.00    +0.012 C 
ATOM     25  C   UNL     1      36.678 -21.952 -17.591  0.00  0.00    +0.023 C 
ATOM     26  C   UNL     1      35.618 -22.701 -17.090  0.00  0.00    +0.121 C 
ENDBRANCH  19  22
ENDBRANCH  15  18
ENDBRANCH   2  12
BRANCH   4  29
ATOM     27  O   UNL     1      32.753 -14.218 -19.944  0.00  0.00    -0.270 OA
ATOM     28  N   UNL     1      32.046 -12.150 -20.750  0.00  0.00    -0.302 N 
ATOM     29  C   UNL     1      32.562 -13.430 -20.870  0.00  0.00    +0.250 C 
ATOM     30  H   UNL     1      31.937 -11.606 -21.563  0.00  0.00    +0.150 HD
BRANCH  28  31
ATOM     31  C   UNL     1      31.665 -11.583 -19.487  0.00  0.00    +0.072 C 
ATOM     32  C   UNL     1      30.615 -10.523 -19.411  0.00  0.00    +0.021 C 
ATOM     33  C   UNL     1      32.051 -10.184 -19.131  0.00  0.00    +0.021 C 
ENDBRANCH  28  31
ENDBRANCH   4  29
TORSDOF 5
ENDMDL
MODEL 5
REMARK VINA RESULT:      -9.9      6.426     12.026
REMARK  Name = 9919680
REMARK  5 active torsions:
REMARK  status: ('A' for Active; 'I' for Inactive)
REMARK    1  A    between atoms: N_2  and  C_12
REMARK    2  A    between atoms: C_4  and  C_29
REMARK    3  A    between atoms: C_15  and  C_18
REMARK    4  A    between atoms: C_19  and  C_22
REMARK    5  A    between atoms: N_28  and  C_31
REMARK                            x       y       z     vdW  Elec       q    Type
REMARK                         _______ _______ _______ _____ _____    ______ ____
ROOT
ATOM      1  O   UNL     1      31.583 -23.676 -12.604  0.00  0.00    -0.286 OA
ATOM      2  N   UNL     1      32.854 -23.234 -16.474  0.00  0.00    -0.250 N 
ATOM      3  N   UNL     1      30.584 -22.652 -17.142  0.00  0.00    -0.228 NA
ATOM      4  C   UNL     1      33.381 -23.702 -14.137  0.00  0.00    +0.107 C 
ATOM      5  C   UNL     1      33.713 -23.544 -15.424  0.00  0.00    +0.079 C 
ATOM      6  C   UNL     1      31.960 -23.531 -13.759  0.00  0.00    +0.204 C 
ATOM      7  C   UNL     1      31.017 -23.173 -14.844  0.00  0.00    +0.071 C 
ATOM      8  C   UNL     1      31.460 -23.025 -16.169  0.00  0.00    +0.142 C 
ATOM      9  C   UNL     1      29.670 -22.962 -14.532  0.00  0.00    +0.008 C 
ATOM     10  C   UNL     1      28.784 -22.599 -15.534  0.00  0.00    +0.021 C 
ATOM     11  C   UNL     1      29.287 -22.456 -16.811  0.00  0.00    +0.100 C 
ENDROOT
BRANCH   2  12
ATOM     12  C   UNL     1      33.375 -23.135 -17.810  0.00  0.00    +0.058 C 
ATOM     13  C   UNL     1      33.523 -21.884 -18.420  0.00  0.00    +0.023 C 
ATOM     14  C   UNL     1      33.740 -24.288 -18.512  0.00  0.00    +0.015 C 
ATOM     15  C   UNL     1      34.029 -21.788 -19.715  0.00  0.00    +0.043 C 
ATOM     16  C   UNL     1      34.246 -24.193 -19.808  0.00  0.00    +0.002 C 
ATOM     17  C   UNL     1      34.390 -22.942 -20.411  0.00  0.00    +0.008 C 
BRANCH  15  18
ATOM     18  C   UNL     1      34.178 -20.508 -20.332  0.00  0.00    -0.060 C 
ATOM     19  C   UNL     1      34.303 -19.430 -20.852  0.00  0.00    -0.058 C 
BRANCH  19  22
ATOM     20  O   UNL     1      34.996 -16.763 -24.719  0.00  0.00    -0.163 OA
ATOM     21  N   UNL     1      34.808 -16.835 -23.462  0.00  0.00    -0.127 N 
ATOM     22  C   UNL     1      34.452 -18.150 -21.472  0.00  0.00    +0.063 C 
ATOM     23  C   UNL     1      34.659 -18.061 -22.843  0.00  0.00    +0.129 C 
ATOM     24  C   UNL     1      34.394 -16.991 -20.709  0.00  0.00    +0.012 C 
ATOM     25  C   UNL     1      34.542 -15.751 -21.320  0.00  0.00    +0.023 C 
ATOM     26  C   UNL     1      34.748 -15.687 -22.695  0.00  0.00    +0.121 C 
ENDBRANCH  19  22
ENDBRANCH  15  18
ENDBRANCH   2  12
BRANCH   4  29
ATOM     27  O   UNL     1      34.450 -23.571 -12.047  0.00  0.00    -0.270 OA
ATOM     28  N   UNL     1      35.364 -24.936 -13.697  0.00  0.00    -0.302 N 
ATOM     29  C   UNL     1      34.435 -24.048 -13.182  0.00  0.00    +0.250 C 
ATOM     30  H   UNL     1      35.252 -25.253 -14.622  0.00  0.00    +0.150 HD
BRANCH  28  31
ATOM     31  C   UNL     1      36.485 -25.414 -12.937  0.00  0.00    +0.072 C 
ATOM     32  C   UNL     1      37.825 -24.768 -13.064  0.00  0.00    +0.021 C 
ATOM     33  C   UNL     1      37.601 -26.150 -13.605  0.00  0.00    +0.021 C 
ENDBRANCH  28  31
ENDBRANCH   4  29
TORSDOF 5
ENDMDL
MODEL 6
REMARK VINA RESULT:      -9.5      5.023     10.536
REMARK  Name = 9919680
REMARK  5 active torsions:
REMARK  status: ('A' for Active; 'I' for Inactive)
REMARK    1  A    between atoms: N_2  and  C_12
REMARK    2  A    between atoms: C_4  and  C_29
REMARK    3  A    between atoms: C_15  and  C_18
REMARK    4  A    between atoms: C_19  and  C_22
REMARK    5  A    between atoms: N_28  and  C_31
REMARK                            x       y       z     vdW  Elec       q    Type
REMARK                         _______ _______ _______ _____ _____    ______ ____
ROOT
ATOM      1  O   UNL     1      33.164 -23.923 -14.622  0.00  0.00    -0.286 OA
ATOM      2  N   UNL     1      34.609 -22.173 -18.033  0.00  0.00    -0.250 N 
ATOM      3  N   UNL     1      36.877 -22.383 -17.166  0.00  0.00    -0.228 NA
ATOM      4  C   UNL     1      32.708 -23.017 -16.755  0.00  0.00    +0.107 C 
ATOM      5  C   UNL     1      33.259 -22.446 -17.833  0.00  0.00    +0.079 C 
ATOM      6  C   UNL     1      33.601 -23.412 -15.644  0.00  0.00    +0.204 C 
ATOM      7  C   UNL     1      35.050 -23.163 -15.828  0.00  0.00    +0.071 C 
ATOM      8  C   UNL     1      35.538 -22.560 -16.999  0.00  0.00    +0.142 C 
ATOM      9  C   UNL     1      35.941 -23.555 -14.823  0.00  0.00    +0.008 C 
ATOM     10  C   UNL     1      37.301 -23.352 -14.996  0.00  0.00    +0.021 C 
ATOM     11  C   UNL     1      37.714 -22.770 -16.177  0.00  0.00    +0.100 C 
ENDROOT
BRANCH   2  12
ATOM     12  C   UNL     1      35.029 -21.521 -19.242  0.00  0.00    +0.058 C 
ATOM     13  C   UNL     1      34.531 -20.255 -19.572  0.00  0.00    +0.023 C 
ATOM     14  C   UNL     1      35.942 -22.144 -20.100  0.00  0.00    +0.015 C 
ATOM     15  C   UNL     1      34.939 -19.621 -20.745  0.00  0.00    +0.043 C 
ATOM     16  C   UNL     1      36.350 -21.511 -21.274  0.00  0.00    +0.002 C 
ATOM     17  C   UNL     1      35.849 -20.249 -21.597  0.00  0.00    +0.008 C 
BRANCH  15  18
ATOM     18  C   UNL     1      34.427 -18.329 -21.076  0.00  0.00    -0.060 C 
ATOM     19  C   UNL     1      33.997 -17.241 -21.355  0.00  0.00    -0.058 C 
BRANCH  19  22
ATOM     20  O   UNL     1      33.218 -13.792 -24.523  0.00  0.00    -0.163 OA
ATOM     21  N   UNL     1      33.112 -14.222 -23.330  0.00  0.00    -0.127 N 
ATOM     22  C   UNL     1      33.485 -15.947 -21.687  0.00  0.00    +0.063 C 
ATOM     23  C   UNL     1      33.597 -15.469 -22.987  0.00  0.00    +0.129 C 
ATOM     24  C   UNL     1      32.878 -15.163 -20.715  0.00  0.00    +0.012 C 
ATOM     25  C   UNL     1      32.386 -13.906 -21.049  0.00  0.00    +0.023 C 
ATOM     26  C   UNL     1      32.509 -13.448 -22.356  0.00  0.00    +0.121 C 
ENDBRANCH  19  22
ENDBRANCH  15  18
ENDBRANCH   2  12
BRANCH   4  29
ATOM     27  O   UNL     1      30.496 -22.351 -17.192  0.00  0.00    -0.270 OA
ATOM     28  N   UNL     1      30.872 -24.398 -16.149  0.00  0.00    -0.302 N 
ATOM     29  C   UNL     1      31.256 -23.202 -16.730  0.00  0.00    +0.250 C 
ATOM     30  H   UNL     1      31.569 -25.006 -15.813  0.00  0.00    +0.150 HD
BRANCH  28  31
ATOM     31  C   UNL     1      29.496 -24.790 -16.018  0.00  0.00    +0.072 C 
ATOM     32  C   UNL     1      28.510 -23.901 -15.333  0.00  0.00    +0.021 C 
ATOM     33  C   UNL     1      28.939 -25.187 -14.689  0.00  0.00    +0.021 C 
ENDBRANCH  28  31
ENDBRANCH   4  29
TORSDOF 5
ENDMDL
MODEL 7
REMARK VINA RESULT:      -9.1      2.078     10.505
REMARK  Name = 9919680
REMARK  5 active torsions:
REMARK  status: ('A' for Active; 'I' for Inactive)
REMARK    1  A    between atoms: N_2  and  C_12
REMARK    2  A    between atoms: C_4  and  C_29
REMARK    3  A    between atoms: C_15  and  C_18
REMARK    4  A    between atoms: C_19  and  C_22
REMARK    5  A    between atoms: N_28  and  C_31
REMARK                            x       y       z     vdW  Elec       q    Type
REMARK                         _______ _______ _______ _____ _____    ______ ____
ROOT
ATOM      1  O   UNL     1      31.594  -7.019 -20.756  0.00  0.00    -0.286 OA
ATOM      2  N   UNL     1      32.683 -10.136 -23.183  0.00  0.00    -0.250 N 
ATOM      3  N   UNL     1      32.195 -11.698 -21.378  0.00  0.00    -0.228 NA
ATOM      4  C   UNL     1      32.319  -7.741 -22.886  0.00  0.00    +0.107 C 
ATOM      5  C   UNL     1      32.665  -8.812 -23.610  0.00  0.00    +0.079 C 
ATOM      6  C   UNL     1      31.907  -7.955 -21.481  0.00  0.00    +0.204 C 
ATOM      7  C   UNL     1      31.887  -9.354 -20.994  0.00  0.00    +0.071 C 
ATOM      8  C   UNL     1      32.265 -10.417 -21.832  0.00  0.00    +0.142 C 
ATOM      9  C   UNL     1      31.467  -9.613 -19.686  0.00  0.00    +0.008 C 
ATOM     10  C   UNL     1      31.418 -10.920 -19.228  0.00  0.00    +0.021 C 
ATOM     11  C   UNL     1      31.786 -11.918 -20.107  0.00  0.00    +0.100 C 
ENDROOT
BRANCH   2  12
ATOM     12  C   UNL     1      33.116 -11.166 -24.086  0.00  0.00    +0.058 C 
ATOM     13  C   UNL     1      33.418 -12.446 -23.606  0.00  0.00    +0.023 C 
ATOM     14  C   UNL     1      33.238 -10.901 -25.454  0.00  0.00    +0.015 C 
ATOM     15  C   UNL     1      33.836 -13.446 -24.482  0.00  0.00    +0.043 C 
ATOM     16  C   UNL     1      33.657 -11.901 -26.331  0.00  0.00    +0.002 C 
ATOM     17  C   UNL     1      33.957 -13.174 -25.846  0.00  0.00    +0.008 C 
BRANCH  15  18
ATOM     18  C   UNL     1      34.143 -14.751 -23.986  0.00  0.00    -0.060 C 
ATOM     19  C   UNL     1      34.401 -15.849 -23.569  0.00  0.00    -0.058 C 
BRANCH  19  22
ATOM     20  O   UNL     1      36.196 -18.679 -20.205  0.00  0.00    -0.163 OA
ATOM     21  N   UNL     1      35.632 -18.554 -21.339  0.00  0.00    -0.127 N 
ATOM     22  C   UNL     1      34.707 -17.155 -23.073  0.00  0.00    +0.063 C 
ATOM     23  C   UNL     1      35.325 -17.301 -21.837  0.00  0.00    +0.129 C 
ATOM     24  C   UNL     1      34.393 -18.281 -23.823  0.00  0.00    +0.012 C 
ATOM     25  C   UNL     1      34.698 -19.546 -23.333  0.00  0.00    +0.023 C 
ATOM     26  C   UNL     1      35.316 -19.669 -22.092  0.00  0.00    +0.121 C 
ENDBRANCH  19  22
ENDBRANCH  15  18
ENDBRANCH   2  12
BRANCH   4  29
ATOM     27  O   UNL     1      33.310  -6.119 -24.270  0.00  0.00    -0.270 OA
ATOM     28  N   UNL     1      31.322  -5.602 -23.173  0.00  0.00    -0.302 N 
ATOM     29  C   UNL     1      32.384  -6.421 -23.517  0.00  0.00    +0.250 C 
ATOM     30  H   UNL     1      30.636  -5.951 -22.560  0.00  0.00    +0.150 HD
BRANCH  28  31
ATOM     31  C   UNL     1      31.180  -4.264 -23.676  0.00  0.00    +0.072 C 
ATOM     32  C   UNL     1      31.969  -3.140 -23.088  0.00  0.00    +0.021 C 
ATOM     33  C   UNL     1      30.486  -3.216 -22.868  0.00  0.00    +0.021 C 
ENDBRANCH  28  31
ENDBRANCH   4  29
TORSDOF 5
ENDMDL
MODEL 8
REMARK VINA RESULT:      -8.7      6.007     11.862
REMARK  Name = 9919680
REMARK  5 active torsions:
REMARK  status: ('A' for Active; 'I' for Inactive)
REMARK    1  A    between atoms: N_2  and  C_12
REMARK    2  A    between atoms: C_4  and  C_29
REMARK    3  A    between atoms: C_15  and  C_18
REMARK    4  A    between atoms: C_19  and  C_22
REMARK    5  A    between atoms: N_28  and  C_31
REMARK                            x       y       z     vdW  Elec       q    Type
REMARK                         _______ _______ _______ _____ _____    ______ ____
ROOT
ATOM      1  O   UNL     1      31.015 -23.765 -13.323  0.00  0.00    -0.286 OA
ATOM      2  N   UNL     1      32.923 -23.159 -16.899  0.00  0.00    -0.250 N 
ATOM      3  N   UNL     1      35.071 -23.227 -15.751  0.00  0.00    -0.228 NA
ATOM      4  C   UNL     1      30.844 -23.494 -15.664  0.00  0.00    +0.107 C 
ATOM      5  C   UNL     1      31.542 -23.291 -16.788  0.00  0.00    +0.079 C 
ATOM      6  C   UNL     1      31.590 -23.596 -14.390  0.00  0.00    +0.204 C 
ATOM      7  C   UNL     1      33.066 -23.488 -14.468  0.00  0.00    +0.071 C 
ATOM      8  C   UNL     1      33.712 -23.278 -15.697  0.00  0.00    +0.142 C 
ATOM      9  C   UNL     1      33.820 -23.617 -13.297  0.00  0.00    +0.008 C 
ATOM     10  C   UNL     1      35.202 -23.545 -13.361  0.00  0.00    +0.021 C 
ATOM     11  C   UNL     1      35.775 -23.354 -14.602  0.00  0.00    +0.100 C 
ENDROOT
BRANCH   2  12
ATOM     12  C   UNL     1      33.511 -22.909 -18.186  0.00  0.00    +0.058 C 
ATOM     13  C   UNL     1      33.593 -21.603 -18.683  0.00  0.00    +0.023 C 
ATOM     14  C   UNL     1      34.008 -23.968 -18.953  0.00  0.00    +0.015 C 
ATOM     15  C   UNL     1      34.164 -21.360 -19.932  0.00  0.00    +0.043 C 
ATOM     16  C   UNL     1      34.578 -23.725 -20.202  0.00  0.00    +0.002 C 
ATOM     17  C   UNL     1      34.656 -22.422 -20.693  0.00  0.00    +0.008 C 
BRANCH  15  18
ATOM     18  C   UNL     1      34.245 -20.025 -20.434  0.00  0.00    -0.060 C 
ATOM     19  C   UNL     1      34.314 -18.901 -20.857  0.00  0.00    -0.058 C 
BRANCH  19  22
ATOM     20  O   UNL     1      34.759 -15.866 -24.482  0.00  0.00    -0.163 OA
ATOM     21  N   UNL     1      34.627 -16.060 -23.230  0.00  0.00    -0.127 N 
ATOM     22  C   UNL     1      34.396 -17.564 -21.359  0.00  0.00    +0.063 C 
ATOM     23  C   UNL     1      34.543 -17.343 -22.723  0.00  0.00    +0.129 C 
ATOM     24  C   UNL     1      34.334 -16.483 -20.490  0.00  0.00    +0.012 C 
ATOM     25  C   UNL     1      34.417 -15.188 -20.989  0.00  0.00    +0.023 C 
ATOM     26  C   UNL     1      34.563 -14.990 -22.358  0.00  0.00    +0.121 C 
ENDBRANCH  19  22
ENDBRANCH  15  18
ENDBRANCH   2  12
BRANCH   4  29
ATOM     27  O   UNL     1      28.736 -24.257 -14.953  0.00  0.00    -0.270 OA
ATOM     28  N   UNL     1      28.861 -22.860 -16.812  0.00  0.00    -0.302 N 
ATOM     29  C   UNL     1      29.386 -23.587 -15.756  0.00  0.00    +0.250 C 
ATOM     30  H   UNL     1      29.478 -22.358 -17.393  0.00  0.00    +0.150 HD
BRANCH  28  31
ATOM     31  C   UNL     1      27.454 -22.805 -17.093  0.00  0.00    +0.072 C 
ATOM     32  C   UNL     1      26.812 -21.531 -17.536  0.00  0.00    +0.021 C 
ATOM     33  C   UNL     1      26.519 -22.089 -16.173  0.00  0.00    +0.021 C 
ENDBRANCH  28  31
ENDBRANCH   4  29
TORSDOF 5
ENDMDL
MODEL 9
REMARK VINA RESULT:      -8.6      3.163     11.008
REMARK  Name = 9919680
REMARK  5 active torsions:
REMARK  status: ('A' for Active; 'I' for Inactive)
REMARK    1  A    between atoms: N_2  and  C_12
REMARK    2  A    between atoms: C_4  and  C_29
REMARK    3  A    between atoms: C_15  and  C_18
REMARK    4  A    between atoms: C_19  and  C_22
REMARK    5  A    between atoms: N_28  and  C_31
REMARK                            x       y       z     vdW  Elec       q    Type
REMARK                         _______ _______ _______ _____ _____    ______ ____
ROOT
ATOM      1  O   UNL     1      32.296  -2.304 -26.910  0.00  0.00    -0.286 OA
ATOM      2  N   UNL     1      32.293  -5.321 -24.137  0.00  0.00    -0.250 N 
ATOM      3  N   UNL     1      30.828  -3.995 -22.712  0.00  0.00    -0.228 NA
ATOM      4  C   UNL     1      32.999  -4.480 -26.317  0.00  0.00    +0.107 C 
ATOM      5  C   UNL     1      32.952  -5.413 -25.359  0.00  0.00    +0.079 C 
ATOM      6  C   UNL     1      32.282  -3.207 -26.084  0.00  0.00    +0.204 C 
ATOM      7  C   UNL     1      31.544  -3.078 -24.806  0.00  0.00    +0.071 C 
ATOM      8  C   UNL     1      31.550  -4.117 -23.859  0.00  0.00    +0.142 C 
ATOM      9  C   UNL     1      30.818  -1.910 -24.554  0.00  0.00    +0.008 C 
ATOM     10  C   UNL     1      30.101  -1.790 -23.374  0.00  0.00    +0.021 C 
ATOM     11  C   UNL     1      30.136  -2.853 -22.495  0.00  0.00    +0.100 C 
ENDROOT
BRANCH   2  12
ATOM     12  C   UNL     1      32.374  -6.410 -23.204  0.00  0.00    +0.058 C 
ATOM     13  C   UNL     1      32.606  -7.714 -23.657  0.00  0.00    +0.023 C 
ATOM     14  C   UNL     1      32.224  -6.177 -21.832  0.00  0.00    +0.015 C 
ATOM     15  C   UNL     1      32.686  -8.771 -22.752  0.00  0.00    +0.043 C 
ATOM     16  C   UNL     1      32.304  -7.234 -20.926  0.00  0.00    +0.002 C 
ATOM     17  C   UNL     1      32.534  -8.532 -21.385  0.00  0.00    +0.008 C 
BRANCH  15  18
ATOM     18  C   UNL     1      32.923 -10.099 -23.221  0.00  0.00    -0.060 C 
ATOM     19  C   UNL     1      33.123 -11.218 -23.616  0.00  0.00    -0.058 C 
BRANCH  19  22
ATOM     20  O   UNL     1      33.507 -14.342 -27.171  0.00  0.00    -0.163 OA
ATOM     21  N   UNL     1      33.545 -14.100 -25.921  0.00  0.00    -0.127 N 
ATOM     22  C   UNL     1      33.361 -12.548 -24.084  0.00  0.00    +0.063 C 
ATOM     23  C   UNL     1      33.320 -12.822 -25.446  0.00  0.00    +0.129 C 
ATOM     24  C   UNL     1      33.631 -13.571 -23.185  0.00  0.00    +0.012 C 
ATOM     25  C   UNL     1      33.859 -14.861 -23.651  0.00  0.00    +0.023 C 
ATOM     26  C   UNL     1      33.813 -15.112 -25.019  0.00  0.00    +0.121 C 
ENDBRANCH  19  22
ENDBRANCH  15  18
ENDBRANCH   2  12
BRANCH   4  29
ATOM     27  O   UNL     1      33.208  -5.082 -28.581  0.00  0.00    -0.270 OA
ATOM     28  N   UNL     1      35.134  -4.636 -27.351  0.00  0.00    -0.302 N 
ATOM     29  C   UNL     1      33.767  -4.764 -27.531  0.00  0.00    +0.250 C 
ATOM     30  H   UNL     1      35.471  -4.375 -26.463  0.00  0.00    +0.150 HD
BRANCH  28  31
ATOM     31  C   UNL     1      36.081  -4.866 -28.406  0.00  0.00    +0.072 C 
ATOM     32  C   UNL     1      37.546  -4.702 -28.166  0.00  0.00    +0.021 C 
ATOM     33  C   UNL     1      36.811  -3.725 -29.037  0.00  0.00    +0.021 C 
ENDBRANCH  28  31
ENDBRANCH   4  29
TORSDOF 5
ENDMDL
