MODEL 1
REMARK VINA RESULT:      -7.4      0.000      0.000
REMARK  Name = 637542
REMARK  4 active torsions:
REMARK  status: ('A' for Active; 'I' for Inactive)
REMARK    1  A    between atoms: C_1  and  C_9
REMARK    2  A    between atoms: C_6  and  O_7
REMARK    3  A    between atoms: C_10  and  C_12
REMARK    4  A    between atoms: C_12  and  O_13
REMARK                            x       y       z     vdW  Elec       q    Type
REMARK                         _______ _______ _______ _____ _____    ______ ____
ROOT
ATOM      1  C   UNL     1      34.705 -19.636 -21.147  0.00  0.00    +0.000 C 
ATOM      2  C   UNL     1      35.890 -20.184 -20.658  0.00  0.00    +0.003 C 
ATOM      3  C   UNL     1      33.475 -20.125 -20.703  0.00  0.00    +0.003 C 
ATOM      4  C   UNL     1      35.847 -21.221 -19.726  0.00  0.00    +0.037 C 
ATOM      5  C   UNL     1      33.433 -21.161 -19.771  0.00  0.00    +0.037 C 
ATOM      6  C   UNL     1      34.618 -21.710 -19.282  0.00  0.00    +0.134 C 
ENDROOT
BRANCH   6   7
ATOM      7  O   UNL     1      34.577 -22.722 -18.373  0.00  0.00    -0.506 OA
ATOM      8  H   UNL     1      35.250 -23.373 -18.368  0.00  0.00    +0.292 HD
ENDBRANCH   6   7
BRANCH   1   9
ATOM      9  C   UNL     1      34.748 -18.556 -22.119  0.00  0.00    +0.007 C 
ATOM     10  C   UNL     1      35.040 -18.697 -23.432  0.00  0.00    +0.082 C 
BRANCH  10  12
ATOM     11  O   UNL     1      34.592 -17.464 -25.454  0.00  0.00    -0.245 OA
ATOM     12  C   UNL     1      35.042 -17.518 -24.321  0.00  0.00    +0.338 C 
BRANCH  12  13
ATOM     13  O   UNL     1      35.629 -16.486 -23.672  0.00  0.00    -0.477 OA
ATOM     14  H   UNL     1      35.127 -15.957 -23.082  0.00  0.00    +0.295 HD
ENDBRANCH  12  13
ENDBRANCH  10  12
ENDBRANCH   1   9
TORSDOF 4
ENDMDL
MODEL 2
REMARK VINA RESULT:      -7.2      1.159      1.579
REMARK  Name = 637542
REMARK  4 active torsions:
REMARK  status: ('A' for Active; 'I' for Inactive)
REMARK    1  A    between atoms: C_1  and  C_9
REMARK    2  A    between atoms: C_6  and  O_7
REMARK    3  A    between atoms: C_10  and  C_12
REMARK    4  A    between atoms: C_12  and  O_13
REMARK                            x       y       z     vdW  Elec       q    Type
REMARK                         _______ _______ _______ _____ _____    ______ ____
ROOT
ATOM      1  C   UNL     1      34.625 -19.553 -20.962  0.00  0.00    +0.000 C 
ATOM      2  C   UNL     1      35.820 -20.155 -20.570  0.00  0.00    +0.003 C 
ATOM      3  C   UNL     1      33.405 -20.080 -20.536  0.00  0.00    +0.003 C 
ATOM      4  C   UNL     1      35.796 -21.286 -19.754  0.00  0.00    +0.037 C 
ATOM      5  C   UNL     1      33.382 -21.211 -19.720  0.00  0.00    +0.037 C 
ATOM      6  C   UNL     1      34.577 -21.814 -19.328  0.00  0.00    +0.134 C 
ENDROOT
BRANCH   6   7
ATOM      7  O   UNL     1      34.555 -22.917 -18.532  0.00  0.00    -0.506 OA
ATOM      8  H   UNL     1      33.927 -23.594 -18.687  0.00  0.00    +0.292 HD
ENDBRANCH   6   7
BRANCH   1   9
ATOM      9  C   UNL     1      34.648 -18.375 -21.814  0.00  0.00    +0.007 C 
ATOM     10  C   UNL     1      34.889 -17.112 -21.395  0.00  0.00    +0.082 C 
BRANCH  10  12
ATOM     11  O   UNL     1      34.293 -14.943 -22.260  0.00  0.00    -0.245 OA
ATOM     12  C   UNL     1      34.895 -15.998 -22.365  0.00  0.00    +0.338 C 
BRANCH  12  13
ATOM     13  O   UNL     1      35.689 -16.335 -23.408  0.00  0.00    -0.477 OA
ATOM     14  H   UNL     1      35.994 -15.672 -23.997  0.00  0.00    +0.295 HD
ENDBRANCH  12  13
ENDBRANCH  10  12
ENDBRANCH   1   9
TORSDOF 4
ENDMDL
MODEL 3
REMARK VINA RESULT:      -7.2      1.168      5.664
REMARK  Name = 637542
REMARK  4 active torsions:
REMARK  status: ('A' for Active; 'I' for Inactive)
REMARK    1  A    between atoms: C_1  and  C_9
REMARK    2  A    between atoms: C_6  and  O_7
REMARK    3  A    between atoms: C_10  and  C_12
REMARK    4  A    between atoms: C_12  and  O_13
REMARK                            x       y       z     vdW  Elec       q    Type
REMARK                         _______ _______ _______ _____ _____    ______ ____
ROOT
ATOM      1  C   UNL     1      34.235 -19.077 -21.488  0.00  0.00    +0.000 C 
ATOM      2  C   UNL     1      34.723 -19.362 -22.763  0.00  0.00    +0.003 C 
ATOM      3  C   UNL     1      34.242 -17.764 -21.016  0.00  0.00    +0.003 C 
ATOM      4  C   UNL     1      35.220 -18.335 -23.566  0.00  0.00    +0.037 C 
ATOM      5  C   UNL     1      34.738 -16.738 -21.819  0.00  0.00    +0.037 C 
ATOM      6  C   UNL     1      35.226 -17.022 -23.094  0.00  0.00    +0.134 C 
ENDROOT
BRANCH   6   7
ATOM      7  O   UNL     1      35.710 -16.020 -23.877  0.00  0.00    -0.506 OA
ATOM      8  H   UNL     1      36.457 -16.172 -24.423  0.00  0.00    +0.292 HD
ENDBRANCH   6   7
BRANCH   1   9
ATOM      9  C   UNL     1      33.719 -20.147 -20.650  0.00  0.00    +0.007 C 
ATOM     10  C   UNL     1      34.470 -20.975 -19.889  0.00  0.00    +0.082 C 
BRANCH  10  12
ATOM     11  O   UNL     1      32.624 -22.157 -18.885  0.00  0.00    -0.245 OA
ATOM     12  C   UNL     1      33.822 -22.020 -19.071  0.00  0.00    +0.338 C 
BRANCH  12  13
ATOM     13  O   UNL     1      34.781 -22.822 -18.551  0.00  0.00    -0.477 OA
ATOM     14  H   UNL     1      35.394 -23.248 -19.119  0.00  0.00    +0.295 HD
ENDBRANCH  12  13
ENDBRANCH  10  12
ENDBRANCH   1   9
TORSDOF 4
ENDMDL
MODEL 4
REMARK VINA RESULT:      -7.2      1.148      5.696
REMARK  Name = 637542
REMARK  4 active torsions:
REMARK  status: ('A' for Active; 'I' for Inactive)
REMARK    1  A    between atoms: C_1  and  C_9
REMARK    2  A    between atoms: C_6  and  O_7
REMARK    3  A    between atoms: C_10  and  C_12
REMARK    4  A    between atoms: C_12  and  O_13
REMARK                            x       y       z     vdW  Elec       q    Type
REMARK                         _______ _______ _______ _____ _____    ______ ____
ROOT
ATOM      1  C   UNL     1      34.260 -19.068 -21.505  0.00  0.00    +0.000 C 
ATOM      2  C   UNL     1      34.279 -17.760 -21.021  0.00  0.00    +0.003 C 
ATOM      3  C   UNL     1      34.712 -19.340 -22.797  0.00  0.00    +0.003 C 
ATOM      4  C   UNL     1      34.748 -16.724 -21.828  0.00  0.00    +0.037 C 
ATOM      5  C   UNL     1      35.181 -18.304 -23.604  0.00  0.00    +0.037 C 
ATOM      6  C   UNL     1      35.199 -16.996 -23.120  0.00  0.00    +0.134 C 
ENDROOT
BRANCH   6   7
ATOM      7  O   UNL     1      35.657 -15.984 -23.908  0.00  0.00    -0.506 OA
ATOM      8  H   UNL     1      36.390 -15.472 -23.632  0.00  0.00    +0.292 HD
ENDBRANCH   6   7
BRANCH   1   9
ATOM      9  C   UNL     1      33.770 -20.148 -20.664  0.00  0.00    +0.007 C 
ATOM     10  C   UNL     1      34.541 -20.953 -19.898  0.00  0.00    +0.082 C 
BRANCH  10  12
ATOM     11  O   UNL     1      32.723 -22.215 -18.942  0.00  0.00    -0.245 OA
ATOM     12  C   UNL     1      33.918 -22.012 -19.079  0.00  0.00    +0.338 C 
BRANCH  12  13
ATOM     13  O   UNL     1      34.898 -22.740 -18.493  0.00  0.00    -0.477 OA
ATOM     14  H   UNL     1      35.182 -23.543 -18.884  0.00  0.00    +0.295 HD
ENDBRANCH  12  13
ENDBRANCH  10  12
ENDBRANCH   1   9
TORSDOF 4
ENDMDL
MODEL 5
REMARK VINA RESULT:      -6.9      8.480      9.537
REMARK  Name = 637542
REMARK  4 active torsions:
REMARK  status: ('A' for Active; 'I' for Inactive)
REMARK    1  A    between atoms: C_1  and  C_9
REMARK    2  A    between atoms: C_6  and  O_7
REMARK    3  A    between atoms: C_10  and  C_12
REMARK    4  A    between atoms: C_12  and  O_13
REMARK                            x       y       z     vdW  Elec       q    Type
REMARK                         _______ _______ _______ _____ _____    ______ ____
ROOT
ATOM      1  C   UNL     1      29.945 -23.657 -15.341  0.00  0.00    +0.000 C 
ATOM      2  C   UNL     1      29.890 -24.758 -14.488  0.00  0.00    +0.003 C 
ATOM      3  C   UNL     1      31.128 -22.926 -15.460  0.00  0.00    +0.003 C 
ATOM      4  C   UNL     1      31.016 -25.129 -13.752  0.00  0.00    +0.037 C 
ATOM      5  C   UNL     1      32.254 -23.297 -14.726  0.00  0.00    +0.037 C 
ATOM      6  C   UNL     1      32.199 -24.399 -13.872  0.00  0.00    +0.134 C 
ENDROOT
BRANCH   6   7
ATOM      7  O   UNL     1      33.297 -24.761 -13.155  0.00  0.00    -0.506 OA
ATOM      8  H   UNL     1      33.514 -24.303 -12.368  0.00  0.00    +0.292 HD
ENDBRANCH   6   7
BRANCH   1   9
ATOM      9  C   UNL     1      28.771 -23.268 -16.106  0.00  0.00    +0.007 C 
ATOM     10  C   UNL     1      27.843 -22.369 -15.710  0.00  0.00    +0.082 C 
BRANCH  10  12
ATOM     11  O   UNL     1      26.739 -21.846 -17.788  0.00  0.00    -0.245 OA
ATOM     12  C   UNL     1      26.697 -22.053 -16.586  0.00  0.00    +0.338 C 
BRANCH  12  13
ATOM     13  O   UNL     1      25.570 -22.030 -15.836  0.00  0.00    -0.477 OA
ATOM     14  H   UNL     1      25.162 -21.211 -15.630  0.00  0.00    +0.295 HD
ENDBRANCH  12  13
ENDBRANCH  10  12
ENDBRANCH   1   9
TORSDOF 4
ENDMDL
MODEL 6
REMARK VINA RESULT:      -6.9      1.463      5.812
REMARK  Name = 637542
REMARK  4 active torsions:
REMARK  status: ('A' for Active; 'I' for Inactive)
REMARK    1  A    between atoms: C_1  and  C_9
REMARK    2  A    between atoms: C_6  and  O_7
REMARK    3  A    between atoms: C_10  and  C_12
REMARK    4  A    between atoms: C_12  and  O_13
REMARK                            x       y       z     vdW  Elec       q    Type
REMARK                         _______ _______ _______ _____ _____    ______ ____
ROOT
ATOM      1  C   UNL     1      35.217 -18.331 -22.705  0.00  0.00    +0.000 C 
ATOM      2  C   UNL     1      34.822 -18.981 -23.873  0.00  0.00    +0.003 C 
ATOM      3  C   UNL     1      35.244 -16.936 -22.657  0.00  0.00    +0.003 C 
ATOM      4  C   UNL     1      34.455 -18.237 -24.995  0.00  0.00    +0.037 C 
ATOM      5  C   UNL     1      34.877 -16.194 -23.778  0.00  0.00    +0.037 C 
ATOM      6  C   UNL     1      34.482 -16.843 -24.948  0.00  0.00    +0.134 C 
ENDROOT
BRANCH   6   7
ATOM      7  O   UNL     1      34.124 -16.118 -26.042  0.00  0.00    -0.506 OA
ATOM      8  H   UNL     1      34.689 -15.444 -26.363  0.00  0.00    +0.292 HD
ENDBRANCH   6   7
BRANCH   1   9
ATOM      9  C   UNL     1      35.601 -19.105 -21.536  0.00  0.00    +0.007 C 
ATOM     10  C   UNL     1      34.900 -20.139 -21.018  0.00  0.00    +0.082 C 
BRANCH  10  12
ATOM     11  O   UNL     1      34.861 -21.785 -19.258  0.00  0.00    -0.245 OA
ATOM     12  C   UNL     1      35.404 -20.853 -19.828  0.00  0.00    +0.338 C 
BRANCH  12  13
ATOM     13  O   UNL     1      36.587 -20.306 -19.461  0.00  0.00    -0.477 OA
ATOM     14  H   UNL     1      36.600 -19.525 -18.942  0.00  0.00    +0.295 HD
ENDBRANCH  12  13
ENDBRANCH  10  12
ENDBRANCH   1   9
TORSDOF 4
ENDMDL
MODEL 7
REMARK VINA RESULT:      -6.7      9.167     10.409
REMARK  Name = 637542
REMARK  4 active torsions:
REMARK  status: ('A' for Active; 'I' for Inactive)
REMARK    1  A    between atoms: C_1  and  C_9
REMARK    2  A    between atoms: C_6  and  O_7
REMARK    3  A    between atoms: C_10  and  C_12
REMARK    4  A    between atoms: C_12  and  O_13
REMARK                            x       y       z     vdW  Elec       q    Type
REMARK                         _______ _______ _______ _____ _____    ______ ____
ROOT
ATOM      1  C   UNL     1      36.715 -25.207 -14.086  0.00  0.00    +0.000 C 
ATOM      2  C   UNL     1      36.465 -25.052 -12.723  0.00  0.00    +0.003 C 
ATOM      3  C   UNL     1      35.765 -24.795 -15.020  0.00  0.00    +0.003 C 
ATOM      4  C   UNL     1      35.263 -24.488 -12.294  0.00  0.00    +0.037 C 
ATOM      5  C   UNL     1      34.564 -24.231 -14.591  0.00  0.00    +0.037 C 
ATOM      6  C   UNL     1      34.313 -24.076 -13.228  0.00  0.00    +0.134 C 
ENDROOT
BRANCH   6   7
ATOM      7  O   UNL     1      33.141 -23.525 -12.809  0.00  0.00    -0.506 OA
ATOM      8  H   UNL     1      32.487 -23.284 -13.435  0.00  0.00    +0.292 HD
ENDBRANCH   6   7
BRANCH   1   9
ATOM      9  C   UNL     1      37.966 -25.796 -14.533  0.00  0.00    +0.007 C 
ATOM     10  C   UNL     1      39.201 -25.355 -14.203  0.00  0.00    +0.082 C 
BRANCH  10  12
ATOM     11  O   UNL     1      41.240 -26.632 -14.054  0.00  0.00    -0.245 OA
ATOM     12  C   UNL     1      40.398 -26.050 -14.718  0.00  0.00    +0.338 C 
BRANCH  12  13
ATOM     13  O   UNL     1      40.417 -25.941 -16.067  0.00  0.00    -0.477 OA
ATOM     14  H   UNL     1      39.751 -26.358 -16.579  0.00  0.00    +0.295 HD
ENDBRANCH  12  13
ENDBRANCH  10  12
ENDBRANCH   1   9
TORSDOF 4
ENDMDL
MODEL 8
REMARK VINA RESULT:      -6.6      1.501      5.811
REMARK  Name = 637542
REMARK  4 active torsions:
REMARK  status: ('A' for Active; 'I' for Inactive)
REMARK    1  A    between atoms: C_1  and  C_9
REMARK    2  A    between atoms: C_6  and  O_7
REMARK    3  A    between atoms: C_10  and  C_12
REMARK    4  A    between atoms: C_12  and  O_13
REMARK                            x       y       z     vdW  Elec       q    Type
REMARK                         _______ _______ _______ _____ _____    ______ ____
ROOT
ATOM      1  C   UNL     1      34.467 -20.294 -20.486  0.00  0.00    +0.000 C 
ATOM      2  C   UNL     1      35.841 -20.089 -20.368  0.00  0.00    +0.003 C 
ATOM      3  C   UNL     1      33.731 -19.570 -21.425  0.00  0.00    +0.003 C 
ATOM      4  C   UNL     1      36.480 -19.158 -21.188  0.00  0.00    +0.037 C 
ATOM      5  C   UNL     1      34.370 -18.641 -22.245  0.00  0.00    +0.037 C 
ATOM      6  C   UNL     1      35.745 -18.434 -22.127  0.00  0.00    +0.134 C 
ENDROOT
BRANCH   6   7
ATOM      7  O   UNL     1      36.369 -17.527 -22.927  0.00  0.00    -0.506 OA
ATOM      8  H   UNL     1      36.980 -17.816 -23.574  0.00  0.00    +0.292 HD
ENDBRANCH   6   7
BRANCH   1   9
ATOM      9  C   UNL     1      33.800 -21.262 -19.631  0.00  0.00    +0.007 C 
ATOM     10  C   UNL     1      34.410 -22.043 -18.711  0.00  0.00    +0.082 C 
BRANCH  10  12
ATOM     11  O   UNL     1      34.047 -23.919 -17.241  0.00  0.00    -0.245 OA
ATOM     12  C   UNL     1      33.616 -22.984 -17.895  0.00  0.00    +0.338 C 
BRANCH  12  13
ATOM     13  O   UNL     1      32.310 -22.641 -17.985  0.00  0.00    -0.477 OA
ATOM     14  H   UNL     1      32.013 -21.828 -17.624  0.00  0.00    +0.295 HD
ENDBRANCH  12  13
ENDBRANCH  10  12
ENDBRANCH   1   9
TORSDOF 4
ENDMDL
MODEL 9
REMARK VINA RESULT:      -6.5      2.274      5.928
REMARK  Name = 637542
REMARK  4 active torsions:
REMARK  status: ('A' for Active; 'I' for Inactive)
REMARK    1  A    between atoms: C_1  and  C_9
REMARK    2  A    between atoms: C_6  and  O_7
REMARK    3  A    between atoms: C_10  and  C_12
REMARK    4  A    between atoms: C_12  and  O_13
REMARK                            x       y       z     vdW  Elec       q    Type
REMARK                         _______ _______ _______ _____ _____    ______ ____
ROOT
ATOM      1  C   UNL     1      34.528 -17.359 -21.661  0.00  0.00    +0.000 C 
ATOM      2  C   UNL     1      34.232 -16.250 -20.870  0.00  0.00    +0.003 C 
ATOM      3  C   UNL     1      34.800 -17.195 -23.020  0.00  0.00    +0.003 C 
ATOM      4  C   UNL     1      34.204 -14.976 -21.438  0.00  0.00    +0.037 C 
ATOM      5  C   UNL     1      34.774 -15.922 -23.586  0.00  0.00    +0.037 C 
ATOM      6  C   UNL     1      34.476 -14.811 -22.796  0.00  0.00    +0.134 C 
ENDROOT
BRANCH   6   7
ATOM      7  O   UNL     1      34.450 -13.568 -23.349  0.00  0.00    -0.506 OA
ATOM      8  H   UNL     1      33.799 -13.354 -23.988  0.00  0.00    +0.292 HD
ENDBRANCH   6   7
BRANCH   1   9
ATOM      9  C   UNL     1      34.555 -18.688 -21.070  0.00  0.00    +0.007 C 
ATOM     10  C   UNL     1      33.470 -19.456 -20.825  0.00  0.00    +0.082 C 
BRANCH  10  12
ATOM     11  O   UNL     1      32.745 -21.609 -20.019  0.00  0.00    -0.245 OA
ATOM     12  C   UNL     1      33.631 -20.796 -20.228  0.00  0.00    +0.338 C 
BRANCH  12  13
ATOM     13  O   UNL     1      34.940 -20.991 -19.944  0.00  0.00    -0.477 OA
ATOM     14  H   UNL     1      35.189 -21.590 -19.266  0.00  0.00    +0.295 HD
ENDBRANCH  12  13
ENDBRANCH  10  12
ENDBRANCH   1   9
TORSDOF 4
ENDMDL
