MODEL 1
REMARK VINA RESULT:      -9.4      0.000      0.000
REMARK  Name = 445182
REMARK  11 active torsions:
REMARK  status: ('A' for Active; 'I' for Inactive)
REMARK    1  A    between atoms: C_2  and  O_16
REMARK    2  A    between atoms: C_3  and  C_20
REMARK    3  A    between atoms: C_5  and  N_8
REMARK    4  A    between atoms: O_16  and  C_18
REMARK    5  A    between atoms: C_20  and  O_21
REMARK    6  A    between atoms: O_21  and  P_22
REMARK    7  A    between atoms: P_22  and  O_24
REMARK    8  A    between atoms: P_22  and  O_26
REMARK    9  A    between atoms: O_26  and  P_27
REMARK   10  A    between atoms: P_27  and  O_29
REMARK   11  A    between atoms: P_27  and  O_31
REMARK                            x       y       z     vdW  Elec       q    Type
REMARK                         _______ _______ _______ _____ _____    ______ ____
ROOT
ATOM      1  O   UNL     1      34.914 -24.667 -16.072  0.00  0.00    -0.333 OA
ATOM      2  C   UNL     1      36.417 -22.886 -15.633  0.00  0.00    +0.202 C 
ATOM      3  C   UNL     1      36.137 -24.360 -15.373  0.00  0.00    +0.187 C 
ATOM      4  C   UNL     1      35.036 -22.303 -15.819  0.00  0.00    +0.098 C 
ATOM      5  C   UNL     1      34.282 -23.445 -16.479  0.00  0.00    +0.203 C 
ENDROOT
BRANCH   5   8
ATOM      6  O   UNL     1      32.140 -22.407 -18.042  0.00  0.00    -0.252 OA
ATOM      7  O   UNL     1      29.019 -23.679 -14.913  0.00  0.00    -0.270 OA
ATOM      8  N   UNL     1      32.896 -23.483 -16.113  0.00  0.00    -0.219 N 
ATOM      9  N   UNL     1      30.594 -23.047 -16.473  0.00  0.00    -0.236 N 
ATOM     10  C   UNL     1      32.547 -24.068 -14.902  0.00  0.00    +0.071 C 
ATOM     11  C   UNL     1      31.903 -22.940 -16.956  0.00  0.00    +0.315 C 
ATOM     12  C   UNL     1      31.294 -24.167 -14.444  0.00  0.00    +0.047 C 
ATOM     13  C   UNL     1      30.191 -23.619 -15.276  0.00  0.00    +0.250 C 
ATOM     14  C   UNL     1      30.940 -24.801 -13.137  0.00  0.00    +0.037 C 
ATOM     15  H   UNL     1      29.883 -22.675 -17.043  0.00  0.00    +0.159 HD
ENDBRANCH   5   8
BRANCH   2  16
ATOM     16  O   UNL     1      37.167 -22.741 -16.837  0.00  0.00    -0.449 OA
BRANCH  16  18
ATOM     17  O   UNL     1      37.510 -20.459 -16.962  0.00  0.00    -0.250 OA
ATOM     18  C   UNL     1      37.107 -21.511 -17.441  0.00  0.00    +0.318 C 
ATOM     19  C   UNL     1      36.472 -21.627 -18.793  0.00  0.00    +0.121 C 
ENDBRANCH  16  18
ENDBRANCH   2  16
BRANCH   3  20
ATOM     20  C   UNL     1      35.924 -24.672 -13.898  0.00  0.00    +0.187 C 
BRANCH  20  21
ATOM     21  O   UNL     1      36.751 -23.818 -13.125  0.00  0.00    -0.270 OA
BRANCH  21  22
ATOM     22  P   UNL     1      38.185 -24.347 -12.594  0.00  0.00    +0.484 P 
ATOM     23  O   UNL     1      38.847 -23.456 -11.582  0.00  0.00    -0.227 OA
BRANCH  22  24
ATOM     24  O   UNL     1      37.894 -25.849 -12.071  0.00  0.00    -0.302 OA
ATOM     25  H   UNL     1      37.383 -26.331 -12.739  0.00  0.00    +0.222 HD
ENDBRANCH  22  24
BRANCH  22  26
ATOM     26  O   UNL     1      39.054 -24.584 -13.936  0.00  0.00    -0.186 OA
BRANCH  26  27
ATOM     27  P   UNL     1      39.781 -25.909 -14.508  0.00  0.00    +0.481 P 
ATOM     28  O   UNL     1      40.947 -26.384 -13.693  0.00  0.00    -0.227 OA
BRANCH  27  29
ATOM     29  O   UNL     1      38.567 -26.965 -14.659  0.00  0.00    -0.302 OA
ATOM     30  H   UNL     1      38.912 -27.869 -14.572  0.00  0.00    +0.222 HD
ENDBRANCH  27  29
BRANCH  27  31
ATOM     31  O   UNL     1      40.126 -25.507 -16.035  0.00  0.00    -0.302 OA
ATOM     32  H   UNL     1      40.164 -24.540 -16.115  0.00  0.00    +0.222 HD
ENDBRANCH  27  31
ENDBRANCH  26  27
ENDBRANCH  22  26
ENDBRANCH  21  22
ENDBRANCH  20  21
ENDBRANCH   3  20
TORSDOF 11
ENDMDL
MODEL 2
REMARK VINA RESULT:      -9.4      3.495      7.440
REMARK  Name = 445182
REMARK  11 active torsions:
REMARK  status: ('A' for Active; 'I' for Inactive)
REMARK    1  A    between atoms: C_2  and  O_16
REMARK    2  A    between atoms: C_3  and  C_20
REMARK    3  A    between atoms: C_5  and  N_8
REMARK    4  A    between atoms: O_16  and  C_18
REMARK    5  A    between atoms: C_20  and  O_21
REMARK    6  A    between atoms: O_21  and  P_22
REMARK    7  A    between atoms: P_22  and  O_24
REMARK    8  A    between atoms: P_22  and  O_26
REMARK    9  A    between atoms: O_26  and  P_27
REMARK   10  A    between atoms: P_27  and  O_29
REMARK   11  A    between atoms: P_27  and  O_31
REMARK                            x       y       z     vdW  Elec       q    Type
REMARK                         _______ _______ _______ _____ _____    ______ ____
ROOT
ATOM      1  O   UNL     1      34.313 -24.437 -15.494  0.00  0.00    -0.333 OA
ATOM      2  C   UNL     1      34.679 -23.791 -13.242  0.00  0.00    +0.202 C 
ATOM      3  C   UNL     1      33.637 -24.298 -14.228  0.00  0.00    +0.187 C 
ATOM      4  C   UNL     1      35.626 -23.004 -14.118  0.00  0.00    +0.098 C 
ATOM      5  C   UNL     1      35.586 -23.779 -15.425  0.00  0.00    +0.203 C 
ENDROOT
BRANCH   5   8
ATOM      6  O   UNL     1      37.964 -22.367 -16.104  0.00  0.00    -0.252 OA
ATOM      7  O   UNL     1      36.032 -20.599 -19.885  0.00  0.00    -0.270 OA
ATOM      8  N   UNL     1      35.749 -22.939 -16.575  0.00  0.00    -0.219 N 
ATOM      9  N   UNL     1      36.988 -21.492 -17.987  0.00  0.00    -0.236 N 
ATOM     10  C   UNL     1      34.675 -22.787 -17.442  0.00  0.00    +0.071 C 
ATOM     11  C   UNL     1      36.971 -22.278 -16.829  0.00  0.00    +0.315 C 
ATOM     12  C   UNL     1      34.695 -22.034 -18.548  0.00  0.00    +0.047 C 
ATOM     13  C   UNL     1      35.947 -21.306 -18.884  0.00  0.00    +0.250 C 
ATOM     14  C   UNL     1      33.527 -21.884 -19.468  0.00  0.00    +0.037 C 
ATOM     15  H   UNL     1      37.828 -21.020 -18.185  0.00  0.00    +0.159 HD
ENDBRANCH   5   8
BRANCH   2  16
ATOM     16  O   UNL     1      35.370 -24.893 -12.657  0.00  0.00    -0.449 OA
BRANCH  16  18
ATOM     17  O   UNL     1      35.301 -25.036 -10.352  0.00  0.00    -0.250 OA
ATOM     18  C   UNL     1      35.856 -24.699 -11.390  0.00  0.00    +0.318 C 
ATOM     19  C   UNL     1      37.183 -24.005 -11.444  0.00  0.00    +0.121 C 
ENDBRANCH  16  18
ENDBRANCH   2  16
BRANCH   3  20
ATOM     20  C   UNL     1      32.480 -23.327 -14.420  0.00  0.00    +0.187 C 
BRANCH  20  21
ATOM     21  O   UNL     1      31.528 -23.914 -15.292  0.00  0.00    -0.270 OA
BRANCH  21  22
ATOM     22  P   UNL     1      30.241 -24.683 -14.683  0.00  0.00    +0.484 P 
ATOM     23  O   UNL     1      30.090 -26.107 -15.135  0.00  0.00    -0.227 OA
BRANCH  22  24
ATOM     24  O   UNL     1      30.384 -24.504 -13.081  0.00  0.00    -0.302 OA
ATOM     25  H   UNL     1      30.481 -25.374 -12.665  0.00  0.00    +0.222 HD
ENDBRANCH  22  24
BRANCH  22  26
ATOM     26  O   UNL     1      28.986 -23.734 -15.052  0.00  0.00    -0.186 OA
BRANCH  26  27
ATOM     27  P   UNL     1      28.477 -23.154 -16.472  0.00  0.00    +0.481 P 
ATOM     28  O   UNL     1      27.840 -24.170 -17.371  0.00  0.00    -0.227 OA
BRANCH  27  29
ATOM     29  O   UNL     1      27.531 -21.913 -16.050  0.00  0.00    -0.302 OA
ATOM     30  H   UNL     1      27.448 -21.883 -15.083  0.00  0.00    +0.222 HD
ENDBRANCH  27  29
BRANCH  27  31
ATOM     31  O   UNL     1      29.797 -22.437 -17.069  0.00  0.00    -0.302 OA
ATOM     32  H   UNL     1      30.589 -22.837 -16.674  0.00  0.00    +0.222 HD
ENDBRANCH  27  31
ENDBRANCH  26  27
ENDBRANCH  22  26
ENDBRANCH  21  22
ENDBRANCH  20  21
ENDBRANCH   3  20
TORSDOF 11
ENDMDL
MODEL 3
REMARK VINA RESULT:      -9.2      3.378      7.058
REMARK  Name = 445182
REMARK  11 active torsions:
REMARK  status: ('A' for Active; 'I' for Inactive)
REMARK    1  A    between atoms: C_2  and  O_16
REMARK    2  A    between atoms: C_3  and  C_20
REMARK    3  A    between atoms: C_5  and  N_8
REMARK    4  A    between atoms: O_16  and  C_18
REMARK    5  A    between atoms: C_20  and  O_21
REMARK    6  A    between atoms: O_21  and  P_22
REMARK    7  A    between atoms: P_22  and  O_24
REMARK    8  A    between atoms: P_22  and  O_26
REMARK    9  A    between atoms: O_26  and  P_27
REMARK   10  A    between atoms: P_27  and  O_29
REMARK   11  A    between atoms: P_27  and  O_31
REMARK                            x       y       z     vdW  Elec       q    Type
REMARK                         _______ _______ _______ _____ _____    ______ ____
ROOT
ATOM      1  O   UNL     1      34.220 -23.854 -17.320  0.00  0.00    -0.333 OA
ATOM      2  C   UNL     1      35.621 -23.349 -15.475  0.00  0.00    +0.202 C 
ATOM      3  C   UNL     1      34.283 -23.948 -15.883  0.00  0.00    +0.187 C 
ATOM      4  C   UNL     1      35.887 -22.333 -16.561  0.00  0.00    +0.098 C 
ATOM      5  C   UNL     1      35.265 -22.988 -17.784  0.00  0.00    +0.203 C 
ENDROOT
BRANCH   5   8
ATOM      6  O   UNL     1      32.494 -22.645 -18.339  0.00  0.00    -0.252 OA
ATOM      7  O   UNL     1      33.344 -19.284 -21.361  0.00  0.00    -0.270 OA
ATOM      8  N   UNL     1      34.718 -22.037 -18.707  0.00  0.00    -0.219 N 
ATOM      9  N   UNL     1      32.933 -20.970 -19.844  0.00  0.00    -0.236 N 
ATOM     10  C   UNL     1      35.591 -21.206 -19.397  0.00  0.00    +0.071 C 
ATOM     11  C   UNL     1      33.325 -21.941 -18.916  0.00  0.00    +0.315 C 
ATOM     12  C   UNL     1      35.211 -20.278 -20.284  0.00  0.00    +0.047 C 
ATOM     13  C   UNL     1      33.759 -20.117 -20.559  0.00  0.00    +0.250 C 
ATOM     14  C   UNL     1      36.168 -19.394 -21.016  0.00  0.00    +0.037 C 
ATOM     15  H   UNL     1      31.966 -20.885 -20.008  0.00  0.00    +0.159 HD
ENDBRANCH   5   8
BRANCH   2  16
ATOM     16  O   UNL     1      36.631 -24.355 -15.501  0.00  0.00    -0.449 OA
BRANCH  16  18
ATOM     17  O   UNL     1      38.881 -23.875 -15.291  0.00  0.00    -0.250 OA
ATOM     18  C   UNL     1      37.778 -24.079 -14.802  0.00  0.00    +0.318 C 
ATOM     19  C   UNL     1      37.497 -24.057 -13.330  0.00  0.00    +0.121 C 
ENDBRANCH  16  18
ENDBRANCH   2  16
BRANCH   3  20
ATOM     20  C   UNL     1      33.093 -23.187 -15.313  0.00  0.00    +0.187 C 
BRANCH  20  21
ATOM     21  O   UNL     1      31.938 -24.004 -15.409  0.00  0.00    -0.270 OA
BRANCH  21  22
ATOM     22  P   UNL     1      30.691 -23.760 -14.406  0.00  0.00    +0.484 P 
ATOM     23  O   UNL     1      30.754 -24.544 -13.127  0.00  0.00    -0.227 OA
BRANCH  22  24
ATOM     24  O   UNL     1      30.642 -22.156 -14.204  0.00  0.00    -0.302 OA
ATOM     25  H   UNL     1      31.335 -21.887 -13.581  0.00  0.00    +0.222 HD
ENDBRANCH  22  24
BRANCH  22  26
ATOM     26  O   UNL     1      29.381 -24.061 -15.304  0.00  0.00    -0.186 OA
BRANCH  26  27
ATOM     27  P   UNL     1      28.663 -23.185 -16.456  0.00  0.00    +0.481 P 
ATOM     28  O   UNL     1      27.794 -23.973 -17.391  0.00  0.00    -0.227 OA
BRANCH  27  29
ATOM     29  O   UNL     1      27.907 -22.023 -15.625  0.00  0.00    -0.302 OA
ATOM     30  H   UNL     1      28.271 -21.979 -14.726  0.00  0.00    +0.222 HD
ENDBRANCH  27  29
BRANCH  27  31
ATOM     31  O   UNL     1      29.899 -22.411 -17.153  0.00  0.00    -0.302 OA
ATOM     32  H   UNL     1      30.656 -22.399 -16.546  0.00  0.00    +0.222 HD
ENDBRANCH  27  31
ENDBRANCH  26  27
ENDBRANCH  22  26
ENDBRANCH  21  22
ENDBRANCH  20  21
ENDBRANCH   3  20
TORSDOF 11
ENDMDL
MODEL 4
REMARK VINA RESULT:      -9.1      3.845      7.722
REMARK  Name = 445182
REMARK  11 active torsions:
REMARK  status: ('A' for Active; 'I' for Inactive)
REMARK    1  A    between atoms: C_2  and  O_16
REMARK    2  A    between atoms: C_3  and  C_20
REMARK    3  A    between atoms: C_5  and  N_8
REMARK    4  A    between atoms: O_16  and  C_18
REMARK    5  A    between atoms: C_20  and  O_21
REMARK    6  A    between atoms: O_21  and  P_22
REMARK    7  A    between atoms: P_22  and  O_24
REMARK    8  A    between atoms: P_22  and  O_26
REMARK    9  A    between atoms: O_26  and  P_27
REMARK   10  A    between atoms: P_27  and  O_29
REMARK   11  A    between atoms: P_27  and  O_31
REMARK                            x       y       z     vdW  Elec       q    Type
REMARK                         _______ _______ _______ _____ _____    ______ ____
ROOT
ATOM      1  O   UNL     1      33.702 -23.498 -18.479  0.00  0.00    -0.333 OA
ATOM      2  C   UNL     1      34.391 -23.510 -16.210  0.00  0.00    +0.202 C 
ATOM      3  C   UNL     1      33.226 -23.787 -17.149  0.00  0.00    +0.187 C 
ATOM      4  C   UNL     1      35.164 -22.431 -16.932  0.00  0.00    +0.098 C 
ATOM      5  C   UNL     1      34.949 -22.792 -18.392  0.00  0.00    +0.203 C 
ENDROOT
BRANCH   5   8
ATOM      6  O   UNL     1      37.222 -21.424 -19.425  0.00  0.00    -0.252 OA
ATOM      7  O   UNL     1      34.588 -18.397 -21.672  0.00  0.00    -0.270 OA
ATOM      8  N   UNL     1      34.904 -21.644 -19.249  0.00  0.00    -0.219 N 
ATOM      9  N   UNL     1      35.896 -19.921 -20.540  0.00  0.00    -0.236 N 
ATOM     10  C   UNL     1      33.663 -21.141 -19.618  0.00  0.00    +0.071 C 
ATOM     11  C   UNL     1      36.089 -21.032 -19.712  0.00  0.00    +0.315 C 
ATOM     12  C   UNL     1      33.483 -20.077 -20.410  0.00  0.00    +0.047 C 
ATOM     13  C   UNL     1      34.684 -19.378 -20.939  0.00  0.00    +0.250 C 
ATOM     14  C   UNL     1      32.138 -19.552 -20.795  0.00  0.00    +0.037 C 
ATOM     15  H   UNL     1      36.708 -19.476 -20.875  0.00  0.00    +0.159 HD
ENDBRANCH   5   8
BRANCH   2  16
ATOM     16  O   UNL     1      35.199 -24.678 -16.083  0.00  0.00    -0.449 OA
BRANCH  16  18
ATOM     17  O   UNL     1      35.272 -24.429 -13.787  0.00  0.00    -0.250 OA
ATOM     18  C   UNL     1      35.644 -24.972 -14.820  0.00  0.00    +0.318 C 
ATOM     19  C   UNL     1      36.663 -26.069 -14.870  0.00  0.00    +0.121 C 
ENDBRANCH  16  18
ENDBRANCH   2  16
BRANCH   3  20
ATOM     20  C   UNL     1      32.022 -22.894 -16.880  0.00  0.00    +0.187 C 
BRANCH  20  21
ATOM     21  O   UNL     1      30.885 -23.713 -16.654  0.00  0.00    -0.270 OA
BRANCH  21  22
ATOM     22  P   UNL     1      30.337 -23.936 -15.148  0.00  0.00    +0.484 P 
ATOM     23  O   UNL     1      30.784 -25.214 -14.501  0.00  0.00    -0.227 OA
BRANCH  22  24
ATOM     24  O   UNL     1      30.778 -22.597 -14.355  0.00  0.00    -0.302 OA
ATOM     25  H   UNL     1      30.347 -21.826 -14.756  0.00  0.00    +0.222 HD
ENDBRANCH  22  24
BRANCH  22  26
ATOM     26  O   UNL     1      28.733 -23.781 -15.273  0.00  0.00    -0.186 OA
BRANCH  26  27
ATOM     27  P   UNL     1      27.825 -22.967 -16.333  0.00  0.00    +0.481 P 
ATOM     28  O   UNL     1      26.531 -22.447 -15.780  0.00  0.00    -0.227 OA
BRANCH  27  29
ATOM     29  O   UNL     1      28.835 -21.841 -16.902  0.00  0.00    -0.302 OA
ATOM     30  H   UNL     1      28.782 -21.047 -16.346  0.00  0.00    +0.222 HD
ENDBRANCH  27  29
BRANCH  27  31
ATOM     31  O   UNL     1      27.681 -24.004 -17.564  0.00  0.00    -0.302 OA
ATOM     32  H   UNL     1      26.740 -24.152 -17.754  0.00  0.00    +0.222 HD
ENDBRANCH  27  31
ENDBRANCH  26  27
ENDBRANCH  22  26
ENDBRANCH  21  22
ENDBRANCH  20  21
ENDBRANCH   3  20
TORSDOF 11
ENDMDL
MODEL 5
REMARK VINA RESULT:      -9.1     10.978     13.471
REMARK  Name = 445182
REMARK  11 active torsions:
REMARK  status: ('A' for Active; 'I' for Inactive)
REMARK    1  A    between atoms: C_2  and  O_16
REMARK    2  A    between atoms: C_3  and  C_20
REMARK    3  A    between atoms: C_5  and  N_8
REMARK    4  A    between atoms: O_16  and  C_18
REMARK    5  A    between atoms: C_20  and  O_21
REMARK    6  A    between atoms: O_21  and  P_22
REMARK    7  A    between atoms: P_22  and  O_24
REMARK    8  A    between atoms: P_22  and  O_26
REMARK    9  A    between atoms: O_26  and  P_27
REMARK   10  A    between atoms: P_27  and  O_29
REMARK   11  A    between atoms: P_27  and  O_31
REMARK                            x       y       z     vdW  Elec       q    Type
REMARK                         _______ _______ _______ _____ _____    ______ ____
ROOT
ATOM      1  O   UNL     1      31.938 -13.279 -22.317  0.00  0.00    -0.333 OA
ATOM      2  C   UNL     1      33.449 -13.574 -24.121  0.00  0.00    +0.202 C 
ATOM      3  C   UNL     1      32.935 -14.188 -22.826  0.00  0.00    +0.187 C 
ATOM      4  C   UNL     1      33.272 -12.091 -23.891  0.00  0.00    +0.098 C 
ATOM      5  C   UNL     1      32.020 -12.038 -23.032  0.00  0.00    +0.203 C 
ENDROOT
BRANCH   5   8
ATOM      6  O   UNL     1      32.563  -9.319 -23.679  0.00  0.00    -0.252 OA
ATOM      7  O   UNL     1      32.025  -7.997 -19.307  0.00  0.00    -0.270 OA
ATOM      8  N   UNL     1      32.033 -10.952 -22.096  0.00  0.00    -0.219 N 
ATOM      9  N   UNL     1      32.292  -8.673 -21.494  0.00  0.00    -0.236 N 
ATOM     10  C   UNL     1      31.761 -11.224 -20.762  0.00  0.00    +0.071 C 
ATOM     11  C   UNL     1      32.314  -9.632 -22.513  0.00  0.00    +0.315 C 
ATOM     12  C   UNL     1      31.742 -10.303 -19.790  0.00  0.00    +0.047 C 
ATOM     13  C   UNL     1      32.028  -8.890 -20.150  0.00  0.00    +0.250 C 
ATOM     14  C   UNL     1      31.447 -10.618 -18.359  0.00  0.00    +0.037 C 
ATOM     15  H   UNL     1      32.485  -7.746 -21.760  0.00  0.00    +0.159 HD
ENDBRANCH   5   8
BRANCH   2  16
ATOM     16  O   UNL     1      32.632 -13.992 -25.212  0.00  0.00    -0.449 OA
BRANCH  16  18
ATOM     17  O   UNL     1      33.713 -15.592 -26.481  0.00  0.00    -0.250 OA
ATOM     18  C   UNL     1      33.294 -14.453 -26.321  0.00  0.00    +0.318 C 
ATOM     19  C   UNL     1      33.439 -13.356 -27.332  0.00  0.00    +0.121 C 
ENDBRANCH  16  18
ENDBRANCH   2  16
BRANCH   3  20
ATOM     20  C   UNL     1      34.020 -14.332 -21.766  0.00  0.00    +0.187 C 
BRANCH  20  21
ATOM     21  O   UNL     1      34.810 -15.470 -22.072  0.00  0.00    -0.270 OA
BRANCH  21  22
ATOM     22  P   UNL     1      34.498 -16.886 -21.353  0.00  0.00    +0.484 P 
ATOM     23  O   UNL     1      35.542 -17.333 -20.372  0.00  0.00    -0.227 OA
BRANCH  22  24
ATOM     24  O   UNL     1      33.021 -16.701 -20.720  0.00  0.00    -0.302 OA
ATOM     25  H   UNL     1      33.099 -16.465 -19.783  0.00  0.00    +0.222 HD
ENDBRANCH  22  24
BRANCH  22  26
ATOM     26  O   UNL     1      34.252 -17.917 -22.574  0.00  0.00    -0.186 OA
BRANCH  26  27
ATOM     27  P   UNL     1      35.180 -18.304 -23.839  0.00  0.00    +0.481 P 
ATOM     28  O   UNL     1      34.686 -19.468 -24.645  0.00  0.00    -0.227 OA
BRANCH  27  29
ATOM     29  O   UNL     1      35.311 -16.910 -24.646  0.00  0.00    -0.302 OA
ATOM     30  H   UNL     1      35.298 -17.086 -25.601  0.00  0.00    +0.222 HD
ENDBRANCH  27  29
BRANCH  27  31
ATOM     31  O   UNL     1      36.641 -18.496 -23.176  0.00  0.00    -0.302 OA
ATOM     32  H   UNL     1      36.543 -18.803 -22.260  0.00  0.00    +0.222 HD
ENDBRANCH  27  31
ENDBRANCH  26  27
ENDBRANCH  22  26
ENDBRANCH  21  22
ENDBRANCH  20  21
ENDBRANCH   3  20
TORSDOF 11
ENDMDL
MODEL 6
REMARK VINA RESULT:      -8.9      1.595      2.198
REMARK  Name = 445182
REMARK  11 active torsions:
REMARK  status: ('A' for Active; 'I' for Inactive)
REMARK    1  A    between atoms: C_2  and  O_16
REMARK    2  A    between atoms: C_3  and  C_20
REMARK    3  A    between atoms: C_5  and  N_8
REMARK    4  A    between atoms: O_16  and  C_18
REMARK    5  A    between atoms: C_20  and  O_21
REMARK    6  A    between atoms: O_21  and  P_22
REMARK    7  A    between atoms: P_22  and  O_24
REMARK    8  A    between atoms: P_22  and  O_26
REMARK    9  A    between atoms: O_26  and  P_27
REMARK   10  A    between atoms: P_27  and  O_29
REMARK   11  A    between atoms: P_27  and  O_31
REMARK                            x       y       z     vdW  Elec       q    Type
REMARK                         _______ _______ _______ _____ _____    ______ ____
ROOT
ATOM      1  O   UNL     1      34.129 -24.232 -16.335  0.00  0.00    -0.333 OA
ATOM      2  C   UNL     1      35.547 -22.948 -14.935  0.00  0.00    +0.202 C 
ATOM      3  C   UNL     1      35.457 -24.213 -15.776  0.00  0.00    +0.187 C 
ATOM      4  C   UNL     1      34.120 -22.733 -14.486  0.00  0.00    +0.098 C 
ATOM      5  C   UNL     1      33.321 -23.250 -15.670  0.00  0.00    +0.203 C 
ENDROOT
BRANCH   5   8
ATOM      6  O   UNL     1      32.898 -24.793 -13.315  0.00  0.00    -0.252 OA
ATOM      7  O   UNL     1      28.465 -25.456 -14.345  0.00  0.00    -0.270 OA
ATOM      8  N   UNL     1      32.075 -23.845 -15.284  0.00  0.00    -0.219 N 
ATOM      9  N   UNL     1      30.688 -25.116 -13.841  0.00  0.00    -0.236 N 
ATOM     10  C   UNL     1      30.972 -23.667 -16.109  0.00  0.00    +0.071 C 
ATOM     11  C   UNL     1      31.963 -24.596 -14.093  0.00  0.00    +0.315 C 
ATOM     12  C   UNL     1      29.755 -24.168 -15.864  0.00  0.00    +0.047 C 
ATOM     13  C   UNL     1      29.557 -24.970 -14.629  0.00  0.00    +0.250 C 
ATOM     14  C   UNL     1      28.581 -23.964 -16.767  0.00  0.00    +0.037 C 
ATOM     15  H   UNL     1      30.585 -25.644 -13.017  0.00  0.00    +0.159 HD
ENDBRANCH   5   8
BRANCH   2  16
ATOM     16  O   UNL     1      35.965 -21.854 -15.748  0.00  0.00    -0.449 OA
BRANCH  16  18
ATOM     17  O   UNL     1      38.142 -22.524 -16.136  0.00  0.00    -0.250 OA
ATOM     18  C   UNL     1      37.075 -22.067 -16.525  0.00  0.00    +0.318 C 
ATOM     19  C   UNL     1      36.803 -21.661 -17.941  0.00  0.00    +0.121 C 
ENDBRANCH  16  18
ENDBRANCH   2  16
BRANCH   3  20
ATOM     20  C   UNL     1      35.637 -25.484 -14.956  0.00  0.00    +0.187 C 
BRANCH  20  21
ATOM     21  O   UNL     1      37.021 -25.680 -14.713  0.00  0.00    -0.270 OA
BRANCH  21  22
ATOM     22  P   UNL     1      37.600 -25.565 -13.206  0.00  0.00    +0.484 P 
ATOM     23  O   UNL     1      37.478 -24.202 -12.591  0.00  0.00    -0.227 OA
BRANCH  22  24
ATOM     24  O   UNL     1      36.840 -26.736 -12.390  0.00  0.00    -0.302 OA
ATOM     25  H   UNL     1      36.059 -27.023 -12.888  0.00  0.00    +0.222 HD
ENDBRANCH  22  24
BRANCH  22  26
ATOM     26  O   UNL     1      39.118 -26.112 -13.311  0.00  0.00    -0.186 OA
BRANCH  26  27
ATOM     27  P   UNL     1      40.304 -25.756 -14.350  0.00  0.00    +0.481 P 
ATOM     28  O   UNL     1      40.956 -24.425 -14.124  0.00  0.00    -0.227 OA
BRANCH  27  29
ATOM     29  O   UNL     1      41.288 -27.034 -14.244  0.00  0.00    -0.302 OA
ATOM     30  H   UNL     1      41.485 -27.215 -13.311  0.00  0.00    +0.222 HD
ENDBRANCH  27  29
BRANCH  27  31
ATOM     31  O   UNL     1      39.596 -25.941 -15.791  0.00  0.00    -0.302 OA
ATOM     32  H   UNL     1      40.001 -25.333 -16.431  0.00  0.00    +0.222 HD
ENDBRANCH  27  31
ENDBRANCH  26  27
ENDBRANCH  22  26
ENDBRANCH  21  22
ENDBRANCH  20  21
ENDBRANCH   3  20
TORSDOF 11
ENDMDL
MODEL 7
REMARK VINA RESULT:      -8.9      1.845      3.270
REMARK  Name = 445182
REMARK  11 active torsions:
REMARK  status: ('A' for Active; 'I' for Inactive)
REMARK    1  A    between atoms: C_2  and  O_16
REMARK    2  A    between atoms: C_3  and  C_20
REMARK    3  A    between atoms: C_5  and  N_8
REMARK    4  A    between atoms: O_16  and  C_18
REMARK    5  A    between atoms: C_20  and  O_21
REMARK    6  A    between atoms: O_21  and  P_22
REMARK    7  A    between atoms: P_22  and  O_24
REMARK    8  A    between atoms: P_22  and  O_26
REMARK    9  A    between atoms: O_26  and  P_27
REMARK   10  A    between atoms: P_27  and  O_29
REMARK   11  A    between atoms: P_27  and  O_31
REMARK                            x       y       z     vdW  Elec       q    Type
REMARK                         _______ _______ _______ _____ _____    ______ ____
ROOT
ATOM      1  O   UNL     1      34.038 -24.307 -16.347  0.00  0.00    -0.333 OA
ATOM      2  C   UNL     1      35.400 -22.891 -15.019  0.00  0.00    +0.202 C 
ATOM      3  C   UNL     1      35.351 -24.221 -15.758  0.00  0.00    +0.187 C 
ATOM      4  C   UNL     1      33.959 -22.666 -14.624  0.00  0.00    +0.098 C 
ATOM      5  C   UNL     1      33.199 -23.290 -15.783  0.00  0.00    +0.203 C 
ENDROOT
BRANCH   5   8
ATOM      6  O   UNL     1      32.786 -24.815 -13.414  0.00  0.00    -0.252 OA
ATOM      7  O   UNL     1      28.339 -25.453 -14.400  0.00  0.00    -0.270 OA
ATOM      8  N   UNL     1      31.952 -23.873 -15.381  0.00  0.00    -0.219 N 
ATOM      9  N   UNL     1      30.570 -25.125 -13.918  0.00  0.00    -0.236 N 
ATOM     10  C   UNL     1      30.843 -23.692 -16.198  0.00  0.00    +0.071 C 
ATOM     11  C   UNL     1      31.845 -24.615 -14.185  0.00  0.00    +0.315 C 
ATOM     12  C   UNL     1      29.625 -24.182 -15.939  0.00  0.00    +0.047 C 
ATOM     13  C   UNL     1      29.432 -24.976 -14.697  0.00  0.00    +0.250 C 
ATOM     14  C   UNL     1      28.444 -23.977 -16.832  0.00  0.00    +0.037 C 
ATOM     15  H   UNL     1      30.470 -25.647 -13.090  0.00  0.00    +0.159 HD
ENDBRANCH   5   8
BRANCH   2  16
ATOM     16  O   UNL     1      35.822 -21.858 -15.906  0.00  0.00    -0.449 OA
BRANCH  16  18
ATOM     17  O   UNL     1      38.034 -22.507 -16.076  0.00  0.00    -0.250 OA
ATOM     18  C   UNL     1      37.000 -22.079 -16.573  0.00  0.00    +0.318 C 
ATOM     19  C   UNL     1      36.851 -21.720 -18.021  0.00  0.00    +0.121 C 
ENDBRANCH  16  18
ENDBRANCH   2  16
BRANCH   3  20
ATOM     20  C   UNL     1      35.529 -25.419 -14.835  0.00  0.00    +0.187 C 
BRANCH  20  21
ATOM     21  O   UNL     1      36.916 -25.669 -14.671  0.00  0.00    -0.270 OA
BRANCH  21  22
ATOM     22  P   UNL     1      37.631 -25.347 -13.255  0.00  0.00    +0.484 P 
ATOM     23  O   UNL     1      38.748 -26.282 -12.891  0.00  0.00    -0.227 OA
BRANCH  22  24
ATOM     24  O   UNL     1      38.071 -23.795 -13.369  0.00  0.00    -0.302 OA
ATOM     25  H   UNL     1      38.904 -23.659 -12.892  0.00  0.00    +0.222 HD
ENDBRANCH  22  24
BRANCH  22  26
ATOM     26  O   UNL     1      36.420 -25.313 -12.185  0.00  0.00    -0.186 OA
BRANCH  26  27
ATOM     27  P   UNL     1      35.978 -24.180 -11.121  0.00  0.00    +0.481 P 
ATOM     28  O   UNL     1      37.062 -23.212 -10.750  0.00  0.00    -0.227 OA
BRANCH  27  29
ATOM     29  O   UNL     1      34.667 -23.522 -11.799  0.00  0.00    -0.302 OA
ATOM     30  H   UNL     1      34.051 -23.238 -11.105  0.00  0.00    +0.222 HD
ENDBRANCH  27  29
BRANCH  27  31
ATOM     31  O   UNL     1      35.377 -25.044  -9.895  0.00  0.00    -0.302 OA
ATOM     32  H   UNL     1      34.504 -24.696  -9.652  0.00  0.00    +0.222 HD
ENDBRANCH  27  31
ENDBRANCH  26  27
ENDBRANCH  22  26
ENDBRANCH  21  22
ENDBRANCH  20  21
ENDBRANCH   3  20
TORSDOF 11
ENDMDL
MODEL 8
REMARK VINA RESULT:      -8.9     11.112     13.784
REMARK  Name = 445182
REMARK  11 active torsions:
REMARK  status: ('A' for Active; 'I' for Inactive)
REMARK    1  A    between atoms: C_2  and  O_16
REMARK    2  A    between atoms: C_3  and  C_20
REMARK    3  A    between atoms: C_5  and  N_8
REMARK    4  A    between atoms: O_16  and  C_18
REMARK    5  A    between atoms: C_20  and  O_21
REMARK    6  A    between atoms: O_21  and  P_22
REMARK    7  A    between atoms: P_22  and  O_24
REMARK    8  A    between atoms: P_22  and  O_26
REMARK    9  A    between atoms: O_26  and  P_27
REMARK   10  A    between atoms: P_27  and  O_29
REMARK   11  A    between atoms: P_27  and  O_31
REMARK                            x       y       z     vdW  Elec       q    Type
REMARK                         _______ _______ _______ _____ _____    ______ ____
ROOT
ATOM      1  O   UNL     1      31.980 -13.050 -22.337  0.00  0.00    -0.333 OA
ATOM      2  C   UNL     1      33.435 -13.435 -24.169  0.00  0.00    +0.202 C 
ATOM      3  C   UNL     1      32.932 -14.003 -22.849  0.00  0.00    +0.187 C 
ATOM      4  C   UNL     1      33.317 -11.943 -23.966  0.00  0.00    +0.098 C 
ATOM      5  C   UNL     1      32.088 -11.827 -23.079  0.00  0.00    +0.203 C 
ENDROOT
BRANCH   5   8
ATOM      6  O   UNL     1      31.405 -11.930 -20.317  0.00  0.00    -0.252 OA
ATOM      7  O   UNL     1      32.434  -7.487 -19.725  0.00  0.00    -0.270 OA
ATOM      8  N   UNL     1      32.162 -10.723 -22.167  0.00  0.00    -0.219 N 
ATOM      9  N   UNL     1      31.922  -9.713 -20.036  0.00  0.00    -0.236 N 
ATOM     10  C   UNL     1      32.599  -9.496 -22.647  0.00  0.00    +0.071 C 
ATOM     11  C   UNL     1      31.800 -10.872 -20.811  0.00  0.00    +0.315 C 
ATOM     12  C   UNL     1      32.713  -8.389 -21.903  0.00  0.00    +0.047 C 
ATOM     13  C   UNL     1      32.351  -8.465 -20.463  0.00  0.00    +0.250 C 
ATOM     14  C   UNL     1      33.186  -7.077 -22.440  0.00  0.00    +0.037 C 
ATOM     15  H   UNL     1      31.675  -9.791 -19.087  0.00  0.00    +0.159 HD
ENDBRANCH   5   8
BRANCH   2  16
ATOM     16  O   UNL     1      32.578 -13.846 -25.231  0.00  0.00    -0.449 OA
BRANCH  16  18
ATOM     17  O   UNL     1      33.507 -15.578 -26.445  0.00  0.00    -0.250 OA
ATOM     18  C   UNL     1      33.193 -14.402 -26.324  0.00  0.00    +0.318 C 
ATOM     19  C   UNL     1      33.434 -13.358 -27.372  0.00  0.00    +0.121 C 
ENDBRANCH  16  18
ENDBRANCH   2  16
BRANCH   3  20
ATOM     20  C   UNL     1      34.037 -14.165 -21.813  0.00  0.00    +0.187 C 
BRANCH  20  21
ATOM     21  O   UNL     1      34.777 -15.338 -22.112  0.00  0.00    -0.270 OA
BRANCH  21  22
ATOM     22  P   UNL     1      34.459 -16.716 -21.326  0.00  0.00    +0.484 P 
ATOM     23  O   UNL     1      35.483 -17.103 -20.299  0.00  0.00    -0.227 OA
BRANCH  22  24
ATOM     24  O   UNL     1      32.967 -16.508 -20.735  0.00  0.00    -0.302 OA
ATOM     25  H   UNL     1      32.988 -16.588 -19.769  0.00  0.00    +0.222 HD
ENDBRANCH  22  24
BRANCH  22  26
ATOM     26  O   UNL     1      34.245 -17.811 -22.494  0.00  0.00    -0.186 OA
BRANCH  26  27
ATOM     27  P   UNL     1      35.209 -18.268 -23.709  0.00  0.00    +0.481 P 
ATOM     28  O   UNL     1      34.779 -19.520 -24.412  0.00  0.00    -0.227 OA
BRANCH  27  29
ATOM     29  O   UNL     1      35.290 -16.947 -24.637  0.00  0.00    -0.302 OA
ATOM     30  H   UNL     1      34.944 -17.151 -25.521  0.00  0.00    +0.222 HD
ENDBRANCH  27  29
BRANCH  27  31
ATOM     31  O   UNL     1      36.667 -18.333 -23.015  0.00  0.00    -0.302 OA
ATOM     32  H   UNL     1      37.332 -18.572 -23.681  0.00  0.00    +0.222 HD
ENDBRANCH  27  31
ENDBRANCH  26  27
ENDBRANCH  22  26
ENDBRANCH  21  22
ENDBRANCH  20  21
ENDBRANCH   3  20
TORSDOF 11
ENDMDL
MODEL 9
REMARK VINA RESULT:      -8.8      3.283      6.798
REMARK  Name = 445182
REMARK  11 active torsions:
REMARK  status: ('A' for Active; 'I' for Inactive)
REMARK    1  A    between atoms: C_2  and  O_16
REMARK    2  A    between atoms: C_3  and  C_20
REMARK    3  A    between atoms: C_5  and  N_8
REMARK    4  A    between atoms: O_16  and  C_18
REMARK    5  A    between atoms: C_20  and  O_21
REMARK    6  A    between atoms: O_21  and  P_22
REMARK    7  A    between atoms: P_22  and  O_24
REMARK    8  A    between atoms: P_22  and  O_26
REMARK    9  A    between atoms: O_26  and  P_27
REMARK   10  A    between atoms: P_27  and  O_29
REMARK   11  A    between atoms: P_27  and  O_31
REMARK                            x       y       z     vdW  Elec       q    Type
REMARK                         _______ _______ _______ _____ _____    ______ ____
ROOT
ATOM      1  O   UNL     1      34.352 -24.280 -15.767  0.00  0.00    -0.333 OA
ATOM      2  C   UNL     1      35.750 -23.372 -14.081  0.00  0.00    +0.202 C 
ATOM      3  C   UNL     1      34.422 -24.068 -14.343  0.00  0.00    +0.187 C 
ATOM      4  C   UNL     1      35.992 -22.603 -15.359  0.00  0.00    +0.098 C 
ATOM      5  C   UNL     1      35.378 -23.512 -16.411  0.00  0.00    +0.203 C 
ENDROOT
BRANCH   5   8
ATOM      6  O   UNL     1      32.624 -23.516 -17.130  0.00  0.00    -0.252 OA
ATOM      7  O   UNL     1      33.369 -20.667 -20.663  0.00  0.00    -0.270 OA
ATOM      8  N   UNL     1      34.809 -22.787 -17.509  0.00  0.00    -0.219 N 
ATOM      9  N   UNL     1      33.010 -22.095 -18.889  0.00  0.00    -0.236 N 
ATOM     10  C   UNL     1      35.650 -22.014 -18.299  0.00  0.00    +0.071 C 
ATOM     11  C   UNL     1      33.427 -22.852 -17.789  0.00  0.00    +0.315 C 
ATOM     12  C   UNL     1      35.247 -21.292 -19.352  0.00  0.00    +0.047 C 
ATOM     13  C   UNL     1      33.804 -21.309 -19.710  0.00  0.00    +0.250 C 
ATOM     14  C   UNL     1      36.169 -20.466 -20.190  0.00  0.00    +0.037 C 
ATOM     15  H   UNL     1      32.050 -22.125 -19.105  0.00  0.00    +0.159 HD
ENDBRANCH   5   8
BRANCH   2  16
ATOM     16  O   UNL     1      36.779 -24.342 -13.902  0.00  0.00    -0.449 OA
BRANCH  16  18
ATOM     17  O   UNL     1      36.704 -25.762 -12.081  0.00  0.00    -0.250 OA
ATOM     18  C   UNL     1      37.043 -24.711 -12.608  0.00  0.00    +0.318 C 
ATOM     19  C   UNL     1      37.820 -23.636 -11.910  0.00  0.00    +0.121 C 
ENDBRANCH  16  18
ENDBRANCH   2  16
BRANCH   3  20
ATOM     20  C   UNL     1      33.220 -23.226 -13.936  0.00  0.00    +0.187 C 
BRANCH  20  21
ATOM     21  O   UNL     1      32.349 -24.021 -13.148  0.00  0.00    -0.270 OA
BRANCH  21  22
ATOM     22  P   UNL     1      30.909 -24.468 -13.736  0.00  0.00    +0.484 P 
ATOM     23  O   UNL     1      30.950 -25.653 -14.657  0.00  0.00    -0.227 OA
BRANCH  22  24
ATOM     24  O   UNL     1      29.983 -24.672 -12.426  0.00  0.00    -0.302 OA
ATOM     25  H   UNL     1      29.725 -25.604 -12.354  0.00  0.00    +0.222 HD
ENDBRANCH  22  24
BRANCH  22  26
ATOM     26  O   UNL     1      30.310 -23.126 -14.409  0.00  0.00    -0.186 OA
BRANCH  26  27
ATOM     27  P   UNL     1      29.190 -22.925 -15.556  0.00  0.00    +0.481 P 
ATOM     28  O   UNL     1      28.160 -21.879 -15.249  0.00  0.00    -0.227 OA
BRANCH  27  29
ATOM     29  O   UNL     1      30.065 -22.663 -16.890  0.00  0.00    -0.302 OA
ATOM     30  H   UNL     1      29.540 -22.898 -17.672  0.00  0.00    +0.222 HD
ENDBRANCH  27  29
BRANCH  27  31
ATOM     31  O   UNL     1      28.612 -24.419 -15.770  0.00  0.00    -0.302 OA
ATOM     32  H   UNL     1      27.721 -24.370 -16.154  0.00  0.00    +0.222 HD
ENDBRANCH  27  31
ENDBRANCH  26  27
ENDBRANCH  22  26
ENDBRANCH  21  22
ENDBRANCH  20  21
ENDBRANCH   3  20
TORSDOF 11
ENDMDL
