MODEL 1
REMARK VINA RESULT:     -10.6      0.000      0.000
REMARK  Name = 10249182
REMARK  4 active torsions:
REMARK  status: ('A' for Active; 'I' for Inactive)
REMARK    1  A    between atoms: C_4  and  N_17
REMARK    2  A    between atoms: C_6  and  C_11
REMARK    3  A    between atoms: N_17  and  C_19
REMARK    4  A    between atoms: C_19  and  C_22
REMARK                            x       y       z     vdW  Elec       q    Type
REMARK                         _______ _______ _______ _____ _____    ______ ____
ROOT
ATOM      1 BR   UNL     1      29.009 -23.506 -15.995  0.00  0.00    -0.031 Br
ATOM      2  N   UNL     1      31.880 -23.860 -15.416  0.00  0.00    -0.242 N 
ATOM      3  N   UNL     1      31.883 -24.986 -13.487  0.00  0.00    -0.225 NA
ATOM      4  C   UNL     1      34.078 -24.378 -14.542  0.00  0.00    +0.078 C 
ATOM      5  C   UNL     1      32.648 -24.446 -14.416  0.00  0.00    +0.153 C 
ATOM      6  C   UNL     1      33.749 -23.137 -16.672  0.00  0.00    +0.017 C 
ATOM      7  C   UNL     1      34.582 -23.747 -15.629  0.00  0.00    +0.018 C 
ATOM      8  C   UNL     1      32.411 -23.215 -16.526  0.00  0.00    +0.071 C 
ATOM      9  C   UNL     1      30.565 -24.051 -15.074  0.00  0.00    +0.111 C 
ATOM     10  C   UNL     1      30.595 -24.745 -13.889  0.00  0.00    +0.122 C 
ENDROOT
BRANCH   6  11
ATOM     11  C   UNL     1      34.309 -22.444 -17.847  0.00  0.00    +0.001 C 
ATOM     12  C   UNL     1      33.472 -22.063 -18.896  0.00  0.00    +0.000 C 
ATOM     13  C   UNL     1      35.675 -22.169 -17.911  0.00  0.00    +0.000 C 
ATOM     14  C   UNL     1      34.001 -21.406 -20.008  0.00  0.00    +0.000 C 
ATOM     15  C   UNL     1      36.204 -21.513 -19.022  0.00  0.00    +0.000 C 
ATOM     16  C   UNL     1      35.366 -21.131 -20.071  0.00  0.00    +0.000 C 
ENDBRANCH   6  11
BRANCH   4  17
ATOM     17  N   UNL     1      34.878 -24.941 -13.584  0.00  0.00    -0.327 N 
ATOM     18  H   UNL     1      34.722 -25.878 -13.324  0.00  0.00    +0.147 HD
BRANCH  17  19
ATOM     19  C   UNL     1      35.933 -24.214 -12.945  0.00  0.00    +0.117 C 
BRANCH  19  22
ATOM     20  N   UNL     1      39.123 -24.361 -14.939  0.00  0.00    -0.223 NA
ATOM     21  N   UNL     1      39.174 -26.102 -13.273  0.00  0.00    -0.223 NA
ATOM     22  C   UNL     1      37.286 -24.642 -13.434  0.00  0.00    +0.036 C 
ATOM     23  C   UNL     1      37.907 -24.003 -14.474  0.00  0.00    +0.100 C 
ATOM     24  C   UNL     1      37.957 -25.690 -12.859  0.00  0.00    +0.100 C 
ATOM     25  C   UNL     1      39.690 -25.402 -14.301  0.00  0.00    +0.199 C 
ENDBRANCH  19  22
ENDBRANCH  17  19
ENDBRANCH   4  17
TORSDOF 4
ENDMDL
MODEL 2
REMARK VINA RESULT:     -10.4      2.377      4.531
REMARK  Name = 10249182
REMARK  4 active torsions:
REMARK  status: ('A' for Active; 'I' for Inactive)
REMARK    1  A    between atoms: C_4  and  N_17
REMARK    2  A    between atoms: C_6  and  C_11
REMARK    3  A    between atoms: N_17  and  C_19
REMARK    4  A    between atoms: C_19  and  C_22
REMARK                            x       y       z     vdW  Elec       q    Type
REMARK                         _______ _______ _______ _____ _____    ______ ____
ROOT
ATOM      1 BR   UNL     1      35.355 -21.856 -19.072  0.00  0.00    -0.031 Br
ATOM      2  N   UNL     1      34.924 -22.844 -16.326  0.00  0.00    -0.242 N 
ATOM      3  N   UNL     1      36.956 -22.724 -15.408  0.00  0.00    -0.225 NA
ATOM      4  C   UNL     1      35.046 -23.577 -14.021  0.00  0.00    +0.078 C 
ATOM      5  C   UNL     1      35.699 -23.057 -15.191  0.00  0.00    +0.153 C 
ATOM      6  C   UNL     1      32.921 -23.591 -15.313  0.00  0.00    +0.017 C 
ATOM      7  C   UNL     1      33.718 -23.825 -14.103  0.00  0.00    +0.018 C 
ATOM      8  C   UNL     1      33.560 -23.104 -16.396  0.00  0.00    +0.071 C 
ATOM      9  C   UNL     1      35.761 -22.354 -17.296  0.00  0.00    +0.111 C 
ATOM     10  C   UNL     1      37.000 -22.288 -16.707  0.00  0.00    +0.122 C 
ENDROOT
BRANCH   6  11
ATOM     11  C   UNL     1      31.476 -23.873 -15.394  0.00  0.00    +0.001 C 
ATOM     12  C   UNL     1      30.652 -23.072 -16.184  0.00  0.00    +0.000 C 
ATOM     13  C   UNL     1      30.932 -24.941 -14.680  0.00  0.00    +0.000 C 
ATOM     14  C   UNL     1      29.284 -23.339 -16.262  0.00  0.00    +0.000 C 
ATOM     15  C   UNL     1      29.565 -25.209 -14.757  0.00  0.00    +0.000 C 
ATOM     16  C   UNL     1      28.741 -24.407 -15.548  0.00  0.00    +0.000 C 
ENDBRANCH   6  11
BRANCH   4  17
ATOM     17  N   UNL     1      35.766 -23.803 -12.879  0.00  0.00    -0.327 N 
ATOM     18  H   UNL     1      35.949 -23.047 -12.274  0.00  0.00    +0.147 HD
BRANCH  17  19
ATOM     19  C   UNL     1      36.264 -25.099 -12.532  0.00  0.00    +0.117 C 
BRANCH  19  22
ATOM     20  N   UNL     1      38.776 -26.725 -14.817  0.00  0.00    -0.223 NA
ATOM     21  N   UNL     1      39.873 -24.963 -13.593  0.00  0.00    -0.223 NA
ATOM     22  C   UNL     1      37.552 -25.413 -13.236  0.00  0.00    +0.036 C 
ATOM     23  C   UNL     1      37.635 -26.417 -14.165  0.00  0.00    +0.100 C 
ATOM     24  C   UNL     1      38.699 -24.708 -12.980  0.00  0.00    +0.100 C 
ATOM     25  C   UNL     1      39.840 -25.969 -14.488  0.00  0.00    +0.199 C 
ENDBRANCH  19  22
ENDBRANCH  17  19
ENDBRANCH   4  17
TORSDOF 4
ENDMDL
MODEL 3
REMARK VINA RESULT:     -10.3      2.627      6.163
REMARK  Name = 10249182
REMARK  4 active torsions:
REMARK  status: ('A' for Active; 'I' for Inactive)
REMARK    1  A    between atoms: C_4  and  N_17
REMARK    2  A    between atoms: C_6  and  C_11
REMARK    3  A    between atoms: N_17  and  C_19
REMARK    4  A    between atoms: C_19  and  C_22
REMARK                            x       y       z     vdW  Elec       q    Type
REMARK                         _______ _______ _______ _____ _____    ______ ____
ROOT
ATOM      1 BR   UNL     1      38.115 -24.295 -13.183  0.00  0.00    -0.031 Br
ATOM      2  N   UNL     1      35.360 -23.866 -14.145  0.00  0.00    -0.242 N 
ATOM      3  N   UNL     1      34.101 -24.584 -12.446  0.00  0.00    -0.225 NA
ATOM      4  C   UNL     1      32.970 -23.701 -14.505  0.00  0.00    +0.078 C 
ATOM      5  C   UNL     1      34.072 -24.067 -13.659  0.00  0.00    +0.153 C 
ATOM      6  C   UNL     1      34.628 -22.979 -16.213  0.00  0.00    +0.017 C 
ATOM      7  C   UNL     1      33.261 -23.183 -15.722  0.00  0.00    +0.018 C 
ATOM      8  C   UNL     1      35.642 -23.333 -15.398  0.00  0.00    +0.071 C 
ATOM      9  C   UNL     1      36.227 -24.288 -13.170  0.00  0.00    +0.111 C 
ATOM     10  C   UNL     1      35.429 -24.722 -12.139  0.00  0.00    +0.122 C 
ENDROOT
BRANCH   6  11
ATOM     11  C   UNL     1      34.932 -22.422 -17.544  0.00  0.00    +0.001 C 
ATOM     12  C   UNL     1      36.207 -21.927 -17.818  0.00  0.00    +0.000 C 
ATOM     13  C   UNL     1      33.946 -22.390 -18.530  0.00  0.00    +0.000 C 
ATOM     14  C   UNL     1      36.497 -21.401 -19.078  0.00  0.00    +0.000 C 
ATOM     15  C   UNL     1      34.234 -21.864 -19.789  0.00  0.00    +0.000 C 
ATOM     16  C   UNL     1      35.510 -21.369 -20.063  0.00  0.00    +0.000 C 
ENDBRANCH   6  11
BRANCH   4  17
ATOM     17  N   UNL     1      31.684 -23.879 -14.071  0.00  0.00    -0.327 N 
ATOM     18  H   UNL     1      31.377 -23.381 -13.279  0.00  0.00    +0.147 HD
BRANCH  17  19
ATOM     19  C   UNL     1      30.771 -24.764 -14.727  0.00  0.00    +0.117 C 
BRANCH  19  22
ATOM     20  N   UNL     1      28.418 -22.019 -15.777  0.00  0.00    -0.223 NA
ATOM     21  N   UNL     1      27.984 -23.966 -17.130  0.00  0.00    -0.223 NA
ATOM     22  C   UNL     1      29.689 -24.018 -15.454  0.00  0.00    +0.036 C 
ATOM     23  C   UNL     1      29.383 -22.719 -15.145  0.00  0.00    +0.100 C 
ATOM     24  C   UNL     1      28.963 -24.606 -16.457  0.00  0.00    +0.100 C 
ATOM     25  C   UNL     1      27.768 -22.694 -16.745  0.00  0.00    +0.199 C 
ENDBRANCH  19  22
ENDBRANCH  17  19
ENDBRANCH   4  17
TORSDOF 4
ENDMDL
MODEL 4
REMARK VINA RESULT:     -10.3      8.107     11.082
REMARK  Name = 10249182
REMARK  4 active torsions:
REMARK  status: ('A' for Active; 'I' for Inactive)
REMARK    1  A    between atoms: C_4  and  N_17
REMARK    2  A    between atoms: C_6  and  C_11
REMARK    3  A    between atoms: N_17  and  C_19
REMARK    4  A    between atoms: C_19  and  C_22
REMARK                            x       y       z     vdW  Elec       q    Type
REMARK                         _______ _______ _______ _____ _____    ______ ____
ROOT
ATOM      1 BR   UNL     1      33.089 -14.749 -26.653  0.00  0.00    -0.031 Br
ATOM      2  N   UNL     1      33.643 -15.293 -23.808  0.00  0.00    -0.242 N 
ATOM      3  N   UNL     1      34.857 -17.168 -23.866  0.00  0.00    -0.225 NA
ATOM      4  C   UNL     1      34.333 -16.130 -21.642  0.00  0.00    +0.078 C 
ATOM      5  C   UNL     1      34.321 -16.260 -23.073  0.00  0.00    +0.153 C 
ATOM      6  C   UNL     1      32.974 -14.062 -21.901  0.00  0.00    +0.017 C 
ATOM      7  C   UNL     1      33.683 -15.071 -21.104  0.00  0.00    +0.018 C 
ATOM      8  C   UNL     1      32.979 -14.212 -23.241  0.00  0.00    +0.071 C 
ATOM      9  C   UNL     1      33.771 -15.633 -25.130  0.00  0.00    +0.111 C 
ATOM     10  C   UNL     1      34.520 -16.784 -25.139  0.00  0.00    +0.122 C 
ENDROOT
BRANCH   6  11
ATOM     11  C   UNL     1      32.261 -12.918 -21.304  0.00  0.00    +0.001 C 
ATOM     12  C   UNL     1      31.554 -12.035 -22.119  0.00  0.00    +0.000 C 
ATOM     13  C   UNL     1      32.294 -12.718 -19.924  0.00  0.00    +0.000 C 
ATOM     14  C   UNL     1      30.878 -10.952 -21.555  0.00  0.00    +0.000 C 
ATOM     15  C   UNL     1      31.619 -11.636 -19.359  0.00  0.00    +0.000 C 
ATOM     16  C   UNL     1      30.911 -10.753 -20.176  0.00  0.00    +0.000 C 
ENDBRANCH   6  11
BRANCH   4  17
ATOM     17  N   UNL     1      34.988 -17.055 -20.875  0.00  0.00    -0.327 N 
ATOM     18  H   UNL     1      35.143 -16.860 -19.922  0.00  0.00    +0.147 HD
BRANCH  17  19
ATOM     19  C   UNL     1      35.457 -18.298 -21.409  0.00  0.00    +0.117 C 
BRANCH  19  22
ATOM     20  N   UNL     1      34.900 -21.556 -19.607  0.00  0.00    -0.223 NA
ATOM     21  N   UNL     1      32.757 -20.633 -20.212  0.00  0.00    -0.223 NA
ATOM     22  C   UNL     1      34.772 -19.475 -20.778  0.00  0.00    +0.036 C 
ATOM     23  C   UNL     1      35.483 -20.484 -20.183  0.00  0.00    +0.100 C 
ATOM     24  C   UNL     1      33.406 -19.590 -20.769  0.00  0.00    +0.100 C 
ATOM     25  C   UNL     1      33.554 -21.565 -19.656  0.00  0.00    +0.199 C 
ENDBRANCH  19  22
ENDBRANCH  17  19
ENDBRANCH   4  17
TORSDOF 4
ENDMDL
MODEL 5
REMARK VINA RESULT:     -10.2      3.461      7.018
REMARK  Name = 10249182
REMARK  4 active torsions:
REMARK  status: ('A' for Active; 'I' for Inactive)
REMARK    1  A    between atoms: C_4  and  N_17
REMARK    2  A    between atoms: C_6  and  C_11
REMARK    3  A    between atoms: N_17  and  C_19
REMARK    4  A    between atoms: C_19  and  C_22
REMARK                            x       y       z     vdW  Elec       q    Type
REMARK                         _______ _______ _______ _____ _____    ______ ____
ROOT
ATOM      1 BR   UNL     1      36.078 -23.606 -12.730  0.00  0.00    -0.031 Br
ATOM      2  N   UNL     1      34.854 -23.199 -15.383  0.00  0.00    -0.242 N 
ATOM      3  N   UNL     1      36.577 -22.565 -16.656  0.00  0.00    -0.225 NA
ATOM      4  C   UNL     1      34.299 -22.742 -17.696  0.00  0.00    +0.078 C 
ATOM      5  C   UNL     1      35.281 -22.811 -16.649  0.00  0.00    +0.153 C 
ATOM      6  C   UNL     1      32.596 -23.468 -16.035  0.00  0.00    +0.017 C 
ATOM      7  C   UNL     1      33.022 -23.061 -17.379  0.00  0.00    +0.018 C 
ATOM      8  C   UNL     1      33.539 -23.522 -15.073  0.00  0.00    +0.071 C 
ATOM      9  C   UNL     1      35.957 -23.186 -14.568  0.00  0.00    +0.111 C 
ATOM     10  C   UNL     1      36.999 -22.796 -15.373  0.00  0.00    +0.122 C 
ENDROOT
BRANCH   6  11
ATOM     11  C   UNL     1      31.200 -23.804 -15.700  0.00  0.00    +0.001 C 
ATOM     12  C   UNL     1      30.161 -22.986 -16.143  0.00  0.00    +0.000 C 
ATOM     13  C   UNL     1      30.918 -24.939 -14.939  0.00  0.00    +0.000 C 
ATOM     14  C   UNL     1      28.839 -23.304 -15.826  0.00  0.00    +0.000 C 
ATOM     15  C   UNL     1      29.598 -25.257 -14.622  0.00  0.00    +0.000 C 
ATOM     16  C   UNL     1      28.558 -24.438 -15.066  0.00  0.00    +0.000 C 
ENDBRANCH   6  11
BRANCH   4  17
ATOM     17  N   UNL     1      34.670 -22.367 -18.959  0.00  0.00    -0.327 N 
ATOM     18  H   UNL     1      35.554 -22.640 -19.297  0.00  0.00    +0.147 HD
BRANCH  17  19
ATOM     19  C   UNL     1      33.819 -21.589 -19.807  0.00  0.00    +0.117 C 
BRANCH  19  22
ATOM     20  N   UNL     1      36.550 -19.171 -20.739  0.00  0.00    -0.223 NA
ATOM     21  N   UNL     1      34.443 -18.288 -21.507  0.00  0.00    -0.223 NA
ATOM     22  C   UNL     1      34.526 -20.385 -20.361  0.00  0.00    +0.036 C 
ATOM     23  C   UNL     1      35.883 -20.239 -20.253  0.00  0.00    +0.100 C 
ATOM     24  C   UNL     1      33.841 -19.383 -20.998  0.00  0.00    +0.100 C 
ATOM     25  C   UNL     1      35.779 -18.248 -21.346  0.00  0.00    +0.199 C 
ENDBRANCH  19  22
ENDBRANCH  17  19
ENDBRANCH   4  17
TORSDOF 4
ENDMDL
MODEL 6
REMARK VINA RESULT:     -10.1      1.765      2.415
REMARK  Name = 10249182
REMARK  4 active torsions:
REMARK  status: ('A' for Active; 'I' for Inactive)
REMARK    1  A    between atoms: C_4  and  N_17
REMARK    2  A    between atoms: C_6  and  C_11
REMARK    3  A    between atoms: N_17  and  C_19
REMARK    4  A    between atoms: C_19  and  C_22
REMARK                            x       y       z     vdW  Elec       q    Type
REMARK                         _______ _______ _______ _____ _____    ______ ____
ROOT
ATOM      1 BR   UNL     1      28.808 -22.949 -16.396  0.00  0.00    -0.031 Br
ATOM      2  N   UNL     1      31.694 -23.489 -16.112  0.00  0.00    -0.242 N 
ATOM      3  N   UNL     1      31.800 -24.799 -14.305  0.00  0.00    -0.225 NA
ATOM      4  C   UNL     1      33.927 -24.191 -15.491  0.00  0.00    +0.078 C 
ATOM      5  C   UNL     1      32.511 -24.206 -15.244  0.00  0.00    +0.153 C 
ATOM      6  C   UNL     1      33.487 -22.732 -17.456  0.00  0.00    +0.017 C 
ATOM      7  C   UNL     1      34.370 -23.480 -16.554  0.00  0.00    +0.018 C 
ATOM      8  C   UNL     1      32.164 -22.763 -17.199  0.00  0.00    +0.071 C 
ATOM      9  C   UNL     1      30.404 -23.653 -15.674  0.00  0.00    +0.111 C 
ATOM     10  C   UNL     1      30.497 -24.461 -14.566  0.00  0.00    +0.122 C 
ENDROOT
BRANCH   6  11
ATOM     11  C   UNL     1      33.982 -21.953 -18.606  0.00  0.00    +0.001 C 
ATOM     12  C   UNL     1      35.344 -21.944 -18.908  0.00  0.00    +0.000 C 
ATOM     13  C   UNL     1      33.090 -21.225 -19.393  0.00  0.00    +0.000 C 
ATOM     14  C   UNL     1      35.814 -21.208 -19.996  0.00  0.00    +0.000 C 
ATOM     15  C   UNL     1      33.558 -20.489 -20.481  0.00  0.00    +0.000 C 
ATOM     16  C   UNL     1      34.921 -20.480 -20.782  0.00  0.00    +0.000 C 
ENDBRANCH   6  11
BRANCH   4  17
ATOM     17  N   UNL     1      34.773 -24.882 -14.665  0.00  0.00    -0.327 N 
ATOM     18  H   UNL     1      34.465 -25.729 -14.268  0.00  0.00    +0.147 HD
BRANCH  17  19
ATOM     19  C   UNL     1      36.091 -24.416 -14.357  0.00  0.00    +0.117 C 
BRANCH  19  22
ATOM     20  N   UNL     1      35.572 -24.403 -10.629  0.00  0.00    -0.223 NA
ATOM     21  N   UNL     1      37.340 -22.856 -11.166  0.00  0.00    -0.223 NA
ATOM     22  C   UNL     1      36.244 -24.085 -12.901  0.00  0.00    +0.036 C 
ATOM     23  C   UNL     1      35.461 -24.676 -11.945  0.00  0.00    +0.100 C 
ATOM     24  C   UNL     1      37.175 -23.178 -12.466  0.00  0.00    +0.100 C 
ATOM     25  C   UNL     1      36.518 -23.497 -10.314  0.00  0.00    +0.199 C 
ENDBRANCH  19  22
ENDBRANCH  17  19
ENDBRANCH   4  17
TORSDOF 4
ENDMDL
MODEL 7
REMARK VINA RESULT:     -10.1      2.864      6.551
REMARK  Name = 10249182
REMARK  4 active torsions:
REMARK  status: ('A' for Active; 'I' for Inactive)
REMARK    1  A    between atoms: C_4  and  N_17
REMARK    2  A    between atoms: C_6  and  C_11
REMARK    3  A    between atoms: N_17  and  C_19
REMARK    4  A    between atoms: C_19  and  C_22
REMARK                            x       y       z     vdW  Elec       q    Type
REMARK                         _______ _______ _______ _____ _____    ______ ____
ROOT
ATOM      1 BR   UNL     1      37.898 -23.535 -15.340  0.00  0.00    -0.031 Br
ATOM      2  N   UNL     1      35.058 -23.397 -16.126  0.00  0.00    -0.242 N 
ATOM      3  N   UNL     1      34.031 -24.629 -14.571  0.00  0.00    -0.225 NA
ATOM      4  C   UNL     1      32.656 -23.568 -16.384  0.00  0.00    +0.078 C 
ATOM      5  C   UNL     1      33.850 -23.901 -15.656  0.00  0.00    +0.153 C 
ATOM      6  C   UNL     1      34.076 -22.264 -17.956  0.00  0.00    +0.017 C 
ATOM      7  C   UNL     1      32.789 -22.785 -17.480  0.00  0.00    +0.018 C 
ATOM      8  C   UNL     1      35.179 -22.594 -17.254  0.00  0.00    +0.071 C 
ATOM      9  C   UNL     1      36.037 -23.848 -15.277  0.00  0.00    +0.111 C 
ATOM     10  C   UNL     1      35.380 -24.599 -14.332  0.00  0.00    +0.122 C 
ENDROOT
BRANCH   6  11
ATOM     11  C   UNL     1      34.209 -21.420 -19.157  0.00  0.00    +0.001 C 
ATOM     12  C   UNL     1      35.469 -21.186 -19.708  0.00  0.00    +0.000 C 
ATOM     13  C   UNL     1      33.077 -20.853 -19.742  0.00  0.00    +0.000 C 
ATOM     14  C   UNL     1      35.597 -20.386 -20.845  0.00  0.00    +0.000 C 
ATOM     15  C   UNL     1      33.203 -20.055 -20.878  0.00  0.00    +0.000 C 
ATOM     16  C   UNL     1      34.464 -19.821 -21.430  0.00  0.00    +0.000 C 
ENDBRANCH   6  11
BRANCH   4  17
ATOM     17  N   UNL     1      31.442 -24.039 -15.961  0.00  0.00    -0.327 N 
ATOM     18  H   UNL     1      31.168 -24.948 -16.221  0.00  0.00    +0.147 HD
BRANCH  17  19
ATOM     19  C   UNL     1      30.557 -23.256 -15.154  0.00  0.00    +0.117 C 
BRANCH  19  22
ATOM     20  N   UNL     1      27.818 -23.284 -17.737  0.00  0.00    -0.223 NA
ATOM     21  N   UNL     1      27.138 -21.870 -15.907  0.00  0.00    -0.223 NA
ATOM     22  C   UNL     1      29.261 -22.970 -15.857  0.00  0.00    +0.036 C 
ATOM     23  C   UNL     1      28.972 -23.518 -17.078  0.00  0.00    +0.100 C 
ATOM     24  C   UNL     1      28.312 -22.149 -15.305  0.00  0.00    +0.100 C 
ATOM     25  C   UNL     1      26.959 -22.463 -17.103  0.00  0.00    +0.199 C 
ENDBRANCH  19  22
ENDBRANCH  17  19
ENDBRANCH   4  17
TORSDOF 4
ENDMDL
MODEL 8
REMARK VINA RESULT:     -10.1      2.601      5.827
REMARK  Name = 10249182
REMARK  4 active torsions:
REMARK  status: ('A' for Active; 'I' for Inactive)
REMARK    1  A    between atoms: C_4  and  N_17
REMARK    2  A    between atoms: C_6  and  C_11
REMARK    3  A    between atoms: N_17  and  C_19
REMARK    4  A    between atoms: C_19  and  C_22
REMARK                            x       y       z     vdW  Elec       q    Type
REMARK                         _______ _______ _______ _____ _____    ______ ____
ROOT
ATOM      1 BR   UNL     1      39.210 -25.102 -14.084  0.00  0.00    -0.031 Br
ATOM      2  N   UNL     1      36.395 -24.256 -14.327  0.00  0.00    -0.242 N 
ATOM      3  N   UNL     1      35.470 -24.987 -12.429  0.00  0.00    -0.225 NA
ATOM      4  C   UNL     1      34.033 -23.775 -14.092  0.00  0.00    +0.078 C 
ATOM      5  C   UNL     1      35.237 -24.351 -13.561  0.00  0.00    +0.153 C 
ATOM      6  C   UNL     1      35.341 -23.087 -16.093  0.00  0.00    +0.017 C 
ATOM      7  C   UNL     1      34.107 -23.175 -15.304  0.00  0.00    +0.018 C 
ATOM      8  C   UNL     1      36.455 -23.639 -15.570  0.00  0.00    +0.071 C 
ATOM      9  C   UNL     1      37.394 -24.874 -13.619  0.00  0.00    +0.111 C 
ATOM     10  C   UNL     1      36.801 -25.311 -12.459  0.00  0.00    +0.122 C 
ENDROOT
BRANCH   6  11
ATOM     11  C   UNL     1      35.407 -22.440 -17.416  0.00  0.00    +0.001 C 
ATOM     12  C   UNL     1      34.289 -22.441 -18.249  0.00  0.00    +0.000 C 
ATOM     13  C   UNL     1      36.588 -21.827 -17.836  0.00  0.00    +0.000 C 
ATOM     14  C   UNL     1      34.350 -21.828 -19.502  0.00  0.00    +0.000 C 
ATOM     15  C   UNL     1      36.650 -21.215 -19.087  0.00  0.00    +0.000 C 
ATOM     16  C   UNL     1      35.531 -21.216 -19.920  0.00  0.00    +0.000 C 
ENDBRANCH   6  11
BRANCH   4  17
ATOM     17  N   UNL     1      32.868 -23.842 -13.376  0.00  0.00    -0.327 N 
ATOM     18  H   UNL     1      32.697 -23.165 -12.681  0.00  0.00    +0.147 HD
BRANCH  17  19
ATOM     19  C   UNL     1      31.889 -24.862 -13.601  0.00  0.00    +0.117 C 
BRANCH  19  22
ATOM     20  N   UNL     1      28.857 -24.788 -15.832  0.00  0.00    -0.223 NA
ATOM     21  N   UNL     1      29.384 -22.531 -15.171  0.00  0.00    -0.223 NA
ATOM     22  C   UNL     1      30.724 -24.356 -14.401  0.00  0.00    +0.036 C 
ATOM     23  C   UNL     1      29.913 -25.208 -15.103  0.00  0.00    +0.100 C 
ATOM     24  C   UNL     1      30.423 -23.021 -14.463  0.00  0.00    +0.100 C 
ATOM     25  C   UNL     1      28.654 -23.457 -15.821  0.00  0.00    +0.199 C 
ENDBRANCH  19  22
ENDBRANCH  17  19
ENDBRANCH   4  17
TORSDOF 4
ENDMDL
MODEL 9
REMARK VINA RESULT:      -9.8      2.474      5.083
REMARK  Name = 10249182
REMARK  4 active torsions:
REMARK  status: ('A' for Active; 'I' for Inactive)
REMARK    1  A    between atoms: C_4  and  N_17
REMARK    2  A    between atoms: C_6  and  C_11
REMARK    3  A    between atoms: N_17  and  C_19
REMARK    4  A    between atoms: C_19  and  C_22
REMARK                            x       y       z     vdW  Elec       q    Type
REMARK                         _______ _______ _______ _____ _____    ______ ____
ROOT
ATOM      1 BR   UNL     1      33.455 -20.815 -20.316  0.00  0.00    -0.031 Br
ATOM      2  N   UNL     1      34.061 -22.382 -17.892  0.00  0.00    -0.242 N 
ATOM      3  N   UNL     1      36.294 -22.373 -17.815  0.00  0.00    -0.225 NA
ATOM      4  C   UNL     1      35.022 -23.583 -16.021  0.00  0.00    +0.078 C 
ATOM      5  C   UNL     1      35.200 -22.798 -17.211  0.00  0.00    +0.153 C 
ATOM      6  C   UNL     1      32.566 -23.413 -16.376  0.00  0.00    +0.017 C 
ATOM      7  C   UNL     1      33.753 -23.864 -15.641  0.00  0.00    +0.018 C 
ATOM      8  C   UNL     1      32.765 -22.679 -17.490  0.00  0.00    +0.071 C 
ATOM      9  C   UNL     1      34.485 -21.661 -18.979  0.00  0.00    +0.111 C 
ATOM     10  C   UNL     1      35.857 -21.670 -18.907  0.00  0.00    +0.122 C 
ENDROOT
BRANCH   6  11
ATOM     11  C   UNL     1      31.189 -23.733 -15.958  0.00  0.00    +0.001 C 
ATOM     12  C   UNL     1      30.959 -24.759 -15.041  0.00  0.00    +0.000 C 
ATOM     13  C   UNL     1      30.114 -23.011 -16.478  0.00  0.00    +0.000 C 
ATOM     14  C   UNL     1      29.656 -25.063 -14.644  0.00  0.00    +0.000 C 
ATOM     15  C   UNL     1      28.812 -23.314 -16.082  0.00  0.00    +0.000 C 
ATOM     16  C   UNL     1      28.583 -24.341 -15.165  0.00  0.00    +0.000 C 
ENDBRANCH   6  11
BRANCH   4  17
ATOM     17  N   UNL     1      36.112 -24.016 -15.316  0.00  0.00    -0.327 N 
ATOM     18  H   UNL     1      36.429 -24.939 -15.449  0.00  0.00    +0.147 HD
BRANCH  17  19
ATOM     19  C   UNL     1      36.807 -23.175 -14.389  0.00  0.00    +0.117 C 
BRANCH  19  22
ATOM     20  N   UNL     1      35.235 -24.802 -11.380  0.00  0.00    -0.223 NA
ATOM     21  N   UNL     1      36.912 -23.244 -10.627  0.00  0.00    -0.223 NA
ATOM     22  C   UNL     1      36.498 -23.532 -12.964  0.00  0.00    +0.036 C 
ATOM     23  C   UNL     1      35.538 -24.457 -12.649  0.00  0.00    +0.100 C 
ATOM     24  C   UNL     1      37.163 -22.947 -11.918  0.00  0.00    +0.100 C 
ATOM     25  C   UNL     1      35.950 -24.166 -10.433  0.00  0.00    +0.199 C 
ENDBRANCH  19  22
ENDBRANCH  17  19
ENDBRANCH   4  17
TORSDOF 4
ENDMDL
