MODEL 1
REMARK VINA RESULT:     -12.5      0.000      0.000
REMARK  Name = 448605
REMARK  6 active torsions:
REMARK  status: ('A' for Active; 'I' for Inactive)
REMARK    1  A    between atoms: C_3  and  N_11
REMARK    2  A    between atoms: C_4  and  C_27
REMARK    3  A    between atoms: C_9  and  C_21
REMARK    4  A    between atoms: N_26  and  C_29
REMARK    5  A    between atoms: C_30  and  C_35
REMARK    6  A    between atoms: C_35  and  N_36
REMARK                            x       y       z     vdW  Elec       q    Type
REMARK                         _______ _______ _______ _____ _____    ______ ____
ROOT
ATOM      1  C   UNL     1      34.229 -23.040 -16.396  0.00  0.00    +0.014 C 
ATOM      2  C   UNL     1      33.261 -22.748 -17.387  0.00  0.00    +0.001 C 
ATOM      3  C   UNL     1      35.565 -22.664 -16.609  0.00  0.00    +0.057 C 
ATOM      4  C   UNL     1      34.991 -21.722 -18.756  0.00  0.00    +0.055 C 
ATOM      5  C   UNL     1      33.659 -22.087 -18.562  0.00  0.00    +0.005 C 
ATOM      6  C   UNL     1      35.943 -22.009 -17.781  0.00  0.00    +0.020 C 
ATOM      7  C   UNL     1      33.832 -23.700 -15.222  0.00  0.00    +0.004 C 
ATOM      8  C   UNL     1      31.925 -23.124 -17.175  0.00  0.00    +0.000 C 
ATOM      9  C   UNL     1      32.499 -24.067 -15.027  0.00  0.00    +0.031 C 
ATOM     10  C   UNL     1      31.548 -23.778 -16.002  0.00  0.00    +0.003 C 
ENDROOT
BRANCH   3  11
ATOM     11  N   UNL     1      36.573 -22.932 -15.650  0.00  0.00    -0.257 N 
ATOM     12  N   UNL     1      36.551 -25.277 -15.588  0.00  0.00    -0.180 NA
ATOM     13  N   UNL     1      38.068 -24.017 -14.203  0.00  0.00    -0.203 NA
ATOM     14  C   UNL     1      37.087 -24.128 -15.124  0.00  0.00    +0.091 C 
ATOM     15  C   UNL     1      37.068 -26.406 -15.061  0.00  0.00    +0.108 C 
ATOM     16  C   UNL     1      38.538 -25.185 -13.718  0.00  0.00    +0.165 C 
ATOM     17  C   UNL     1      38.072 -26.422 -14.114  0.00  0.00    +0.022 C 
ATOM     18  H   UNL     1      36.994 -22.122 -15.281  0.00  0.00    +0.164 HD
ENDBRANCH   3  11
BRANCH   9  21
ATOM     19  N   UNL     1      30.769 -25.057 -13.548  0.00  0.00    -0.343 N 
ATOM     20  N   UNL     1      33.017 -25.084 -12.913  0.00  0.00    -0.285 NA
ATOM     21  C   UNL     1      32.103 -24.749 -13.805  0.00  0.00    +0.117 C 
ATOM     22  H   UNL     1      30.523 -25.519 -12.714  0.00  0.00    +0.144 HD
ATOM     23  H   UNL     1      30.071 -24.813 -14.199  0.00  0.00    +0.144 HD
ATOM     24  H   UNL     1      32.751 -25.546 -12.085  0.00  0.00    +0.188 HD
ENDBRANCH   9  21
BRANCH   4  27
ATOM     25  O   UNL     1      36.379 -21.445 -20.603  0.00  0.00    -0.270 OA
ATOM     26  N   UNL     1      34.575 -19.963 -20.366  0.00  0.00    -0.280 N 
ATOM     27  C   UNL     1      35.386 -21.038 -19.978  0.00  0.00    +0.250 C 
ATOM     28  H   UNL     1      33.822 -19.756 -19.767  0.00  0.00    +0.155 HD
BRANCH  26  29
ATOM     29  C   UNL     1      34.697 -19.134 -21.509  0.00  0.00    +0.051 C 
ATOM     30  C   UNL     1      34.935 -17.515 -23.741  0.00  0.00    -0.044 C 
ATOM     31  C   UNL     1      34.595 -19.700 -22.768  0.00  0.00    +0.014 C 
ATOM     32  C   UNL     1      34.916 -17.777 -21.340  0.00  0.00    +0.014 C 
ATOM     33  C   UNL     1      34.715 -18.884 -23.893  0.00  0.00    -0.005 C 
ATOM     34  C   UNL     1      35.035 -16.962 -22.465  0.00  0.00    -0.005 C 
BRANCH  30  35
ATOM     35  C   UNL     1      35.062 -16.643 -24.944  0.00  0.00    -0.059 C 
BRANCH  35  36
ATOM     36  N   UNL     1      33.844 -15.934 -25.239  0.00  0.00    +0.383 N 
ATOM     37  H   UNL     1      33.173 -16.079 -24.485  0.00  0.00    -0.089 HD
ATOM     38  H   UNL     1      33.451 -16.282 -26.114  0.00  0.00    -0.089 HD
ATOM     39  H   UNL     1      34.044 -14.938 -25.329  0.00  0.00    -0.089 HD
ENDBRANCH  35  36
ENDBRANCH  30  35
ENDBRANCH  26  29
ENDBRANCH   4  27
TORSDOF 6
ENDMDL
MODEL 2
REMARK VINA RESULT:     -12.4      1.733      4.509
REMARK  Name = 448605
REMARK  6 active torsions:
REMARK  status: ('A' for Active; 'I' for Inactive)
REMARK    1  A    between atoms: C_3  and  N_11
REMARK    2  A    between atoms: C_4  and  C_27
REMARK    3  A    between atoms: C_9  and  C_21
REMARK    4  A    between atoms: N_26  and  C_29
REMARK    5  A    between atoms: C_30  and  C_35
REMARK    6  A    between atoms: C_35  and  N_36
REMARK                            x       y       z     vdW  Elec       q    Type
REMARK                         _______ _______ _______ _____ _____    ______ ____
ROOT
ATOM      1  C   UNL     1      34.943 -23.128 -16.531  0.00  0.00    +0.014 C 
ATOM      2  C   UNL     1      35.915 -22.339 -17.193  0.00  0.00    +0.001 C 
ATOM      3  C   UNL     1      33.632 -23.164 -17.032  0.00  0.00    +0.057 C 
ATOM      4  C   UNL     1      34.238 -21.657 -18.818  0.00  0.00    +0.055 C 
ATOM      5  C   UNL     1      35.546 -21.610 -18.336  0.00  0.00    +0.005 C 
ATOM      6  C   UNL     1      33.283 -22.434 -18.168  0.00  0.00    +0.020 C 
ATOM      7  C   UNL     1      35.312 -23.857 -15.390  0.00  0.00    +0.004 C 
ATOM      8  C   UNL     1      37.226 -22.302 -16.692  0.00  0.00    +0.000 C 
ATOM      9  C   UNL     1      36.620 -23.809 -14.906  0.00  0.00    +0.031 C 
ATOM     10  C   UNL     1      37.576 -23.033 -15.556  0.00  0.00    +0.003 C 
ENDROOT
BRANCH   3  11
ATOM     11  N   UNL     1      32.621 -23.937 -16.410  0.00  0.00    -0.257 N 
ATOM     12  N   UNL     1      30.722 -22.608 -16.773  0.00  0.00    -0.180 NA
ATOM     13  N   UNL     1      30.559 -24.699 -15.588  0.00  0.00    -0.203 NA
ATOM     14  C   UNL     1      31.240 -23.740 -16.250  0.00  0.00    +0.091 C 
ATOM     15  C   UNL     1      29.394 -22.450 -16.602  0.00  0.00    +0.108 C 
ATOM     16  C   UNL     1      29.235 -24.477 -15.452  0.00  0.00    +0.165 C 
ATOM     17  C   UNL     1      28.592 -23.360 -15.944  0.00  0.00    +0.022 C 
ATOM     18  H   UNL     1      32.951 -24.775 -16.012  0.00  0.00    +0.164 HD
ENDBRANCH   3  11
BRANCH   9  21
ATOM     19  N   UNL     1      36.075 -25.418 -13.095  0.00  0.00    -0.343 N 
ATOM     20  N   UNL     1      38.204 -24.462 -13.220  0.00  0.00    -0.285 NA
ATOM     21  C   UNL     1      36.987 -24.571 -13.722  0.00  0.00    +0.117 C 
ATOM     22  H   UNL     1      36.344 -25.924 -12.295  0.00  0.00    +0.144 HD
ATOM     23  H   UNL     1      35.162 -25.511 -13.452  0.00  0.00    +0.144 HD
ATOM     24  H   UNL     1      38.453 -24.977 -12.419  0.00  0.00    +0.188 HD
ENDBRANCH   9  21
BRANCH   4  27
ATOM     25  O   UNL     1      32.740 -21.043 -20.488  0.00  0.00    -0.270 OA
ATOM     26  N   UNL     1      34.853 -20.022 -20.494  0.00  0.00    -0.280 N 
ATOM     27  C   UNL     1      33.873 -20.896 -20.003  0.00  0.00    +0.250 C 
ATOM     28  H   UNL     1      35.705 -20.016 -20.003  0.00  0.00    +0.155 HD
BRANCH  26  29
ATOM     29  C   UNL     1      34.775 -19.146 -21.605  0.00  0.00    +0.051 C 
ATOM     30  C   UNL     1      34.624 -17.433 -23.774  0.00  0.00    -0.044 C 
ATOM     31  C   UNL     1      34.956 -19.653 -22.879  0.00  0.00    +0.014 C 
ATOM     32  C   UNL     1      34.522 -17.802 -21.389  0.00  0.00    +0.014 C 
ATOM     33  C   UNL     1      34.880 -18.790 -23.973  0.00  0.00    -0.005 C 
ATOM     34  C   UNL     1      34.445 -16.940 -22.482  0.00  0.00    -0.005 C 
BRANCH  30  35
ATOM     35  C   UNL     1      34.543 -16.512 -24.943  0.00  0.00    -0.059 C 
BRANCH  35  36
ATOM     36  N   UNL     1      33.741 -15.347 -24.668  0.00  0.00    +0.383 N 
ATOM     37  H   UNL     1      34.034 -14.580 -25.273  0.00  0.00    -0.089 HD
ATOM     38  H   UNL     1      33.860 -15.075 -23.692  0.00  0.00    -0.089 HD
ATOM     39  H   UNL     1      32.759 -15.562 -24.843  0.00  0.00    -0.089 HD
ENDBRANCH  35  36
ENDBRANCH  30  35
ENDBRANCH  26  29
ENDBRANCH   4  27
TORSDOF 6
ENDMDL
MODEL 3
REMARK VINA RESULT:     -10.7      1.174      1.629
REMARK  Name = 448605
REMARK  6 active torsions:
REMARK  status: ('A' for Active; 'I' for Inactive)
REMARK    1  A    between atoms: C_3  and  N_11
REMARK    2  A    between atoms: C_4  and  C_27
REMARK    3  A    between atoms: C_9  and  C_21
REMARK    4  A    between atoms: N_26  and  C_29
REMARK    5  A    between atoms: C_30  and  C_35
REMARK    6  A    between atoms: C_35  and  N_36
REMARK                            x       y       z     vdW  Elec       q    Type
REMARK                         _______ _______ _______ _____ _____    ______ ____
ROOT
ATOM      1  C   UNL     1      32.822 -23.506 -16.466  0.00  0.00    +0.014 C 
ATOM      2  C   UNL     1      32.041 -22.631 -17.259  0.00  0.00    +0.001 C 
ATOM      3  C   UNL     1      34.195 -23.630 -16.730  0.00  0.00    +0.057 C 
ATOM      4  C   UNL     1      34.024 -22.045 -18.542  0.00  0.00    +0.055 C 
ATOM      5  C   UNL     1      32.658 -21.907 -18.294  0.00  0.00    +0.005 C 
ATOM      6  C   UNL     1      34.791 -22.904 -17.761  0.00  0.00    +0.020 C 
ATOM      7  C   UNL     1      32.207 -24.228 -15.431  0.00  0.00    +0.004 C 
ATOM      8  C   UNL     1      30.668 -22.506 -16.995  0.00  0.00    +0.000 C 
ATOM      9  C   UNL     1      30.840 -24.092 -15.182  0.00  0.00    +0.031 C 
ATOM     10  C   UNL     1      30.072 -23.232 -15.963  0.00  0.00    +0.003 C 
ENDROOT
BRANCH   3  11
ATOM     11  N   UNL     1      35.023 -24.490 -15.966  0.00  0.00    -0.257 N 
ATOM     12  N   UNL     1      35.946 -22.996 -14.411  0.00  0.00    -0.180 NA
ATOM     13  N   UNL     1      36.528 -25.334 -14.375  0.00  0.00    -0.203 NA
ATOM     14  C   UNL     1      35.869 -24.263 -14.869  0.00  0.00    +0.091 C 
ATOM     15  C   UNL     1      36.768 -22.814 -13.357  0.00  0.00    +0.108 C 
ATOM     16  C   UNL     1      37.332 -25.080 -13.322  0.00  0.00    +0.165 C 
ATOM     17  C   UNL     1      37.493 -23.828 -12.765  0.00  0.00    +0.022 C 
ATOM     18  H   UNL     1      35.001 -25.429 -16.264  0.00  0.00    +0.164 HD
ENDBRANCH   3  11
BRANCH   9  21
ATOM     19  N   UNL     1      28.981 -25.467 -14.279  0.00  0.00    -0.343 N 
ATOM     20  N   UNL     1      30.824 -24.950 -12.938  0.00  0.00    -0.285 NA
ATOM     21  C   UNL     1      30.217 -24.847 -14.107  0.00  0.00    +0.117 C 
ATOM     22  H   UNL     1      28.577 -25.973 -13.537  0.00  0.00    +0.144 HD
ATOM     23  H   UNL     1      28.511 -25.400 -15.142  0.00  0.00    +0.144 HD
ATOM     24  H   UNL     1      30.403 -25.461 -12.209  0.00  0.00    +0.188 HD
ENDBRANCH   9  21
BRANCH   4  27
ATOM     25  O   UNL     1      35.789 -21.599 -19.990  0.00  0.00    -0.270 OA
ATOM     26  N   UNL     1      33.870 -20.260 -20.169  0.00  0.00    -0.280 N 
ATOM     27  C   UNL     1      34.646 -21.289 -19.617  0.00  0.00    +0.250 C 
ATOM     28  H   UNL     1      32.982 -20.131 -19.767  0.00  0.00    +0.155 HD
BRANCH  26  29
ATOM     29  C   UNL     1      34.198 -19.381 -21.231  0.00  0.00    +0.051 C 
ATOM     30  C   UNL     1      34.838 -17.663 -23.306  0.00  0.00    -0.044 C 
ATOM     31  C   UNL     1      34.584 -19.909 -22.451  0.00  0.00    +0.014 C 
ATOM     32  C   UNL     1      34.126 -18.013 -21.025  0.00  0.00    +0.014 C 
ATOM     33  C   UNL     1      34.907 -19.044 -23.496  0.00  0.00    -0.005 C 
ATOM     34  C   UNL     1      34.448 -17.149 -22.070  0.00  0.00    -0.005 C 
BRANCH  30  35
ATOM     35  C   UNL     1      35.183 -16.739 -24.424  0.00  0.00    -0.059 C 
BRANCH  35  36
ATOM     36  N   UNL     1      34.014 -16.216 -25.083  0.00  0.00    +0.383 N 
ATOM     37  H   UNL     1      33.767 -16.818 -25.868  0.00  0.00    -0.089 HD
ATOM     38  H   UNL     1      34.208 -15.275 -25.424  0.00  0.00    -0.089 HD
ATOM     39  H   UNL     1      33.237 -16.184 -24.422  0.00  0.00    -0.089 HD
ENDBRANCH  35  36
ENDBRANCH  30  35
ENDBRANCH  26  29
ENDBRANCH   4  27
TORSDOF 6
ENDMDL
MODEL 4
REMARK VINA RESULT:     -10.3      3.081      8.231
REMARK  Name = 448605
REMARK  6 active torsions:
REMARK  status: ('A' for Active; 'I' for Inactive)
REMARK    1  A    between atoms: C_3  and  N_11
REMARK    2  A    between atoms: C_4  and  C_27
REMARK    3  A    between atoms: C_9  and  C_21
REMARK    4  A    between atoms: N_26  and  C_29
REMARK    5  A    between atoms: C_30  and  C_35
REMARK    6  A    between atoms: C_35  and  N_36
REMARK                            x       y       z     vdW  Elec       q    Type
REMARK                         _______ _______ _______ _____ _____    ______ ____
ROOT
ATOM      1  C   UNL     1      30.977 -23.112 -16.272  0.00  0.00    +0.014 C 
ATOM      2  C   UNL     1      30.975 -23.814 -15.042  0.00  0.00    +0.001 C 
ATOM      3  C   UNL     1      32.200 -22.824 -16.897  0.00  0.00    +0.057 C 
ATOM      4  C   UNL     1      33.406 -23.912 -15.110  0.00  0.00    +0.055 C 
ATOM      5  C   UNL     1      32.199 -24.208 -14.475  0.00  0.00    +0.005 C 
ATOM      6  C   UNL     1      33.407 -23.222 -16.320  0.00  0.00    +0.020 C 
ATOM      7  C   UNL     1      29.754 -22.719 -16.840  0.00  0.00    +0.004 C 
ATOM      8  C   UNL     1      29.752 -24.101 -14.417  0.00  0.00    +0.000 C 
ATOM      9  C   UNL     1      28.547 -23.014 -16.204  0.00  0.00    +0.031 C 
ATOM     10  C   UNL     1      28.546 -23.704 -14.995  0.00  0.00    +0.003 C 
ENDROOT
BRANCH   3  11
ATOM     11  N   UNL     1      32.259 -22.125 -18.128  0.00  0.00    -0.257 N 
ATOM     12  N   UNL     1      34.575 -21.951 -18.460  0.00  0.00    -0.180 NA
ATOM     13  N   UNL     1      33.024 -21.031 -20.058  0.00  0.00    -0.203 NA
ATOM     14  C   UNL     1      33.334 -21.683 -18.917  0.00  0.00    +0.091 C 
ATOM     15  C   UNL     1      35.583 -21.512 -19.242  0.00  0.00    +0.108 C 
ATOM     16  C   UNL     1      34.080 -20.620 -20.791  0.00  0.00    +0.165 C 
ATOM     17  C   UNL     1      35.394 -20.835 -20.429  0.00  0.00    +0.022 C 
ATOM     18  H   UNL     1      31.375 -21.907 -18.502  0.00  0.00    +0.164 HD
ENDBRANCH   3  11
BRANCH   9  21
ATOM     19  N   UNL     1      26.297 -21.975 -16.052  0.00  0.00    -0.343 N 
ATOM     20  N   UNL     1      27.069 -22.821 -18.088  0.00  0.00    -0.285 NA
ATOM     21  C   UNL     1      27.288 -22.600 -16.805  0.00  0.00    +0.117 C 
ATOM     22  H   UNL     1      25.452 -21.704 -16.478  0.00  0.00    +0.144 HD
ATOM     23  H   UNL     1      26.440 -21.805 -15.092  0.00  0.00    +0.144 HD
ATOM     24  H   UNL     1      26.217 -22.541 -18.497  0.00  0.00    +0.188 HD
ENDBRANCH   9  21
BRANCH   4  27
ATOM     25  O   UNL     1      34.689 -24.616 -13.303  0.00  0.00    -0.270 OA
ATOM     26  N   UNL     1      35.764 -24.387 -15.376  0.00  0.00    -0.280 N 
ATOM     27  C   UNL     1      34.664 -24.327 -14.509  0.00  0.00    +0.250 C 
ATOM     28  H   UNL     1      35.590 -24.126 -16.308  0.00  0.00    +0.155 HD
BRANCH  26  29
ATOM     29  C   UNL     1      37.096 -24.775 -15.084  0.00  0.00    +0.051 C 
ATOM     30  C   UNL     1      39.696 -25.533 -14.515  0.00  0.00    -0.044 C 
ATOM     31  C   UNL     1      37.333 -26.032 -14.555  0.00  0.00    +0.014 C 
ATOM     32  C   UNL     1      38.129 -23.888 -15.335  0.00  0.00    +0.014 C 
ATOM     33  C   UNL     1      38.643 -26.414 -14.268  0.00  0.00    -0.005 C 
ATOM     34  C   UNL     1      39.439 -24.271 -15.049  0.00  0.00    -0.005 C 
BRANCH  30  35
ATOM     35  C   UNL     1      41.097 -25.942 -14.209  0.00  0.00    -0.059 C 
BRANCH  35  36
ATOM     36  N   UNL     1      41.205 -27.348 -13.910  0.00  0.00    +0.383 N 
ATOM     37  H   UNL     1      42.152 -27.668 -14.111  0.00  0.00    -0.089 HD
ATOM     38  H   UNL     1      40.540 -27.869 -14.482  0.00  0.00    -0.089 HD
ATOM     39  H   UNL     1      40.996 -27.501 -12.923  0.00  0.00    -0.089 HD
ENDBRANCH  35  36
ENDBRANCH  30  35
ENDBRANCH  26  29
ENDBRANCH   4  27
TORSDOF 6
ENDMDL
MODEL 5
REMARK VINA RESULT:      -9.8      5.322     12.579
REMARK  Name = 448605
REMARK  6 active torsions:
REMARK  status: ('A' for Active; 'I' for Inactive)
REMARK    1  A    between atoms: C_3  and  N_11
REMARK    2  A    between atoms: C_4  and  C_27
REMARK    3  A    between atoms: C_9  and  C_21
REMARK    4  A    between atoms: N_26  and  C_29
REMARK    5  A    between atoms: C_30  and  C_35
REMARK    6  A    between atoms: C_35  and  N_36
REMARK                            x       y       z     vdW  Elec       q    Type
REMARK                         _______ _______ _______ _____ _____    ______ ____
ROOT
ATOM      1  C   UNL     1      32.423 -11.616 -21.741  0.00  0.00    +0.014 C 
ATOM      2  C   UNL     1      32.019 -12.109 -20.477  0.00  0.00    +0.001 C 
ATOM      3  C   UNL     1      32.907 -12.514 -22.706  0.00  0.00    +0.057 C 
ATOM      4  C   UNL     1      32.594 -14.364 -21.186  0.00  0.00    +0.055 C 
ATOM      5  C   UNL     1      32.110 -13.486 -20.215  0.00  0.00    +0.005 C 
ATOM      6  C   UNL     1      32.991 -13.879 -22.429  0.00  0.00    +0.020 C 
ATOM      7  C   UNL     1      32.332 -10.240 -22.003  0.00  0.00    +0.004 C 
ATOM      8  C   UNL     1      31.536 -11.210 -19.512  0.00  0.00    +0.000 C 
ATOM      9  C   UNL     1      31.848  -9.360 -21.032  0.00  0.00    +0.031 C 
ATOM     10  C   UNL     1      31.451  -9.845 -19.790  0.00  0.00    +0.003 C 
ENDROOT
BRANCH   3  11
ATOM     11  N   UNL     1      33.324 -12.075 -23.986  0.00  0.00    -0.257 N 
ATOM     12  N   UNL     1      32.976 -14.001 -25.280  0.00  0.00    -0.180 NA
ATOM     13  N   UNL     1      33.846 -11.985 -26.272  0.00  0.00    -0.203 NA
ATOM     14  C   UNL     1      33.384 -12.715 -25.235  0.00  0.00    +0.091 C 
ATOM     15  C   UNL     1      33.047 -14.585 -26.494  0.00  0.00    +0.108 C 
ATOM     16  C   UNL     1      33.891 -12.631 -27.457  0.00  0.00    +0.165 C 
ATOM     17  C   UNL     1      33.500 -13.943 -27.629  0.00  0.00    +0.022 C 
ATOM     18  H   UNL     1      33.632 -11.141 -24.004  0.00  0.00    +0.164 HD
ENDBRANCH   3  11
BRANCH   9  21
ATOM     19  N   UNL     1      31.311  -7.474 -22.554  0.00  0.00    -0.343 N 
ATOM     20  N   UNL     1      32.111  -7.058 -20.399  0.00  0.00    -0.285 NA
ATOM     21  C   UNL     1      31.759  -7.938 -21.319  0.00  0.00    +0.117 C 
ATOM     22  H   UNL     1      31.258  -6.507 -22.727  0.00  0.00    +0.144 HD
ATOM     23  H   UNL     1      31.046  -8.114 -23.255  0.00  0.00    +0.144 HD
ATOM     24  H   UNL     1      32.051  -6.094 -20.591  0.00  0.00    +0.188 HD
ENDBRANCH   9  21
BRANCH   4  27
ATOM     25  O   UNL     1      31.671 -16.385 -20.498  0.00  0.00    -0.270 OA
ATOM     26  N   UNL     1      33.932 -16.380 -21.127  0.00  0.00    -0.280 N 
ATOM     27  C   UNL     1      32.682 -15.787 -20.899  0.00  0.00    +0.250 C 
ATOM     28  H   UNL     1      34.641 -15.776 -21.444  0.00  0.00    +0.155 HD
BRANCH  26  29
ATOM     29  C   UNL     1      34.307 -17.737 -20.962  0.00  0.00    +0.051 C 
ATOM     30  C   UNL     1      35.040 -20.386 -20.638  0.00  0.00    -0.044 C 
ATOM     31  C   UNL     1      35.649 -18.075 -20.993  0.00  0.00    +0.014 C 
ATOM     32  C   UNL     1      33.323 -18.693 -20.774  0.00  0.00    +0.014 C 
ATOM     33  C   UNL     1      36.018 -19.411 -20.830  0.00  0.00    -0.005 C 
ATOM     34  C   UNL     1      33.693 -20.027 -20.610  0.00  0.00    -0.005 C 
BRANCH  30  35
ATOM     35  C   UNL     1      35.436 -21.814 -20.464  0.00  0.00    -0.059 C 
BRANCH  35  36
ATOM     36  N   UNL     1      34.903 -22.386 -19.255  0.00  0.00    +0.383 N 
ATOM     37  H   UNL     1      34.111 -22.988 -19.482  0.00  0.00    -0.089 HD
ATOM     38  H   UNL     1      34.594 -21.639 -18.632  0.00  0.00    -0.089 HD
ATOM     39  H   UNL     1      35.626 -22.937 -18.792  0.00  0.00    -0.089 HD
ENDBRANCH  35  36
ENDBRANCH  30  35
ENDBRANCH  26  29
ENDBRANCH   4  27
TORSDOF 6
ENDMDL
MODEL 6
REMARK VINA RESULT:      -9.7      5.400     12.937
REMARK  Name = 448605
REMARK  6 active torsions:
REMARK  status: ('A' for Active; 'I' for Inactive)
REMARK    1  A    between atoms: C_3  and  N_11
REMARK    2  A    between atoms: C_4  and  C_27
REMARK    3  A    between atoms: C_9  and  C_21
REMARK    4  A    between atoms: N_26  and  C_29
REMARK    5  A    between atoms: C_30  and  C_35
REMARK    6  A    between atoms: C_35  and  N_36
REMARK                            x       y       z     vdW  Elec       q    Type
REMARK                         _______ _______ _______ _____ _____    ______ ____
ROOT
ATOM      1  C   UNL     1      32.341 -11.961 -22.448  0.00  0.00    +0.014 C 
ATOM      2  C   UNL     1      31.975 -12.262 -21.113  0.00  0.00    +0.001 C 
ATOM      3  C   UNL     1      32.839 -12.983 -23.271  0.00  0.00    +0.057 C 
ATOM      4  C   UNL     1      32.616 -14.582 -21.475  0.00  0.00    +0.055 C 
ATOM      5  C   UNL     1      32.118 -13.578 -20.643  0.00  0.00    +0.005 C 
ATOM      6  C   UNL     1      32.975 -14.285 -22.787  0.00  0.00    +0.020 C 
ATOM      7  C   UNL     1      32.198 -10.646 -22.918  0.00  0.00    +0.004 C 
ATOM      8  C   UNL     1      31.478 -11.240 -20.290  0.00  0.00    +0.000 C 
ATOM      9  C   UNL     1      31.701  -9.641 -22.086  0.00  0.00    +0.031 C 
ATOM     10  C   UNL     1      31.341  -9.938 -20.774  0.00  0.00    +0.003 C 
ENDROOT
BRANCH   3  11
ATOM     11  N   UNL     1      33.219 -12.737 -24.613  0.00  0.00    -0.257 N 
ATOM     12  N   UNL     1      34.775 -11.001 -24.349  0.00  0.00    -0.180 NA
ATOM     13  N   UNL     1      34.240 -11.861 -26.536  0.00  0.00    -0.203 NA
ATOM     14  C   UNL     1      34.118 -11.826 -25.191  0.00  0.00    +0.091 C 
ATOM     15  C   UNL     1      35.630 -10.140 -24.938  0.00  0.00    +0.108 C 
ATOM     16  C   UNL     1      35.111 -10.973 -27.058  0.00  0.00    +0.165 C 
ATOM     17  C   UNL     1      35.841 -10.080 -26.301  0.00  0.00    +0.022 C 
ATOM     18  H   UNL     1      32.765 -13.316 -25.266  0.00  0.00    +0.164 HD
ENDBRANCH   3  11
BRANCH   9  21
ATOM     19  N   UNL     1      31.885  -7.182 -21.801  0.00  0.00    -0.343 N 
ATOM     20  N   UNL     1      31.107  -8.080 -23.813  0.00  0.00    -0.285 NA
ATOM     21  C   UNL     1      31.558  -8.284 -22.589  0.00  0.00    +0.117 C 
ATOM     22  H   UNL     1      31.780  -6.272 -22.161  0.00  0.00    +0.144 HD
ATOM     23  H   UNL     1      32.220  -7.313 -20.884  0.00  0.00    +0.144 HD
ATOM     24  H   UNL     1      31.010  -7.162 -24.155  0.00  0.00    +0.188 HD
ENDBRANCH   9  21
BRANCH   4  27
ATOM     25  O   UNL     1      31.861 -16.413 -20.256  0.00  0.00    -0.270 OA
ATOM     26  N   UNL     1      33.916 -16.620 -21.369  0.00  0.00    -0.280 N 
ATOM     27  C   UNL     1      32.757 -15.939 -20.972  0.00  0.00    +0.250 C 
ATOM     28  H   UNL     1      34.538 -16.112 -21.938  0.00  0.00    +0.155 HD
BRANCH  26  29
ATOM     29  C   UNL     1      34.310 -17.945 -21.059  0.00  0.00    +0.051 C 
ATOM     30  C   UNL     1      35.080 -20.535 -20.454  0.00  0.00    -0.044 C 
ATOM     31  C   UNL     1      33.338 -18.913 -20.872  0.00  0.00    +0.014 C 
ATOM     32  C   UNL     1      35.658 -18.242 -20.950  0.00  0.00    +0.014 C 
ATOM     33  C   UNL     1      33.726 -20.218 -20.566  0.00  0.00    -0.005 C 
ATOM     34  C   UNL     1      36.045 -19.547 -20.646  0.00  0.00    -0.005 C 
BRANCH  30  35
ATOM     35  C   UNL     1      35.494 -21.930 -20.128  0.00  0.00    -0.059 C 
BRANCH  35  36
ATOM     36  N   UNL     1      34.924 -22.395 -18.889  0.00  0.00    +0.383 N 
ATOM     37  H   UNL     1      35.501 -22.081 -18.109  0.00  0.00    -0.089 HD
ATOM     38  H   UNL     1      34.885 -23.414 -18.895  0.00  0.00    -0.089 HD
ATOM     39  H   UNL     1      33.981 -22.019 -18.787  0.00  0.00    -0.089 HD
ENDBRANCH  35  36
ENDBRANCH  30  35
ENDBRANCH  26  29
ENDBRANCH   4  27
TORSDOF 6
ENDMDL
