MODEL 1
REMARK VINA RESULT:      -7.4      0.000      0.000
REMARK  Name = 5287761
REMARK  3 active torsions:
REMARK  status: ('A' for Active; 'I' for Inactive)
REMARK    1  A    between atoms: C_4  and  S_9
REMARK    2  A    between atoms: C_5  and  C_14
REMARK    3  A    between atoms: C_14  and  O_15
REMARK                            x       y       z     vdW  Elec       q    Type
REMARK                         _______ _______ _______ _____ _____    ______ ____
ROOT
ATOM      1  N   UNK     1      38.115 -24.947 -15.155  0.00  0.00    +0.407 N 
ATOM      2  C   UNK     1      37.024 -24.752 -13.030  0.00  0.00    -0.009 C 
ATOM      3  C   UNK     1      38.514 -25.040 -12.868  0.00  0.00    +0.001 C 
ATOM      4  C   UNK     1      38.869 -25.724 -14.175  0.00  0.00    +0.080 C 
ATOM      5  C   UNK     1      36.838 -24.583 -14.538  0.00  0.00    +0.042 C 
ATOM      6  C   UNK     1      36.583 -23.531 -12.235  0.00  0.00    -0.002 C 
ATOM      7  H   UNK     1      37.951 -25.507 -15.992  0.00  0.00    -0.081 HD
ATOM      8  H   UNK     1      38.632 -24.112 -15.429  0.00  0.00    -0.081 HD
ENDROOT
BRANCH   4   9
ATOM      9  S   UNK     1      40.604 -25.741 -14.466  0.00  0.00    +0.003 S 
ATOM     10  O   UNK     1      40.539 -26.025 -16.070  0.00  0.00    -0.071 OA
ATOM     11  O   UNK     1      41.174 -26.898 -13.807  0.00  0.00    -0.071 OA
ATOM     12  O   UNK     1      41.120 -24.404 -14.247  0.00  0.00    -0.071 OA
ENDBRANCH   4   9
BRANCH   5  14
ATOM     13  O   UNK     1      36.056 -26.515 -15.795  0.00  0.00    -0.253 OA
ATOM     14  C   UNK     1      35.813 -25.578 -15.051  0.00  0.00    +0.294 C 
BRANCH  14  15
ATOM     15  O   UNK     1      34.579 -25.284 -14.573  0.00  0.00    -0.482 OA
ATOM     16  H   UNK     1      33.834 -25.771 -14.868  0.00  0.00    +0.295 HD
ENDBRANCH  14  15
ENDBRANCH   5  14
TORSDOF 3
ENDMDL
MODEL 2
REMARK VINA RESULT:      -7.2      2.766      4.592
REMARK  Name = 5287761
REMARK  3 active torsions:
REMARK  status: ('A' for Active; 'I' for Inactive)
REMARK    1  A    between atoms: C_4  and  S_9
REMARK    2  A    between atoms: C_5  and  C_14
REMARK    3  A    between atoms: C_14  and  O_15
REMARK                            x       y       z     vdW  Elec       q    Type
REMARK                         _______ _______ _______ _____ _____    ______ ____
ROOT
ATOM      1  N   UNK     1      38.266 -24.089 -13.664  0.00  0.00    +0.407 N 
ATOM      2  C   UNK     1      37.698 -26.358 -14.188  0.00  0.00    -0.009 C 
ATOM      3  C   UNK     1      36.835 -25.814 -13.053  0.00  0.00    +0.001 C 
ATOM      4  C   UNK     1      37.698 -24.711 -12.471  0.00  0.00    +0.080 C 
ATOM      5  C   UNK     1      38.533 -25.156 -14.631  0.00  0.00    +0.042 C 
ATOM      6  C   UNK     1      36.864 -26.951 -15.314  0.00  0.00    -0.002 C 
ATOM      7  H   UNK     1      39.133 -23.608 -13.427  0.00  0.00    -0.081 HD
ATOM      8  H   UNK     1      37.620 -23.404 -14.056  0.00  0.00    -0.081 HD
ENDROOT
BRANCH   4   9
ATOM      9  S   UNK     1      36.772 -23.603 -11.465  0.00  0.00    +0.003 S 
ATOM     10  O   UNK     1      35.437 -23.547 -12.399  0.00  0.00    -0.071 OA
ATOM     11  O   UNK     1      37.418 -22.306 -11.489  0.00  0.00    -0.071 OA
ATOM     12  O   UNK     1      36.447 -24.274 -10.222  0.00  0.00    -0.071 OA
ENDBRANCH   4   9
BRANCH   5  14
ATOM     13  O   UNK     1      40.903 -24.653 -14.391  0.00  0.00    -0.253 OA
ATOM     14  C   UNK     1      40.012 -25.479 -14.518  0.00  0.00    +0.294 C 
BRANCH  14  15
ATOM     15  O   UNK     1      40.216 -26.818 -14.579  0.00  0.00    -0.482 OA
ATOM     16  H   UNK     1      39.970 -27.294 -15.348  0.00  0.00    +0.295 HD
ENDBRANCH  14  15
ENDBRANCH   5  14
TORSDOF 3
ENDMDL
MODEL 3
REMARK VINA RESULT:      -7.0      2.221      3.008
REMARK  Name = 5287761
REMARK  3 active torsions:
REMARK  status: ('A' for Active; 'I' for Inactive)
REMARK    1  A    between atoms: C_4  and  S_9
REMARK    2  A    between atoms: C_5  and  C_14
REMARK    3  A    between atoms: C_14  and  O_15
REMARK                            x       y       z     vdW  Elec       q    Type
REMARK                         _______ _______ _______ _____ _____    ______ ____
ROOT
ATOM      1  N   UNK     1      38.064 -25.262 -12.935  0.00  0.00    +0.407 N 
ATOM      2  C   UNK     1      37.117 -23.386 -14.088  0.00  0.00    -0.009 C 
ATOM      3  C   UNK     1      38.130 -24.123 -14.960  0.00  0.00    +0.001 C 
ATOM      4  C   UNK     1      39.021 -24.803 -13.938  0.00  0.00    +0.080 C 
ATOM      5  C   UNK     1      37.023 -24.238 -12.822  0.00  0.00    +0.042 C 
ATOM      6  C   UNK     1      35.776 -23.208 -14.786  0.00  0.00    -0.002 C 
ATOM      7  H   UNK     1      38.531 -25.385 -12.038  0.00  0.00    -0.081 HD
ATOM      8  H   UNK     1      37.658 -26.158 -13.207  0.00  0.00    -0.081 HD
ENDROOT
BRANCH   4   9
ATOM      9  S   UNK     1      39.979 -26.097 -14.649  0.00  0.00    +0.003 S 
ATOM     10  O   UNK     1      38.789 -27.209 -14.733  0.00  0.00    -0.071 OA
ATOM     11  O   UNK     1      40.962 -26.534 -13.678  0.00  0.00    -0.071 OA
ATOM     12  O   UNK     1      40.352 -25.708 -15.994  0.00  0.00    -0.071 OA
ENDBRANCH   4   9
BRANCH   5  14
ATOM     13  O   UNK     1      38.140 -22.453 -11.602  0.00  0.00    -0.253 OA
ATOM     14  C   UNK     1      37.372 -23.402 -11.604  0.00  0.00    +0.294 C 
BRANCH  14  15
ATOM     15  O   UNK     1      36.715 -23.855 -10.508  0.00  0.00    -0.482 OA
ATOM     16  H   UNK     1      36.732 -24.767 -10.295  0.00  0.00    +0.295 HD
ENDBRANCH  14  15
ENDBRANCH   5  14
TORSDOF 3
ENDMDL
MODEL 4
REMARK VINA RESULT:      -6.8      3.066      4.172
REMARK  Name = 5287761
REMARK  3 active torsions:
REMARK  status: ('A' for Active; 'I' for Inactive)
REMARK    1  A    between atoms: C_4  and  S_9
REMARK    2  A    between atoms: C_5  and  C_14
REMARK    3  A    between atoms: C_14  and  O_15
REMARK                            x       y       z     vdW  Elec       q    Type
REMARK                         _______ _______ _______ _____ _____    ______ ____
ROOT
ATOM      1  N   UNK     1      36.521 -26.025 -13.173  0.00  0.00    +0.407 N 
ATOM      2  C   UNK     1      38.568 -25.293 -14.184  0.00  0.00    -0.009 C 
ATOM      3  C   UNK     1      38.140 -24.363 -13.051  0.00  0.00    +0.001 C 
ATOM      4  C   UNK     1      36.641 -24.582 -12.983  0.00  0.00    +0.080 C 
ATOM      5  C   UNK     1      37.542 -26.426 -14.143  0.00  0.00    +0.042 C 
ATOM      6  C   UNK     1      40.000 -25.781 -14.020  0.00  0.00    -0.002 C 
ATOM      7  H   UNK     1      35.593 -26.254 -13.527  0.00  0.00    -0.081 HD
ATOM      8  H   UNK     1      36.654 -26.517 -12.289  0.00  0.00    -0.081 HD
ENDROOT
BRANCH   4   9
ATOM      9  S   UNK     1      35.953 -24.006 -11.468  0.00  0.00    +0.003 S 
ATOM     10  O   UNK     1      35.786 -25.462 -10.754  0.00  0.00    -0.071 OA
ATOM     11  O   UNK     1      34.638 -23.459 -11.735  0.00  0.00    -0.071 OA
ATOM     12  O   UNK     1      36.968 -23.250 -10.761  0.00  0.00    -0.071 OA
ENDBRANCH   4   9
BRANCH   5  14
ATOM     13  O   UNK     1      36.862 -27.525 -16.206  0.00  0.00    -0.253 OA
ATOM     14  C   UNK     1      36.839 -26.541 -15.484  0.00  0.00    +0.294 C 
BRANCH  14  15
ATOM     15  O   UNK     1      36.178 -25.394 -15.778  0.00  0.00    -0.482 OA
ATOM     16  H   UNK     1      35.809 -25.272 -16.631  0.00  0.00    +0.295 HD
ENDBRANCH  14  15
ENDBRANCH   5  14
TORSDOF 3
ENDMDL
MODEL 5
REMARK VINA RESULT:      -6.8      7.476      9.929
REMARK  Name = 5287761
REMARK  3 active torsions:
REMARK  status: ('A' for Active; 'I' for Inactive)
REMARK    1  A    between atoms: C_4  and  S_9
REMARK    2  A    between atoms: C_5  and  C_14
REMARK    3  A    between atoms: C_14  and  O_15
REMARK                            x       y       z     vdW  Elec       q    Type
REMARK                         _______ _______ _______ _____ _____    ______ ____
ROOT
ATOM      1  N   UNK     1      29.886 -23.544 -16.872  0.00  0.00    +0.407 N 
ATOM      2  C   UNK     1      30.907 -22.802 -14.835  0.00  0.00    -0.009 C 
ATOM      3  C   UNK     1      29.430 -22.423 -14.889  0.00  0.00    +0.001 C 
ATOM      4  C   UNK     1      29.146 -22.386 -16.379  0.00  0.00    +0.080 C 
ATOM      5  C   UNK     1      31.126 -23.635 -16.098  0.00  0.00    +0.042 C 
ATOM      6  C   UNK     1      31.264 -23.551 -13.559  0.00  0.00    -0.002 C 
ATOM      7  H   UNK     1      30.101 -23.424 -17.862  0.00  0.00    -0.081 HD
ATOM      8  H   UNK     1      29.335 -24.396 -16.768  0.00  0.00    -0.081 HD
ENDROOT
BRANCH   4   9
ATOM      9  S   UNK     1      27.422 -22.444 -16.728  0.00  0.00    +0.003 S 
ATOM     10  O   UNK     1      27.441 -23.808 -17.622  0.00  0.00    -0.071 OA
ATOM     11  O   UNK     1      27.085 -21.326 -17.585  0.00  0.00    -0.071 OA
ATOM     12  O   UNK     1      26.711 -22.703 -15.492  0.00  0.00    -0.071 OA
ENDBRANCH   4   9
BRANCH   5  14
ATOM     13  O   UNK     1      32.027 -22.422 -18.006  0.00  0.00    -0.253 OA
ATOM     14  C   UNK     1      32.213 -23.010 -16.953  0.00  0.00    +0.294 C 
BRANCH  14  15
ATOM     15  O   UNK     1      33.432 -23.196 -16.388  0.00  0.00    -0.482 OA
ATOM     16  H   UNK     1      33.797 -24.057 -16.334  0.00  0.00    +0.295 HD
ENDBRANCH  14  15
ENDBRANCH   5  14
TORSDOF 3
ENDMDL
MODEL 6
REMARK VINA RESULT:      -6.5      3.137      4.052
REMARK  Name = 5287761
REMARK  3 active torsions:
REMARK  status: ('A' for Active; 'I' for Inactive)
REMARK    1  A    between atoms: C_4  and  S_9
REMARK    2  A    between atoms: C_5  and  C_14
REMARK    3  A    between atoms: C_14  and  O_15
REMARK                            x       y       z     vdW  Elec       q    Type
REMARK                         _______ _______ _______ _____ _____    ______ ____
ROOT
ATOM      1  N   UNK     1      35.263 -24.793 -13.392  0.00  0.00    +0.407 N 
ATOM      2  C   UNK     1      34.796 -23.106 -15.030  0.00  0.00    -0.009 C 
ATOM      3  C   UNK     1      36.183 -22.923 -14.420  0.00  0.00    +0.001 C 
ATOM      4  C   UNK     1      36.052 -23.606 -13.072  0.00  0.00    +0.080 C 
ATOM      5  C   UNK     1      34.285 -24.408 -14.412  0.00  0.00    +0.042 C 
ATOM      6  C   UNK     1      34.834 -23.144 -16.550  0.00  0.00    -0.002 C 
ATOM      7  H   UNK     1      34.784 -25.128 -12.557  0.00  0.00    -0.081 HD
ATOM      8  H   UNK     1      35.864 -25.542 -13.736  0.00  0.00    -0.081 HD
ENDROOT
BRANCH   4   9
ATOM      9  S   UNK     1      37.618 -23.966 -12.354  0.00  0.00    +0.003 S 
ATOM     10  O   UNK     1      37.976 -22.449 -11.875  0.00  0.00    -0.071 OA
ATOM     11  O   UNK     1      38.533 -24.353 -13.409  0.00  0.00    -0.071 OA
ATOM     12  O   UNK     1      37.407 -24.791 -11.182  0.00  0.00    -0.071 OA
ENDBRANCH   4   9
BRANCH   5  14
ATOM     13  O   UNK     1      32.324 -25.016 -13.105  0.00  0.00    -0.253 OA
ATOM     14  C   UNK     1      32.978 -24.161 -13.682  0.00  0.00    +0.294 C 
BRANCH  14  15
ATOM     15  O   UNK     1      32.626 -22.854 -13.758  0.00  0.00    -0.482 OA
ATOM     16  H   UNK     1      32.975 -22.239 -13.142  0.00  0.00    +0.295 HD
ENDBRANCH  14  15
ENDBRANCH   5  14
TORSDOF 3
ENDMDL
MODEL 7
REMARK VINA RESULT:      -6.5      2.912      3.556
REMARK  Name = 5287761
REMARK  3 active torsions:
REMARK  status: ('A' for Active; 'I' for Inactive)
REMARK    1  A    between atoms: C_4  and  S_9
REMARK    2  A    between atoms: C_5  and  C_14
REMARK    3  A    between atoms: C_14  and  O_15
REMARK                            x       y       z     vdW  Elec       q    Type
REMARK                         _______ _______ _______ _____ _____    ______ ____
ROOT
ATOM      1  N   UNK     1      37.187 -23.358 -14.726  0.00  0.00    +0.407 N 
ATOM      2  C   UNK     1      34.990 -23.792 -15.580  0.00  0.00    -0.009 C 
ATOM      3  C   UNK     1      35.585 -25.031 -14.915  0.00  0.00    +0.001 C 
ATOM      4  C   UNK     1      37.078 -24.785 -15.020  0.00  0.00    +0.080 C 
ATOM      5  C   UNK     1      36.026 -22.697 -15.325  0.00  0.00    +0.042 C 
ATOM      6  C   UNK     1      33.613 -23.448 -15.032  0.00  0.00    -0.002 C 
ATOM      7  H   UNK     1      38.047 -22.985 -15.128  0.00  0.00    -0.081 HD
ATOM      8  H   UNK     1      37.212 -23.199 -13.719  0.00  0.00    -0.081 HD
ENDROOT
BRANCH   4   9
ATOM      9  S   UNK     1      37.999 -25.808 -13.924  0.00  0.00    +0.003 S 
ATOM     10  O   UNK     1      39.063 -24.675 -13.432  0.00  0.00    -0.071 OA
ATOM     11  O   UNK     1      38.702 -26.807 -14.702  0.00  0.00    -0.071 OA
ATOM     12  O   UNK     1      37.147 -26.168 -12.807  0.00  0.00    -0.071 OA
ENDBRANCH   4   9
BRANCH   5  14
ATOM     13  O   UNK     1      36.059 -22.409 -17.742  0.00  0.00    -0.253 OA
ATOM     14  C   UNK     1      36.498 -22.108 -16.642  0.00  0.00    +0.294 C 
BRANCH  14  15
ATOM     15  O   UNK     1      37.481 -21.198 -16.436  0.00  0.00    -0.482 OA
ATOM     16  H   UNK     1      37.317 -20.289 -16.590  0.00  0.00    +0.295 HD
ENDBRANCH  14  15
ENDBRANCH   5  14
TORSDOF 3
ENDMDL
MODEL 8
REMARK VINA RESULT:      -6.5      3.691      4.339
REMARK  Name = 5287761
REMARK  3 active torsions:
REMARK  status: ('A' for Active; 'I' for Inactive)
REMARK    1  A    between atoms: C_4  and  S_9
REMARK    2  A    between atoms: C_5  and  C_14
REMARK    3  A    between atoms: C_14  and  O_15
REMARK                            x       y       z     vdW  Elec       q    Type
REMARK                         _______ _______ _______ _____ _____    ______ ____
ROOT
ATOM      1  N   UNK     1      34.861 -24.949 -13.096  0.00  0.00    +0.407 N 
ATOM      2  C   UNK     1      35.052 -23.165 -14.686  0.00  0.00    -0.009 C 
ATOM      3  C   UNK     1      36.151 -23.090 -13.629  0.00  0.00    +0.001 C 
ATOM      4  C   UNK     1      35.536 -23.825 -12.452  0.00  0.00    +0.080 C 
ATOM      5  C   UNK     1      34.310 -24.462 -14.362  0.00  0.00    +0.042 C 
ATOM      6  C   UNK     1      35.611 -23.136 -16.101  0.00  0.00    -0.002 C 
ATOM      7  H   UNK     1      34.111 -25.293 -12.498  0.00  0.00    -0.081 HD
ATOM      8  H   UNK     1      35.514 -25.715 -13.260  0.00  0.00    -0.081 HD
ENDROOT
BRANCH   4   9
ATOM      9  S   UNK     1      36.744 -24.307 -11.266  0.00  0.00    +0.003 S 
ATOM     10  O   UNK     1      36.803 -25.887 -11.667  0.00  0.00    -0.071 OA
ATOM     11  O   UNK     1      36.170 -24.180  -9.942  0.00  0.00    -0.071 OA
ATOM     12  O   UNK     1      38.006 -23.687 -11.617  0.00  0.00    -0.071 OA
ENDBRANCH   4   9
BRANCH   5  14
ATOM     13  O   UNK     1      32.231 -23.209 -14.545  0.00  0.00    -0.253 OA
ATOM     14  C   UNK     1      32.842 -24.173 -14.110  0.00  0.00    +0.294 C 
BRANCH  14  15
ATOM     15  O   UNK     1      32.292 -25.134 -13.327  0.00  0.00    -0.482 OA
ATOM     16  H   UNK     1      32.688 -25.352 -12.506  0.00  0.00    +0.295 HD
ENDBRANCH  14  15
ENDBRANCH   5  14
TORSDOF 3
ENDMDL
MODEL 9
REMARK VINA RESULT:      -6.5      2.231      3.211
REMARK  Name = 5287761
REMARK  3 active torsions:
REMARK  status: ('A' for Active; 'I' for Inactive)
REMARK    1  A    between atoms: C_4  and  S_9
REMARK    2  A    between atoms: C_5  and  C_14
REMARK    3  A    between atoms: C_14  and  O_15
REMARK                            x       y       z     vdW  Elec       q    Type
REMARK                         _______ _______ _______ _____ _____    ______ ____
ROOT
ATOM      1  N   UNK     1      35.942 -25.461 -14.043  0.00  0.00    +0.407 N 
ATOM      2  C   UNK     1      35.292 -23.398 -15.075  0.00  0.00    -0.009 C 
ATOM      3  C   UNK     1      36.750 -23.737 -15.374  0.00  0.00    +0.001 C 
ATOM      4  C   UNK     1      37.133 -24.633 -14.212  0.00  0.00    +0.080 C 
ATOM      5  C   UNK     1      34.777 -24.613 -14.302  0.00  0.00    +0.042 C 
ATOM      6  C   UNK     1      34.494 -23.115 -16.339  0.00  0.00    -0.002 C 
ATOM      7  H   UNK     1      35.904 -25.825 -13.091  0.00  0.00    -0.081 HD
ATOM      8  H   UNK     1      35.960 -26.253 -14.685  0.00  0.00    -0.081 HD
ENDROOT
BRANCH   4   9
ATOM      9  S   UNK     1      38.597 -25.553 -14.537  0.00  0.00    +0.003 S 
ATOM     10  O   UNK     1      38.934 -25.955 -12.993  0.00  0.00    -0.071 OA
ATOM     11  O   UNK     1      39.618 -24.645 -15.019  0.00  0.00    -0.071 OA
ATOM     12  O   UNK     1      38.234 -26.752 -15.266  0.00  0.00    -0.071 OA
ENDBRANCH   4   9
BRANCH   5  14
ATOM     13  O   UNK     1      34.726 -24.508 -11.871  0.00  0.00    -0.253 OA
ATOM     14  C   UNK     1      34.248 -24.182 -12.947  0.00  0.00    +0.294 C 
BRANCH  14  15
ATOM     15  O   UNK     1      33.162 -23.383 -13.088  0.00  0.00    -0.482 OA
ATOM     16  H   UNK     1      32.417 -23.687 -13.569  0.00  0.00    +0.295 HD
ENDBRANCH  14  15
ENDBRANCH   5  14
TORSDOF 3
ENDMDL
