MODEL 1
REMARK VINA RESULT:      -8.3      0.000      0.000
REMARK  Name = 11292191
REMARK  6 active torsions:
REMARK  status: ('A' for Active; 'I' for Inactive)
REMARK    1  A    between atoms: N_1  and  C_24
REMARK    2  A    between atoms: C_5  and  S_16
REMARK    3  A    between atoms: C_6  and  N_12
REMARK    4  A    between atoms: S_16  and  C_18
REMARK    5  A    between atoms: C_24  and  C_26
REMARK    6  A    between atoms: C_26  and  O_27
REMARK                            x       y       z     vdW  Elec       q    Type
REMARK                         _______ _______ _______ _____ _____    ______ ____
ROOT
ATOM      1  N   UNL     1      33.395  -9.173 -22.685  0.00  0.00    -0.320 N 
ATOM      2  C   UNL     1      34.019  -9.710 -23.788  0.00  0.00    +0.062 A 
ATOM      3  C   UNL     1      33.431 -10.953 -24.028  0.00  0.00    +0.036 A 
ATOM      4  C   UNL     1      32.433 -10.031 -22.222  0.00  0.00    +0.044 A 
ATOM      5  C   UNL     1      32.432 -11.142 -23.033  0.00  0.00    +0.044 A 
ATOM      6  C   UNL     1      33.892 -11.723 -25.115  0.00  0.00    +0.052 C 
ATOM      7  C   UNL     1      35.050  -9.196 -24.583  0.00  0.00    +0.017 C 
ATOM      8  C   UNL     1      31.606  -9.701 -21.039  0.00  0.00    +0.051 C 
ATOM      9  C   UNL     1      34.922 -11.221 -25.918  0.00  0.00    +0.015 C 
ATOM     10  C   UNL     1      35.491  -9.977 -25.654  0.00  0.00    +0.003 C 
ENDROOT
BRANCH   6  12
ATOM     11  O   UNL     1      33.662 -13.156 -27.753  0.00  0.00    -0.275 OA
ATOM     12  N   UNL     1      33.356 -12.975 -25.423  0.00  0.00    -0.284 N 
ATOM     13  C   UNL     1      33.273 -13.594 -26.676  0.00  0.00    +0.227 C 
ATOM     14  C   UNL     1      32.621 -14.952 -26.585  0.00  0.00    +0.095 C 
ATOM     15  H   UNL     1      32.990 -13.484 -24.665  0.00  0.00    +0.155 HD
ENDBRANCH   6  12
BRANCH   5  16
ATOM     16  S   UNL     1      31.377 -12.526 -22.845  0.00  0.00    -0.086 S 
BRANCH  16  18
ATOM     17 CL   UNL     1      35.318 -16.930 -20.684  0.00  0.00    -0.082 Cl
ATOM     18  C   UNL     1      32.500 -13.781 -22.229  0.00  0.00    +0.030 C 
ATOM     19  C   UNL     1      32.779 -13.844 -20.869  0.00  0.00    +0.007 C 
ATOM     20  C   UNL     1      33.080 -14.677 -23.118  0.00  0.00    +0.007 C 
ATOM     21  C   UNL     1      33.653 -14.821 -20.390  0.00  0.00    +0.012 C 
ATOM     22  C   UNL     1      33.954 -15.654 -22.639  0.00  0.00    +0.012 C 
ATOM     23  C   UNL     1      34.241 -15.725 -21.275  0.00  0.00    +0.058 C 
ENDBRANCH  16  18
ENDBRANCH   5  16
BRANCH   1  24
ATOM     24  C   UNL     1      33.710  -7.885 -22.101  0.00  0.00    +0.216 C 
BRANCH  24  26
ATOM     25  O   UNL     1      32.811  -6.466 -23.865  0.00  0.00    -0.248 OA
ATOM     26  C   UNL     1      32.881  -6.774 -22.686  0.00  0.00    +0.337 C 
BRANCH  26  27
ATOM     27  O   UNL     1      32.199  -6.138 -21.699  0.00  0.00    -0.479 OA
ATOM     28  H   UNL     1      31.262  -6.117 -21.713  0.00  0.00    +0.295 HD
ENDBRANCH  26  27
ENDBRANCH  24  26
ENDBRANCH   1  24
TORSDOF 6
ENDMDL
MODEL 2
REMARK VINA RESULT:      -8.1     11.486     14.611
REMARK  Name = 11292191
REMARK  6 active torsions:
REMARK  status: ('A' for Active; 'I' for Inactive)
REMARK    1  A    between atoms: N_1  and  C_24
REMARK    2  A    between atoms: C_5  and  S_16
REMARK    3  A    between atoms: C_6  and  N_12
REMARK    4  A    between atoms: S_16  and  C_18
REMARK    5  A    between atoms: C_24  and  C_26
REMARK    6  A    between atoms: C_26  and  O_27
REMARK                            x       y       z     vdW  Elec       q    Type
REMARK                         _______ _______ _______ _____ _____    ______ ____
ROOT
ATOM      1  N   UNL     1      34.271 -22.891 -17.730  0.00  0.00    -0.320 N 
ATOM      2  C   UNL     1      35.376 -22.658 -16.943  0.00  0.00    +0.062 A 
ATOM      3  C   UNL     1      35.051 -23.063 -15.647  0.00  0.00    +0.036 A 
ATOM      4  C   UNL     1      33.260 -23.429 -16.978  0.00  0.00    +0.044 A 
ATOM      5  C   UNL     1      33.714 -23.547 -15.684  0.00  0.00    +0.044 A 
ATOM      6  C   UNL     1      36.020 -22.931 -14.633  0.00  0.00    +0.052 C 
ATOM      7  C   UNL     1      36.627 -22.124 -17.277  0.00  0.00    +0.017 C 
ATOM      8  C   UNL     1      31.952 -23.777 -17.575  0.00  0.00    +0.051 C 
ATOM      9  C   UNL     1      37.274 -22.399 -14.952  0.00  0.00    +0.015 C 
ATOM     10  C   UNL     1      37.571 -22.003 -16.254  0.00  0.00    +0.003 C 
ENDROOT
BRANCH   6  12
ATOM     11  O   UNL     1      36.718 -25.468 -13.170  0.00  0.00    -0.275 OA
ATOM     12  N   UNL     1      35.774 -23.313 -13.312  0.00  0.00    -0.284 N 
ATOM     13  C   UNL     1      36.122 -24.514 -12.682  0.00  0.00    +0.227 C 
ATOM     14  C   UNL     1      35.674 -24.539 -11.241  0.00  0.00    +0.095 C 
ATOM     15  H   UNL     1      35.296 -22.657 -12.756  0.00  0.00    +0.155 HD
ENDBRANCH   6  12
BRANCH   5  16
ATOM     16  S   UNL     1      32.784 -24.183 -14.345  0.00  0.00    -0.086 S 
BRANCH  16  18
ATOM     17 CL   UNL     1      26.921 -22.458 -15.844  0.00  0.00    -0.082 Cl
ATOM     18  C   UNL     1      31.113 -23.691 -14.772  0.00  0.00    +0.030 C 
ATOM     19  C   UNL     1      30.770 -22.345 -14.759  0.00  0.00    +0.007 C 
ATOM     20  C   UNL     1      30.179 -24.661 -15.111  0.00  0.00    +0.007 C 
ATOM     21  C   UNL     1      29.470 -21.962 -15.092  0.00  0.00    +0.012 C 
ATOM     22  C   UNL     1      28.879 -24.279 -15.443  0.00  0.00    +0.012 C 
ATOM     23  C   UNL     1      28.524 -22.929 -15.433  0.00  0.00    +0.058 C 
ENDBRANCH  16  18
ENDBRANCH   5  16
BRANCH   1  24
ATOM     24  C   UNL     1      34.190 -22.607 -19.148  0.00  0.00    +0.216 C 
BRANCH  24  26
ATOM     25  O   UNL     1      32.549 -20.817 -19.339  0.00  0.00    -0.248 OA
ATOM     26  C   UNL     1      33.702 -21.212 -19.425  0.00  0.00    +0.337 C 
BRANCH  26  27
ATOM     27  O   UNL     1      34.743 -20.423 -19.796  0.00  0.00    -0.479 OA
ATOM     28  H   UNL     1      35.622 -20.685 -19.604  0.00  0.00    +0.295 HD
ENDBRANCH  26  27
ENDBRANCH  24  26
ENDBRANCH   1  24
TORSDOF 6
ENDMDL
MODEL 3
REMARK VINA RESULT:      -7.9      3.868      7.811
REMARK  Name = 11292191
REMARK  6 active torsions:
REMARK  status: ('A' for Active; 'I' for Inactive)
REMARK    1  A    between atoms: N_1  and  C_24
REMARK    2  A    between atoms: C_5  and  S_16
REMARK    3  A    between atoms: C_6  and  N_12
REMARK    4  A    between atoms: S_16  and  C_18
REMARK    5  A    between atoms: C_24  and  C_26
REMARK    6  A    between atoms: C_26  and  O_27
REMARK                            x       y       z     vdW  Elec       q    Type
REMARK                         _______ _______ _______ _____ _____    ______ ____
ROOT
ATOM      1  N   UNL     1      33.498 -11.182 -24.325  0.00  0.00    -0.320 N 
ATOM      2  C   UNL     1      32.652 -10.964 -23.261  0.00  0.00    +0.062 A 
ATOM      3  C   UNL     1      32.989  -9.723 -22.715  0.00  0.00    +0.036 A 
ATOM      4  C   UNL     1      34.355 -10.124 -24.472  0.00  0.00    +0.044 A 
ATOM      5  C   UNL     1      34.065  -9.206 -23.489  0.00  0.00    +0.044 A 
ATOM      6  C   UNL     1      32.267  -9.255 -21.600  0.00  0.00    +0.052 C 
ATOM      7  C   UNL     1      31.625 -11.762 -22.744  0.00  0.00    +0.017 C 
ATOM      8  C   UNL     1      35.376 -10.097 -25.543  0.00  0.00    +0.051 C 
ATOM      9  C   UNL     1      31.238 -10.042 -21.073  0.00  0.00    +0.015 C 
ATOM     10  C   UNL     1      30.923 -11.276 -21.638  0.00  0.00    +0.003 C 
ENDROOT
BRANCH   6  12
ATOM     11  O   UNL     1      30.908  -6.585 -21.896  0.00  0.00    -0.275 OA
ATOM     12  N   UNL     1      32.542  -8.026 -20.997  0.00  0.00    -0.284 N 
ATOM     13  C   UNL     1      31.873  -6.808 -21.174  0.00  0.00    +0.227 C 
ATOM     14  C   UNL     1      32.481  -5.710 -20.337  0.00  0.00    +0.095 C 
ATOM     15  H   UNL     1      33.300  -8.013 -20.369  0.00  0.00    +0.155 HD
ENDBRANCH   6  12
BRANCH   5  16
ATOM     16  S   UNL     1      34.892  -7.681 -23.259  0.00  0.00    -0.086 S 
BRANCH  16  18
ATOM     17 CL   UNL     1      32.312  -4.066 -27.716  0.00  0.00    -0.082 Cl
ATOM     18  C   UNL     1      34.157  -6.651 -24.529  0.00  0.00    +0.030 C 
ATOM     19  C   UNL     1      34.925  -6.246 -25.614  0.00  0.00    +0.007 C 
ATOM     20  C   UNL     1      32.827  -6.267 -24.416  0.00  0.00    +0.007 C 
ATOM     21  C   UNL     1      34.353  -5.445 -26.602  0.00  0.00    +0.012 C 
ATOM     22  C   UNL     1      32.255  -5.465 -25.404  0.00  0.00    +0.012 C 
ATOM     23  C   UNL     1      33.018  -5.054 -26.497  0.00  0.00    +0.058 C 
ENDBRANCH  16  18
ENDBRANCH   5  16
BRANCH   1  24
ATOM     24  C   UNL     1      33.481 -12.360 -25.168  0.00  0.00    +0.216 C 
BRANCH  24  26
ATOM     25  O   UNL     1      33.084 -14.691 -24.583  0.00  0.00    -0.248 OA
ATOM     26  C   UNL     1      33.651 -13.629 -24.378  0.00  0.00    +0.337 C 
BRANCH  26  27
ATOM     27  O   UNL     1      34.545 -13.433 -23.375  0.00  0.00    -0.479 OA
ATOM     28  H   UNL     1      35.423 -13.751 -23.460  0.00  0.00    +0.295 HD
ENDBRANCH  26  27
ENDBRANCH  24  26
ENDBRANCH   1  24
TORSDOF 6
ENDMDL
MODEL 4
REMARK VINA RESULT:      -7.8      1.417      2.142
REMARK  Name = 11292191
REMARK  6 active torsions:
REMARK  status: ('A' for Active; 'I' for Inactive)
REMARK    1  A    between atoms: N_1  and  C_24
REMARK    2  A    between atoms: C_5  and  S_16
REMARK    3  A    between atoms: C_6  and  N_12
REMARK    4  A    between atoms: S_16  and  C_18
REMARK    5  A    between atoms: C_24  and  C_26
REMARK    6  A    between atoms: C_26  and  O_27
REMARK                            x       y       z     vdW  Elec       q    Type
REMARK                         _______ _______ _______ _____ _____    ______ ____
ROOT
ATOM      1  N   UNL     1      32.399  -9.075 -21.109  0.00  0.00    -0.320 N 
ATOM      2  C   UNL     1      33.244  -8.880 -22.178  0.00  0.00    +0.062 A 
ATOM      3  C   UNL     1      33.053  -9.951 -23.053  0.00  0.00    +0.036 A 
ATOM      4  C   UNL     1      31.681 -10.229 -21.278  0.00  0.00    +0.044 A 
ATOM      5  C   UNL     1      32.064 -10.793 -22.473  0.00  0.00    +0.044 A 
ATOM      6  C   UNL     1      33.806  -9.996 -24.243  0.00  0.00    +0.052 C 
ATOM      7  C   UNL     1      34.155  -7.848 -22.433  0.00  0.00    +0.017 C 
ATOM      8  C   UNL     1      30.693 -10.681 -20.273  0.00  0.00    +0.051 C 
ATOM      9  C   UNL     1      34.720  -8.971 -24.512  0.00  0.00    +0.015 C 
ATOM     10  C   UNL     1      34.890  -7.915 -23.620  0.00  0.00    +0.003 C 
ENDROOT
BRANCH   6  12
ATOM     11  O   UNL     1      35.543 -10.762 -26.580  0.00  0.00    -0.275 OA
ATOM     12  N   UNL     1      33.673 -11.032 -25.170  0.00  0.00    -0.284 N 
ATOM     13  C   UNL     1      34.515 -11.342 -26.245  0.00  0.00    +0.227 C 
ATOM     14  C   UNL     1      34.021 -12.543 -27.014  0.00  0.00    +0.095 C 
ATOM     15  H   UNL     1      32.889 -11.615 -25.054  0.00  0.00    +0.155 HD
ENDBRANCH   6  12
BRANCH   5  16
ATOM     16  S   UNL     1      31.429 -12.285 -23.132  0.00  0.00    -0.086 S 
BRANCH  16  18
ATOM     17 CL   UNL     1      35.241 -16.601 -20.596  0.00  0.00    -0.082 Cl
ATOM     18  C   UNL     1      32.516 -13.515 -22.409  0.00  0.00    +0.030 C 
ATOM     19  C   UNL     1      33.571 -14.023 -23.157  0.00  0.00    +0.007 C 
ATOM     20  C   UNL     1      32.291 -13.948 -21.109  0.00  0.00    +0.007 C 
ATOM     21  C   UNL     1      34.416 -14.980 -22.595  0.00  0.00    +0.012 C 
ATOM     22  C   UNL     1      33.137 -14.905 -20.546  0.00  0.00    +0.012 C 
ATOM     23  C   UNL     1      34.199 -15.422 -21.290  0.00  0.00    +0.058 C 
ENDBRANCH  16  18
ENDBRANCH   5  16
BRANCH   1  24
ATOM     24  C   UNL     1      32.286  -8.186 -19.970  0.00  0.00    +0.216 C 
BRANCH  24  26
ATOM     25  O   UNL     1      31.257  -6.372 -21.228  0.00  0.00    -0.248 OA
ATOM     26  C   UNL     1      32.047  -6.759 -20.381  0.00  0.00    +0.337 C 
BRANCH  26  27
ATOM     27  O   UNL     1      32.851  -5.931 -19.666  0.00  0.00    -0.479 OA
ATOM     28  H   UNL     1      33.721  -5.750 -19.963  0.00  0.00    +0.295 HD
ENDBRANCH  26  27
ENDBRANCH  24  26
ENDBRANCH   1  24
TORSDOF 6
ENDMDL
MODEL 5
REMARK VINA RESULT:      -7.4      3.336      7.346
REMARK  Name = 11292191
REMARK  6 active torsions:
REMARK  status: ('A' for Active; 'I' for Inactive)
REMARK    1  A    between atoms: N_1  and  C_24
REMARK    2  A    between atoms: C_5  and  S_16
REMARK    3  A    between atoms: C_6  and  N_12
REMARK    4  A    between atoms: S_16  and  C_18
REMARK    5  A    between atoms: C_24  and  C_26
REMARK    6  A    between atoms: C_26  and  O_27
REMARK                            x       y       z     vdW  Elec       q    Type
REMARK                         _______ _______ _______ _____ _____    ______ ____
ROOT
ATOM      1  N   UNL     1      34.380 -15.778 -23.948  0.00  0.00    -0.320 N 
ATOM      2  C   UNL     1      34.029 -15.479 -22.651  0.00  0.00    +0.062 A 
ATOM      3  C   UNL     1      33.133 -14.409 -22.705  0.00  0.00    +0.036 A 
ATOM      4  C   UNL     1      33.738 -14.937 -24.818  0.00  0.00    +0.044 A 
ATOM      5  C   UNL     1      32.959 -14.079 -24.077  0.00  0.00    +0.044 A 
ATOM      6  C   UNL     1      32.613 -13.900 -21.498  0.00  0.00    +0.052 C 
ATOM      7  C   UNL     1      34.432 -16.068 -21.447  0.00  0.00    +0.017 C 
ATOM      8  C   UNL     1      33.936 -15.038 -26.281  0.00  0.00    +0.051 C 
ATOM      9  C   UNL     1      33.007 -14.479 -20.287  0.00  0.00    +0.015 C 
ATOM     10  C   UNL     1      33.903 -15.545 -20.264  0.00  0.00    +0.003 C 
ENDROOT
BRANCH   6  12
ATOM     11  O   UNL     1      32.040 -11.890 -19.331  0.00  0.00    -0.275 OA
ATOM     12  N   UNL     1      31.713 -12.833 -21.466  0.00  0.00    -0.284 N 
ATOM     13  C   UNL     1      31.485 -11.926 -20.424  0.00  0.00    +0.227 C 
ATOM     14  C   UNL     1      30.424 -10.915 -20.785  0.00  0.00    +0.095 C 
ATOM     15  H   UNL     1      31.170 -12.704 -22.276  0.00  0.00    +0.155 HD
ENDBRANCH   6  12
BRANCH   5  16
ATOM     16  S   UNL     1      31.947 -12.813 -24.738  0.00  0.00    -0.086 S 
BRANCH  16  18
ATOM     17 CL   UNL     1      35.287  -7.630 -23.479  0.00  0.00    -0.082 Cl
ATOM     18  C   UNL     1      32.899 -11.336 -24.379  0.00  0.00    +0.030 C 
ATOM     19  C   UNL     1      32.340 -10.333 -23.595  0.00  0.00    +0.007 C 
ATOM     20  C   UNL     1      34.185 -11.208 -24.889  0.00  0.00    +0.007 C 
ATOM     21  C   UNL     1      33.081  -9.184 -23.317  0.00  0.00    +0.012 C 
ATOM     22  C   UNL     1      34.926 -10.059 -24.610  0.00  0.00    +0.012 C 
ATOM     23  C   UNL     1      34.373  -9.047 -23.824  0.00  0.00    +0.058 C 
ENDBRANCH  16  18
ENDBRANCH   5  16
BRANCH   1  24
ATOM     24  C   UNL     1      35.296 -16.832 -24.336  0.00  0.00    +0.216 C 
BRANCH  24  26
ATOM     25  O   UNL     1      34.648 -19.001 -23.435  0.00  0.00    -0.248 OA
ATOM     26  C   UNL     1      34.639 -18.185 -24.344  0.00  0.00    +0.337 C 
BRANCH  26  27
ATOM     27  O   UNL     1      34.015 -18.389 -25.533  0.00  0.00    -0.479 OA
ATOM     28  H   UNL     1      33.907 -19.259 -25.864  0.00  0.00    +0.295 HD
ENDBRANCH  26  27
ENDBRANCH  24  26
ENDBRANCH   1  24
TORSDOF 6
ENDMDL
MODEL 6
REMARK VINA RESULT:      -6.8      4.025      6.550
REMARK  Name = 11292191
REMARK  6 active torsions:
REMARK  status: ('A' for Active; 'I' for Inactive)
REMARK    1  A    between atoms: N_1  and  C_24
REMARK    2  A    between atoms: C_5  and  S_16
REMARK    3  A    between atoms: C_6  and  N_12
REMARK    4  A    between atoms: S_16  and  C_18
REMARK    5  A    between atoms: C_24  and  C_26
REMARK    6  A    between atoms: C_26  and  O_27
REMARK                            x       y       z     vdW  Elec       q    Type
REMARK                         _______ _______ _______ _____ _____    ______ ____
ROOT
ATOM      1  N   UNL     1      32.001  -9.690 -21.323  0.00  0.00    -0.320 N 
ATOM      2  C   UNL     1      32.313 -10.751 -22.142  0.00  0.00    +0.062 A 
ATOM      3  C   UNL     1      33.258 -10.294 -23.064  0.00  0.00    +0.036 A 
ATOM      4  C   UNL     1      32.714  -8.581 -21.693  0.00  0.00    +0.044 A 
ATOM      5  C   UNL     1      33.501  -8.924 -22.768  0.00  0.00    +0.044 A 
ATOM      6  C   UNL     1      33.752 -11.193 -24.030  0.00  0.00    +0.052 C 
ATOM      7  C   UNL     1      31.836 -12.067 -22.138  0.00  0.00    +0.017 C 
ATOM      8  C   UNL     1      32.570  -7.293 -20.977  0.00  0.00    +0.051 C 
ATOM      9  C   UNL     1      33.284 -12.512 -24.037  0.00  0.00    +0.015 C 
ATOM     10  C   UNL     1      32.341 -12.940 -23.106  0.00  0.00    +0.003 C 
ENDROOT
BRANCH   6  12
ATOM     11  O   UNL     1      34.054 -12.010 -26.912  0.00  0.00    -0.275 OA
ATOM     12  N   UNL     1      34.698 -10.815 -24.985  0.00  0.00    -0.284 N 
ATOM     13  C   UNL     1      34.792 -11.231 -26.319  0.00  0.00    +0.227 C 
ATOM     14  C   UNL     1      35.962 -10.588 -27.022  0.00  0.00    +0.095 C 
ATOM     15  H   UNL     1      35.384 -10.178 -24.682  0.00  0.00    +0.155 HD
ENDBRANCH   6  12
BRANCH   5  16
ATOM     16  S   UNL     1      34.594  -7.842 -23.602  0.00  0.00    -0.086 S 
BRANCH  16  18
ATOM     17 CL   UNL     1      30.675  -3.504 -25.930  0.00  0.00    -0.082 Cl
ATOM     18  C   UNL     1      33.477  -6.606 -24.265  0.00  0.00    +0.030 C 
ATOM     19  C   UNL     1      33.821  -5.923 -25.426  0.00  0.00    +0.007 C 
ATOM     20  C   UNL     1      32.280  -6.343 -23.613  0.00  0.00    +0.007 C 
ATOM     21  C   UNL     1      32.952  -4.961 -25.942  0.00  0.00    +0.012 C 
ATOM     22  C   UNL     1      31.411  -5.381 -24.128  0.00  0.00    +0.012 C 
ATOM     23  C   UNL     1      31.747  -4.690 -25.293  0.00  0.00    +0.058 C 
ENDBRANCH  16  18
ENDBRANCH   5  16
BRANCH   1  24
ATOM     24  C   UNL     1      31.054  -9.741 -20.227  0.00  0.00    +0.216 C 
BRANCH  24  26
ATOM     25  O   UNL     1      31.135 -11.206 -18.282  0.00  0.00    -0.248 OA
ATOM     26  C   UNL     1      31.649 -10.351 -18.987  0.00  0.00    +0.337 C 
BRANCH  26  27
ATOM     27  O   UNL     1      32.870  -9.809 -18.745  0.00  0.00    -0.479 OA
ATOM     28  H   UNL     1      33.027  -9.342 -17.948  0.00  0.00    +0.295 HD
ENDBRANCH  26  27
ENDBRANCH  24  26
ENDBRANCH   1  24
TORSDOF 6
ENDMDL
MODEL 7
REMARK VINA RESULT:      -6.7      3.861      6.362
REMARK  Name = 11292191
REMARK  6 active torsions:
REMARK  status: ('A' for Active; 'I' for Inactive)
REMARK    1  A    between atoms: N_1  and  C_24
REMARK    2  A    between atoms: C_5  and  S_16
REMARK    3  A    between atoms: C_6  and  N_12
REMARK    4  A    between atoms: S_16  and  C_18
REMARK    5  A    between atoms: C_24  and  C_26
REMARK    6  A    between atoms: C_26  and  O_27
REMARK                            x       y       z     vdW  Elec       q    Type
REMARK                         _______ _______ _______ _____ _____    ______ ____
ROOT
ATOM      1  N   UNL     1      33.225  -5.231 -25.847  0.00  0.00    -0.320 N 
ATOM      2  C   UNL     1      32.308  -5.144 -24.825  0.00  0.00    +0.062 A 
ATOM      3  C   UNL     1      32.740  -6.002 -23.811  0.00  0.00    +0.036 A 
ATOM      4  C   UNL     1      34.221  -6.110 -25.515  0.00  0.00    +0.044 A 
ATOM      5  C   UNL     1      33.948  -6.603 -24.260  0.00  0.00    +0.044 A 
ATOM      6  C   UNL     1      31.970  -6.103 -22.635  0.00  0.00    +0.052 C 
ATOM      7  C   UNL     1      31.139  -4.381 -24.722  0.00  0.00    +0.017 C 
ATOM      8  C   UNL     1      35.343  -6.395 -26.438  0.00  0.00    +0.051 C 
ATOM      9  C   UNL     1      30.800  -5.346 -22.518  0.00  0.00    +0.015 C 
ATOM     10  C   UNL     1      30.392  -4.499 -23.546  0.00  0.00    +0.003 C 
ENDROOT
BRANCH   6  12
ATOM     11  O   UNL     1      31.166  -8.936 -22.007  0.00  0.00    -0.275 OA
ATOM     12  N   UNL     1      32.335  -6.936 -21.575  0.00  0.00    -0.284 N 
ATOM     13  C   UNL     1      31.926  -8.252 -21.330  0.00  0.00    +0.227 C 
ATOM     14  C   UNL     1      32.549  -8.806 -20.073  0.00  0.00    +0.095 C 
ATOM     15  H   UNL     1      32.957  -6.548 -20.917  0.00  0.00    +0.155 HD
ENDBRANCH   6  12
BRANCH   5  16
ATOM     16  S   UNL     1      34.933  -7.766 -23.398  0.00  0.00    -0.086 S 
BRANCH  16  18
ATOM     17 CL   UNL     1      33.579 -13.140 -26.378  0.00  0.00    -0.082 Cl
ATOM     18  C   UNL     1      34.547  -9.298 -24.248  0.00  0.00    +0.030 C 
ATOM     19  C   UNL     1      33.469 -10.065 -23.822  0.00  0.00    +0.007 C 
ATOM     20  C   UNL     1      35.329  -9.702 -25.321  0.00  0.00    +0.007 C 
ATOM     21  C   UNL     1      33.169 -11.257 -24.483  0.00  0.00    +0.012 C 
ATOM     22  C   UNL     1      35.029 -10.894 -25.982  0.00  0.00    +0.012 C 
ATOM     23  C   UNL     1      33.949 -11.671 -25.562  0.00  0.00    +0.058 C 
ENDBRANCH  16  18
ENDBRANCH   5  16
BRANCH   1  24
ATOM     24  C   UNL     1      33.147  -4.497 -27.094  0.00  0.00    +0.216 C 
BRANCH  24  26
ATOM     25  O   UNL     1      33.164  -2.126 -26.534  0.00  0.00    -0.248 OA
ATOM     26  C   UNL     1      33.728  -3.114 -26.979  0.00  0.00    +0.337 C 
BRANCH  26  27
ATOM     27  O   UNL     1      35.000  -3.106 -27.452  0.00  0.00    -0.479 OA
ATOM     28  H   UNL     1      35.479  -3.909 -27.525  0.00  0.00    +0.295 HD
ENDBRANCH  26  27
ENDBRANCH  24  26
ENDBRANCH   1  24
TORSDOF 6
ENDMDL
MODEL 8
REMARK VINA RESULT:      -6.6      2.099      5.334
REMARK  Name = 11292191
REMARK  6 active torsions:
REMARK  status: ('A' for Active; 'I' for Inactive)
REMARK    1  A    between atoms: N_1  and  C_24
REMARK    2  A    between atoms: C_5  and  S_16
REMARK    3  A    between atoms: C_6  and  N_12
REMARK    4  A    between atoms: S_16  and  C_18
REMARK    5  A    between atoms: C_24  and  C_26
REMARK    6  A    between atoms: C_26  and  O_27
REMARK                            x       y       z     vdW  Elec       q    Type
REMARK                         _______ _______ _______ _____ _____    ______ ____
ROOT
ATOM      1  N   UNL     1      33.600 -13.036 -24.497  0.00  0.00    -0.320 N 
ATOM      2  C   UNL     1      33.234 -11.811 -23.987  0.00  0.00    +0.062 A 
ATOM      3  C   UNL     1      32.678 -12.040 -22.727  0.00  0.00    +0.036 A 
ATOM      4  C   UNL     1      33.296 -14.030 -23.605  0.00  0.00    +0.044 A 
ATOM      5  C   UNL     1      32.725 -13.443 -22.499  0.00  0.00    +0.044 A 
ATOM      6  C   UNL     1      32.217 -10.938 -21.980  0.00  0.00    +0.052 C 
ATOM      7  C   UNL     1      33.350 -10.531 -24.541  0.00  0.00    +0.017 C 
ATOM      8  C   UNL     1      33.584 -15.451 -23.900  0.00  0.00    +0.051 C 
ATOM      9  C   UNL     1      32.327  -9.652 -22.520  0.00  0.00    +0.015 C 
ATOM     10  C   UNL     1      32.886  -9.454 -23.781  0.00  0.00    +0.003 C 
ENDROOT
BRANCH   6  12
ATOM     11  O   UNL     1      32.572  -9.295 -19.482  0.00  0.00    -0.275 OA
ATOM     12  N   UNL     1      31.650 -11.082 -20.712  0.00  0.00    -0.284 N 
ATOM     13  C   UNL     1      31.853 -10.285 -19.579  0.00  0.00    +0.227 C 
ATOM     14  C   UNL     1      31.052 -10.776 -18.398  0.00  0.00    +0.095 C 
ATOM     15  H   UNL     1      31.031 -11.839 -20.600  0.00  0.00    +0.155 HD
ENDBRANCH   6  12
BRANCH   5  16
ATOM     16  S   UNL     1      32.163 -14.301 -21.081  0.00  0.00    -0.086 S 
BRANCH  16  18
ATOM     17 CL   UNL     1      35.890 -19.371 -21.014  0.00  0.00    -0.082 Cl
ATOM     18  C   UNL     1      33.226 -15.746 -21.062  0.00  0.00    +0.030 C 
ATOM     19  C   UNL     1      32.666 -17.010 -21.201  0.00  0.00    +0.007 C 
ATOM     20  C   UNL     1      34.597 -15.587 -20.908  0.00  0.00    +0.007 C 
ATOM     21  C   UNL     1      33.493 -18.134 -21.186  0.00  0.00    +0.012 C 
ATOM     22  C   UNL     1      35.423 -16.711 -20.893  0.00  0.00    +0.012 C 
ATOM     23  C   UNL     1      34.871 -17.985 -21.032  0.00  0.00    +0.058 C 
ENDBRANCH  16  18
ENDBRANCH   5  16
BRANCH   1  24
ATOM     24  C   UNL     1      34.217 -13.243 -25.792  0.00  0.00    +0.216 C 
BRANCH  24  26
ATOM     25  O   UNL     1      32.410 -12.919 -27.393  0.00  0.00    -0.248 OA
ATOM     26  C   UNL     1      33.219 -13.649 -26.842  0.00  0.00    +0.337 C 
BRANCH  26  27
ATOM     27  O   UNL     1      33.338 -14.976 -27.104  0.00  0.00    -0.479 OA
ATOM     28  H   UNL     1      33.874 -15.268 -27.815  0.00  0.00    +0.295 HD
ENDBRANCH  26  27
ENDBRANCH  24  26
ENDBRANCH   1  24
TORSDOF 6
ENDMDL
MODEL 9
REMARK VINA RESULT:      -6.6     10.544     14.149
REMARK  Name = 11292191
REMARK  6 active torsions:
REMARK  status: ('A' for Active; 'I' for Inactive)
REMARK    1  A    between atoms: N_1  and  C_24
REMARK    2  A    between atoms: C_5  and  S_16
REMARK    3  A    between atoms: C_6  and  N_12
REMARK    4  A    between atoms: S_16  and  C_18
REMARK    5  A    between atoms: C_24  and  C_26
REMARK    6  A    between atoms: C_26  and  O_27
REMARK                            x       y       z     vdW  Elec       q    Type
REMARK                         _______ _______ _______ _____ _____    ______ ____
ROOT
ATOM      1  N   UNL     1      35.835 -22.716 -15.801  0.00  0.00    -0.320 N 
ATOM      2  C   UNL     1      34.754 -23.092 -15.036  0.00  0.00    +0.062 A 
ATOM      3  C   UNL     1      33.674 -23.260 -15.907  0.00  0.00    +0.036 A 
ATOM      4  C   UNL     1      35.478 -22.641 -17.121  0.00  0.00    +0.044 A 
ATOM      5  C   UNL     1      34.147 -22.973 -17.217  0.00  0.00    +0.044 A 
ATOM      6  C   UNL     1      32.429 -23.649 -15.374  0.00  0.00    +0.052 C 
ATOM      7  C   UNL     1      34.649 -23.293 -13.655  0.00  0.00    +0.017 C 
ATOM      8  C   UNL     1      36.453 -22.256 -18.166  0.00  0.00    +0.051 C 
ATOM      9  C   UNL     1      32.310 -23.854 -13.995  0.00  0.00    +0.015 C 
ATOM     10  C   UNL     1      33.404 -23.679 -13.151  0.00  0.00    +0.003 C 
ENDROOT
BRANCH   6  12
ATOM     11  O   UNL     1      29.624 -22.592 -15.088  0.00  0.00    -0.275 OA
ATOM     12  N   UNL     1      31.302 -23.839 -16.176  0.00  0.00    -0.284 N 
ATOM     13  C   UNL     1      30.014 -23.322 -15.993  0.00  0.00    +0.227 C 
ATOM     14  C   UNL     1      29.073 -23.764 -17.087  0.00  0.00    +0.095 C 
ATOM     15  H   UNL     1      31.429 -24.408 -16.969  0.00  0.00    +0.155 HD
ENDBRANCH   6  12
BRANCH   5  16
ATOM     16  S   UNL     1      33.225 -23.020 -18.705  0.00  0.00    -0.086 S 
BRANCH  16  18
ATOM     17 CL   UNL     1      35.176 -17.818 -21.657  0.00  0.00    -0.082 Cl
ATOM     18  C   UNL     1      33.781 -21.537 -19.546  0.00  0.00    +0.030 C 
ATOM     19  C   UNL     1      35.120 -21.409 -19.896  0.00  0.00    +0.007 C 
ATOM     20  C   UNL     1      32.868 -20.533 -19.840  0.00  0.00    +0.007 C 
ATOM     21  C   UNL     1      35.552 -20.255 -20.550  0.00  0.00    +0.012 C 
ATOM     22  C   UNL     1      33.301 -19.379 -20.495  0.00  0.00    +0.012 C 
ATOM     23  C   UNL     1      34.643 -19.240 -20.849  0.00  0.00    +0.058 C 
ENDBRANCH  16  18
ENDBRANCH   5  16
BRANCH   1  24
ATOM     24  C   UNL     1      37.159 -22.439 -15.282  0.00  0.00    +0.216 C 
BRANCH  24  26
ATOM     25  O   UNL     1      37.759 -24.594 -14.317  0.00  0.00    -0.248 OA
ATOM     26  C   UNL     1      37.977 -23.690 -15.108  0.00  0.00    +0.337 C 
BRANCH  26  27
ATOM     27  O   UNL     1      39.024 -23.681 -15.973  0.00  0.00    -0.479 OA
ATOM     28  H   UNL     1      39.779 -24.210 -15.801  0.00  0.00    +0.295 HD
ENDBRANCH  26  27
ENDBRANCH  24  26
ENDBRANCH   1  24
TORSDOF 6
ENDMDL
