MODEL 1
REMARK VINA RESULT:     -10.7      0.000      0.000
REMARK  Name = 11669698
REMARK  16 active torsions:
REMARK  status: ('A' for Active; 'I' for Inactive)
REMARK    1  A    between atoms: C_1  and  O_2
REMARK    2  A    between atoms: C_1  and  C_15
REMARK    3  A    between atoms: C_1  and  C_33
REMARK    4  A    between atoms: O_2  and  C_4
REMARK    5  A    between atoms: C_4  and  C_5
REMARK    6  A    between atoms: C_6  and  C_7
REMARK    7  A    between atoms: C_12  and  O_13
REMARK    8  A    between atoms: C_15  and  C_17
REMARK    9  A    between atoms: C_15  and  O_20
REMARK   10  A    between atoms: C_17  and  O_18
REMARK   11  A    between atoms: O_20  and  C_22
REMARK   12  A    between atoms: C_22  and  C_23
REMARK   13  A    between atoms: C_24  and  C_25
REMARK   14  A    between atoms: C_30  and  O_31
REMARK   15  A    between atoms: C_33  and  C_35
REMARK   16  A    between atoms: C_35  and  O_36
REMARK                            x       y       z     vdW  Elec       q    Type
REMARK                         _______ _______ _______ _____ _____    ______ ____
ROOT
ATOM      1  C   UNL     1      36.724 -25.029 -13.023  0.00  0.00    +0.231 C 
ENDROOT
BRANCH   1   2
ATOM      2  O   UNL     1      35.557 -24.737 -13.797  0.00  0.00    -0.444 OA
BRANCH   2   4
ATOM      3  O   UNL     1      34.467 -23.855 -11.961  0.00  0.00    -0.245 OA
ATOM      4  C   UNL     1      34.472 -24.326 -13.088  0.00  0.00    +0.341 C 
BRANCH   4   5
ATOM      5  C   UNL     1      33.274 -24.551 -13.928  0.00  0.00    +0.082 C 
ATOM      6  C   UNL     1      32.361 -23.577 -14.052  0.00  0.00    +0.007 C 
BRANCH   6   7
ATOM      7  C   UNL     1      31.136 -23.677 -14.866  0.00  0.00    +0.000 C 
ATOM      8  C   UNL     1      30.188 -24.638 -14.550  0.00  0.00    +0.003 C 
ATOM      9  C   UNL     1      30.957 -22.809 -15.931  0.00  0.00    +0.003 C 
ATOM     10  C   UNL     1      29.030 -24.731 -15.321  0.00  0.00    +0.037 C 
ATOM     11  C   UNL     1      29.799 -22.903 -16.701  0.00  0.00    +0.037 C 
ATOM     12  C   UNL     1      28.834 -23.864 -16.397  0.00  0.00    +0.134 C 
BRANCH  12  13
ATOM     13  O   UNL     1      27.704 -23.957 -17.149  0.00  0.00    -0.506 OA
ATOM     14  H   UNL     1      27.748 -23.835 -18.078  0.00  0.00    +0.292 HD
ENDBRANCH  12  13
ENDBRANCH   6   7
ENDBRANCH   4   5
ENDBRANCH   2   4
ENDBRANCH   1   2
BRANCH   1  15
ATOM     15  C   UNL     1      37.777 -23.933 -13.241  0.00  0.00    +0.306 C 
BRANCH  15  17
ATOM     16  O   UNL     1      39.367 -23.165 -11.570  0.00  0.00    -0.246 OA
ATOM     17  C   UNL     1      38.209 -23.241 -11.963  0.00  0.00    +0.358 C 
BRANCH  17  18
ATOM     18  O   UNL     1      37.166 -22.691 -11.293  0.00  0.00    -0.478 OA
ATOM     19  H   UNL     1      36.299 -23.024 -11.419  0.00  0.00    +0.295 HD
ENDBRANCH  17  18
ENDBRANCH  15  17
BRANCH  15  20
ATOM     20  O   UNL     1      37.186 -22.930 -14.067  0.00  0.00    -0.434 OA
BRANCH  20  22
ATOM     21  O   UNL     1      38.639 -23.319 -15.820  0.00  0.00    -0.245 OA
ATOM     22  C   UNL     1      37.566 -22.946 -15.375  0.00  0.00    +0.342 C 
BRANCH  22  23
ATOM     23  C   UNL     1      36.437 -22.422 -16.178  0.00  0.00    +0.082 C 
ATOM     24  C   UNL     1      36.554 -22.349 -17.512  0.00  0.00    +0.007 C 
BRANCH  24  25
ATOM     25  C   UNL     1      35.502 -21.858 -18.419  0.00  0.00    +0.000 C 
ATOM     26  C   UNL     1      34.199 -22.296 -18.246  0.00  0.00    +0.003 C 
ATOM     27  C   UNL     1      35.835 -20.969 -19.426  0.00  0.00    +0.003 C 
ATOM     28  C   UNL     1      33.202 -21.832 -19.105  0.00  0.00    +0.037 C 
ATOM     29  C   UNL     1      34.839 -20.504 -20.286  0.00  0.00    +0.037 C 
ATOM     30  C   UNL     1      33.523 -20.936 -20.124  0.00  0.00    +0.134 C 
BRANCH  30  31
ATOM     31  O   UNL     1      32.551 -20.483 -20.962  0.00  0.00    -0.506 OA
ATOM     32  H   UNL     1      31.650 -20.662 -20.776  0.00  0.00    +0.292 HD
ENDBRANCH  30  31
ENDBRANCH  24  25
ENDBRANCH  22  23
ENDBRANCH  20  22
ENDBRANCH  15  20
ENDBRANCH   1  15
BRANCH   1  33
ATOM     33  C   UNL     1      37.173 -26.445 -13.385  0.00  0.00    +0.157 C 
BRANCH  33  35
ATOM     34  O   UNL     1      39.242 -26.702 -14.641  0.00  0.00    -0.250 OA
ATOM     35  C   UNL     1      38.035 -26.503 -14.625  0.00  0.00    +0.318 C 
BRANCH  35  36
ATOM     36  O   UNL     1      37.298 -26.337 -15.755  0.00  0.00    -0.480 OA
ATOM     37  H   UNL     1      37.130 -25.476 -16.082  0.00  0.00    +0.295 HD
ENDBRANCH  35  36
ENDBRANCH  33  35
ENDBRANCH   1  33
TORSDOF 16
ENDMDL
MODEL 2
REMARK VINA RESULT:     -10.4      1.384      5.301
REMARK  Name = 11669698
REMARK  16 active torsions:
REMARK  status: ('A' for Active; 'I' for Inactive)
REMARK    1  A    between atoms: C_1  and  O_2
REMARK    2  A    between atoms: C_1  and  C_15
REMARK    3  A    between atoms: C_1  and  C_33
REMARK    4  A    between atoms: O_2  and  C_4
REMARK    5  A    between atoms: C_4  and  C_5
REMARK    6  A    between atoms: C_6  and  C_7
REMARK    7  A    between atoms: C_12  and  O_13
REMARK    8  A    between atoms: C_15  and  C_17
REMARK    9  A    between atoms: C_15  and  O_20
REMARK   10  A    between atoms: C_17  and  O_18
REMARK   11  A    between atoms: O_20  and  C_22
REMARK   12  A    between atoms: C_22  and  C_23
REMARK   13  A    between atoms: C_24  and  C_25
REMARK   14  A    between atoms: C_30  and  O_31
REMARK   15  A    between atoms: C_33  and  C_35
REMARK   16  A    between atoms: C_35  and  O_36
REMARK                            x       y       z     vdW  Elec       q    Type
REMARK                         _______ _______ _______ _____ _____    ______ ____
ROOT
ATOM      1  C   UNL     1      37.572 -24.254 -14.725  0.00  0.00    +0.231 C 
ENDROOT
BRANCH   1   2
ATOM      2  O   UNL     1      37.169 -23.170 -15.566  0.00  0.00    -0.444 OA
BRANCH   2   4
ATOM      3  O   UNL     1      35.263 -24.317 -16.190  0.00  0.00    -0.245 OA
ATOM      4  C   UNL     1      36.046 -23.386 -16.302  0.00  0.00    +0.341 C 
BRANCH   4   5
ATOM      5  C   UNL     1      35.931 -22.282 -17.281  0.00  0.00    +0.082 C 
ATOM      6  C   UNL     1      35.079 -22.396 -18.310  0.00  0.00    +0.007 C 
BRANCH   6   7
ATOM      7  C   UNL     1      34.868 -21.364 -19.341  0.00  0.00    +0.000 C 
ATOM      8  C   UNL     1      33.575 -21.026 -19.707  0.00  0.00    +0.003 C 
ATOM      9  C   UNL     1      35.967 -20.755 -19.924  0.00  0.00    +0.003 C 
ATOM     10  C   UNL     1      33.377 -20.050 -20.683  0.00  0.00    +0.037 C 
ATOM     11  C   UNL     1      35.767 -19.778 -20.900  0.00  0.00    +0.037 C 
ATOM     12  C   UNL     1      34.472 -19.425 -21.280  0.00  0.00    +0.134 C 
BRANCH  12  13
ATOM     13  O   UNL     1      34.277 -18.473 -22.233  0.00  0.00    -0.506 OA
ATOM     14  H   UNL     1      34.729 -18.532 -23.052  0.00  0.00    +0.292 HD
ENDBRANCH  12  13
ENDBRANCH   6   7
ENDBRANCH   4   5
ENDBRANCH   2   4
ENDBRANCH   1   2
BRANCH   1  15
ATOM     15  C   UNL     1      37.072 -24.012 -13.294  0.00  0.00    +0.306 C 
BRANCH  15  17
ATOM     16  O   UNL     1      38.795 -23.382 -11.698  0.00  0.00    -0.246 OA
ATOM     17  C   UNL     1      38.124 -24.258 -12.230  0.00  0.00    +0.358 C 
BRANCH  17  18
ATOM     18  O   UNL     1      38.239 -25.571 -11.909  0.00  0.00    -0.478 OA
ATOM     19  H   UNL     1      39.083 -25.980 -11.901  0.00  0.00    +0.295 HD
ENDBRANCH  17  18
ENDBRANCH  15  17
BRANCH  15  20
ATOM     20  O   UNL     1      36.018 -24.941 -13.046  0.00  0.00    -0.434 OA
BRANCH  20  22
ATOM     21  O   UNL     1      34.918 -24.611 -11.041  0.00  0.00    -0.245 OA
ATOM     22  C   UNL     1      35.008 -24.488 -12.251  0.00  0.00    +0.342 C 
BRANCH  22  23
ATOM     23  C   UNL     1      34.020 -23.809 -13.122  0.00  0.00    +0.082 C 
ATOM     24  C   UNL     1      33.050 -24.529 -13.705  0.00  0.00    +0.007 C 
BRANCH  24  25
ATOM     25  C   UNL     1      32.005 -23.971 -14.581  0.00  0.00    +0.000 C 
ATOM     26  C   UNL     1      32.369 -23.392 -15.786  0.00  0.00    +0.003 C 
ATOM     27  C   UNL     1      30.680 -24.035 -14.183  0.00  0.00    +0.003 C 
ATOM     28  C   UNL     1      31.380 -22.862 -16.615  0.00  0.00    +0.037 C 
ATOM     29  C   UNL     1      29.691 -23.505 -15.012  0.00  0.00    +0.037 C 
ATOM     30  C   UNL     1      30.041 -22.919 -16.228  0.00  0.00    +0.134 C 
BRANCH  30  31
ATOM     31  O   UNL     1      29.077 -22.402 -17.037  0.00  0.00    -0.506 OA
ATOM     32  H   UNL     1      28.205 -22.288 -16.713  0.00  0.00    +0.292 HD
ENDBRANCH  30  31
ENDBRANCH  24  25
ENDBRANCH  22  23
ENDBRANCH  20  22
ENDBRANCH  15  20
ENDBRANCH   1  15
BRANCH   1  33
ATOM     33  C   UNL     1      39.087 -24.409 -14.867  0.00  0.00    +0.157 C 
BRANCH  33  35
ATOM     34  O   UNL     1      39.040 -26.818 -14.528  0.00  0.00    -0.250 OA
ATOM     35  C   UNL     1      39.528 -25.839 -15.074  0.00  0.00    +0.318 C 
BRANCH  35  36
ATOM     36  O   UNL     1      40.536 -25.924 -15.983  0.00  0.00    -0.480 OA
ATOM     37  H   UNL     1      40.604 -26.676 -16.537  0.00  0.00    +0.295 HD
ENDBRANCH  35  36
ENDBRANCH  33  35
ENDBRANCH   1  33
TORSDOF 16
ENDMDL
MODEL 3
REMARK VINA RESULT:     -10.3      0.747      5.636
REMARK  Name = 11669698
REMARK  16 active torsions:
REMARK  status: ('A' for Active; 'I' for Inactive)
REMARK    1  A    between atoms: C_1  and  O_2
REMARK    2  A    between atoms: C_1  and  C_15
REMARK    3  A    between atoms: C_1  and  C_33
REMARK    4  A    between atoms: O_2  and  C_4
REMARK    5  A    between atoms: C_4  and  C_5
REMARK    6  A    between atoms: C_6  and  C_7
REMARK    7  A    between atoms: C_12  and  O_13
REMARK    8  A    between atoms: C_15  and  C_17
REMARK    9  A    between atoms: C_15  and  O_20
REMARK   10  A    between atoms: C_17  and  O_18
REMARK   11  A    between atoms: O_20  and  C_22
REMARK   12  A    between atoms: C_22  and  C_23
REMARK   13  A    between atoms: C_24  and  C_25
REMARK   14  A    between atoms: C_30  and  O_31
REMARK   15  A    between atoms: C_33  and  C_35
REMARK   16  A    between atoms: C_35  and  O_36
REMARK                            x       y       z     vdW  Elec       q    Type
REMARK                         _______ _______ _______ _____ _____    ______ ____
ROOT
ATOM      1  C   UNL     1      37.823 -24.431 -13.815  0.00  0.00    +0.231 C 
ENDROOT
BRANCH   1   2
ATOM      2  O   UNL     1      37.435 -23.149 -14.319  0.00  0.00    -0.444 OA
BRANCH   2   4
ATOM      3  O   UNL     1      38.957 -23.034 -16.055  0.00  0.00    -0.245 OA
ATOM      4  C   UNL     1      37.839 -22.873 -15.588  0.00  0.00    +0.341 C 
BRANCH   4   5
ATOM      5  C   UNL     1      36.673 -22.332 -16.323  0.00  0.00    +0.082 C 
ATOM      6  C   UNL     1      36.667 -22.355 -17.663  0.00  0.00    +0.007 C 
BRANCH   6   7
ATOM      7  C   UNL     1      35.564 -21.858 -18.504  0.00  0.00    +0.000 C 
ATOM      8  C   UNL     1      35.837 -20.950 -19.514  0.00  0.00    +0.003 C 
ATOM      9  C   UNL     1      34.275 -22.307 -18.266  0.00  0.00    +0.003 C 
ATOM     10  C   UNL     1      34.792 -20.480 -20.310  0.00  0.00    +0.037 C 
ATOM     11  C   UNL     1      33.231 -21.837 -19.062  0.00  0.00    +0.037 C 
ATOM     12  C   UNL     1      33.488 -20.923 -20.084  0.00  0.00    +0.134 C 
BRANCH  12  13
ATOM     13  O   UNL     1      32.469 -20.464 -20.860  0.00  0.00    -0.506 OA
ATOM     14  H   UNL     1      31.841 -21.064 -21.212  0.00  0.00    +0.292 HD
ENDBRANCH  12  13
ENDBRANCH   6   7
ENDBRANCH   4   5
ENDBRANCH   2   4
ENDBRANCH   1   2
BRANCH   1  15
ATOM     15  C   UNL     1      36.635 -25.400 -13.898  0.00  0.00    +0.306 C 
BRANCH  15  17
ATOM     16  O   UNL     1      36.101 -26.833 -15.789  0.00  0.00    -0.246 OA
ATOM     17  C   UNL     1      36.853 -26.548 -14.865  0.00  0.00    +0.358 C 
BRANCH  17  18
ATOM     18  O   UNL     1      37.995 -27.233 -14.608  0.00  0.00    -0.478 OA
ATOM     19  H   UNL     1      38.604 -26.908 -13.974  0.00  0.00    +0.295 HD
ENDBRANCH  17  18
ENDBRANCH  15  17
BRANCH  15  20
ATOM     20  O   UNL     1      35.515 -24.664 -14.387  0.00  0.00    -0.434 OA
BRANCH  20  22
ATOM     21  O   UNL     1      34.557 -24.647 -12.284  0.00  0.00    -0.245 OA
ATOM     22  C   UNL     1      34.513 -24.453 -13.488  0.00  0.00    +0.342 C 
BRANCH  22  23
ATOM     23  C   UNL     1      33.339 -23.942 -14.234  0.00  0.00    +0.082 C 
ATOM     24  C   UNL     1      32.212 -24.669 -14.270  0.00  0.00    +0.007 C 
BRANCH  24  25
ATOM     25  C   UNL     1      30.979 -24.265 -14.966  0.00  0.00    +0.000 C 
ATOM     26  C   UNL     1      31.010 -23.181 -15.829  0.00  0.00    +0.003 C 
ATOM     27  C   UNL     1      29.812 -24.977 -14.746  0.00  0.00    +0.003 C 
ATOM     28  C   UNL     1      29.842 -22.799 -16.488  0.00  0.00    +0.037 C 
ATOM     29  C   UNL     1      28.643 -24.595 -15.404  0.00  0.00    +0.037 C 
ATOM     30  C   UNL     1      28.658 -23.506 -16.276  0.00  0.00    +0.134 C 
BRANCH  30  31
ATOM     31  O   UNL     1      27.518 -23.132 -16.918  0.00  0.00    -0.506 OA
ATOM     32  H   UNL     1      27.047 -23.754 -17.437  0.00  0.00    +0.292 HD
ENDBRANCH  30  31
ENDBRANCH  24  25
ENDBRANCH  22  23
ENDBRANCH  20  22
ENDBRANCH  15  20
ENDBRANCH   1  15
BRANCH   1  33
ATOM     33  C   UNL     1      38.394 -24.220 -12.413  0.00  0.00    +0.157 C 
BRANCH  33  35
ATOM     34  O   UNL     1      36.857 -23.350 -10.738  0.00  0.00    -0.250 OA
ATOM     35  C   UNL     1      37.675 -23.149 -11.626  0.00  0.00    +0.318 C 
BRANCH  35  36
ATOM     36  O   UNL     1      38.070 -21.903 -12.000  0.00  0.00    -0.480 OA
ATOM     37  H   UNL     1      38.958 -21.635 -11.871  0.00  0.00    +0.295 HD
ENDBRANCH  35  36
ENDBRANCH  33  35
ENDBRANCH   1  33
TORSDOF 16
ENDMDL
MODEL 4
REMARK VINA RESULT:     -10.1      1.472      2.869
REMARK  Name = 11669698
REMARK  16 active torsions:
REMARK  status: ('A' for Active; 'I' for Inactive)
REMARK    1  A    between atoms: C_1  and  O_2
REMARK    2  A    between atoms: C_1  and  C_15
REMARK    3  A    between atoms: C_1  and  C_33
REMARK    4  A    between atoms: O_2  and  C_4
REMARK    5  A    between atoms: C_4  and  C_5
REMARK    6  A    between atoms: C_6  and  C_7
REMARK    7  A    between atoms: C_12  and  O_13
REMARK    8  A    between atoms: C_15  and  C_17
REMARK    9  A    between atoms: C_15  and  O_20
REMARK   10  A    between atoms: C_17  and  O_18
REMARK   11  A    between atoms: O_20  and  C_22
REMARK   12  A    between atoms: C_22  and  C_23
REMARK   13  A    between atoms: C_24  and  C_25
REMARK   14  A    between atoms: C_30  and  O_31
REMARK   15  A    between atoms: C_33  and  C_35
REMARK   16  A    between atoms: C_35  and  O_36
REMARK                            x       y       z     vdW  Elec       q    Type
REMARK                         _______ _______ _______ _____ _____    ______ ____
ROOT
ATOM      1  C   UNL     1      36.324 -23.717 -14.018  0.00  0.00    +0.231 C 
ENDROOT
BRANCH   1   2
ATOM      2  O   UNL     1      35.315 -24.686 -13.722  0.00  0.00    -0.444 OA
BRANCH   2   4
ATOM      3  O   UNL     1      34.322 -23.706 -11.881  0.00  0.00    -0.245 OA
ATOM      4  C   UNL     1      34.268 -24.234 -12.981  0.00  0.00    +0.341 C 
BRANCH   4   5
ATOM      5  C   UNL     1      33.029 -24.496 -13.747  0.00  0.00    +0.082 C 
ATOM      6  C   UNL     1      32.294 -23.465 -14.188  0.00  0.00    +0.007 C 
BRANCH   6   7
ATOM      7  C   UNL     1      31.050 -23.597 -14.968  0.00  0.00    +0.000 C 
ATOM      8  C   UNL     1      30.150 -24.600 -14.645  0.00  0.00    +0.003 C 
ATOM      9  C   UNL     1      30.806 -22.716 -16.009  0.00  0.00    +0.003 C 
ATOM     10  C   UNL     1      28.974 -24.724 -15.384  0.00  0.00    +0.037 C 
ATOM     11  C   UNL     1      29.629 -22.841 -16.747  0.00  0.00    +0.037 C 
ATOM     12  C   UNL     1      28.713 -23.845 -16.435  0.00  0.00    +0.134 C 
BRANCH  12  13
ATOM     13  O   UNL     1      27.565 -23.967 -17.156  0.00  0.00    -0.506 OA
ATOM     14  H   UNL     1      27.238 -24.818 -17.376  0.00  0.00    +0.292 HD
ENDBRANCH  12  13
ENDBRANCH   6   7
ENDBRANCH   4   5
ENDBRANCH   2   4
ENDBRANCH   1   2
BRANCH   1  15
ATOM     15  C   UNL     1      36.410 -23.506 -15.536  0.00  0.00    +0.306 C 
BRANCH  15  17
ATOM     16  O   UNL     1      37.569 -21.480 -16.216  0.00  0.00    -0.246 OA
ATOM     17  C   UNL     1      37.604 -22.679 -15.970  0.00  0.00    +0.358 C 
BRANCH  17  18
ATOM     18  O   UNL     1      38.743 -23.413 -16.045  0.00  0.00    -0.478 OA
ATOM     19  H   UNL     1      39.558 -22.996 -16.247  0.00  0.00    +0.295 HD
ENDBRANCH  17  18
ENDBRANCH  15  17
BRANCH  15  20
ATOM     20  O   UNL     1      35.247 -22.780 -15.934  0.00  0.00    -0.434 OA
BRANCH  20  22
ATOM     21  O   UNL     1      34.136 -24.515 -16.979  0.00  0.00    -0.245 OA
ATOM     22  C   UNL     1      34.505 -23.354 -16.922  0.00  0.00    +0.342 C 
BRANCH  22  23
ATOM     23  C   UNL     1      34.219 -22.310 -17.934  0.00  0.00    +0.082 C 
ATOM     24  C   UNL     1      35.193 -21.913 -18.766  0.00  0.00    +0.007 C 
BRANCH  24  25
ATOM     25  C   UNL     1      35.031 -20.895 -19.818  0.00  0.00    +0.000 C 
ATOM     26  C   UNL     1      36.155 -20.279 -20.345  0.00  0.00    +0.003 C 
ATOM     27  C   UNL     1      33.758 -20.572 -20.259  0.00  0.00    +0.003 C 
ATOM     28  C   UNL     1      36.001 -19.314 -21.341  0.00  0.00    +0.037 C 
ATOM     29  C   UNL     1      33.605 -19.606 -21.255  0.00  0.00    +0.037 C 
ATOM     30  C   UNL     1      34.726 -18.978 -21.796  0.00  0.00    +0.134 C 
BRANCH  30  31
ATOM     31  O   UNL     1      34.577 -18.037 -22.767  0.00  0.00    -0.506 OA
ATOM     32  H   UNL     1      34.669 -17.128 -22.557  0.00  0.00    +0.292 HD
ENDBRANCH  30  31
ENDBRANCH  24  25
ENDBRANCH  22  23
ENDBRANCH  20  22
ENDBRANCH  15  20
ENDBRANCH   1  15
BRANCH   1  33
ATOM     33  C   UNL     1      37.619 -24.183 -13.352  0.00  0.00    +0.157 C 
BRANCH  33  35
ATOM     34  O   UNL     1      38.483 -22.671 -11.651  0.00  0.00    -0.250 OA
ATOM     35  C   UNL     1      37.803 -23.643 -11.952  0.00  0.00    +0.318 C 
BRANCH  35  36
ATOM     36  O   UNL     1      37.088 -24.356 -11.043  0.00  0.00    -0.480 OA
ATOM     37  H   UNL     1      36.152 -24.365 -11.087  0.00  0.00    +0.295 HD
ENDBRANCH  35  36
ENDBRANCH  33  35
ENDBRANCH   1  33
TORSDOF 16
ENDMDL
MODEL 5
REMARK VINA RESULT:     -10.0      8.990     13.851
REMARK  Name = 11669698
REMARK  16 active torsions:
REMARK  status: ('A' for Active; 'I' for Inactive)
REMARK    1  A    between atoms: C_1  and  O_2
REMARK    2  A    between atoms: C_1  and  C_15
REMARK    3  A    between atoms: C_1  and  C_33
REMARK    4  A    between atoms: O_2  and  C_4
REMARK    5  A    between atoms: C_4  and  C_5
REMARK    6  A    between atoms: C_6  and  C_7
REMARK    7  A    between atoms: C_12  and  O_13
REMARK    8  A    between atoms: C_15  and  C_17
REMARK    9  A    between atoms: C_15  and  O_20
REMARK   10  A    between atoms: C_17  and  O_18
REMARK   11  A    between atoms: O_20  and  C_22
REMARK   12  A    between atoms: C_22  and  C_23
REMARK   13  A    between atoms: C_24  and  C_25
REMARK   14  A    between atoms: C_30  and  O_31
REMARK   15  A    between atoms: C_33  and  C_35
REMARK   16  A    between atoms: C_35  and  O_36
REMARK                            x       y       z     vdW  Elec       q    Type
REMARK                         _______ _______ _______ _____ _____    ______ ____
ROOT
ATOM      1  C   UNL     1      33.917 -14.697 -24.302  0.00  0.00    +0.231 C 
ENDROOT
BRANCH   1   2
ATOM      2  O   UNL     1      33.835 -16.043 -23.824  0.00  0.00    -0.444 OA
BRANCH   2   4
ATOM      3  O   UNL     1      34.984 -16.831 -25.667  0.00  0.00    -0.245 OA
ATOM      4  C   UNL     1      34.544 -16.960 -24.535  0.00  0.00    +0.341 C 
BRANCH   4   5
ATOM      5  C   UNL     1      34.694 -18.165 -23.689  0.00  0.00    +0.082 C 
ATOM      6  C   UNL     1      34.595 -18.055 -22.356  0.00  0.00    +0.007 C 
BRANCH   6   7
ATOM      7  C   UNL     1      34.715 -19.179 -21.411  0.00  0.00    +0.000 C 
ATOM      8  C   UNL     1      33.567 -19.802 -20.949  0.00  0.00    +0.003 C 
ATOM      9  C   UNL     1      35.973 -19.591 -21.003  0.00  0.00    +0.003 C 
ATOM     10  C   UNL     1      33.681 -20.866 -20.055  0.00  0.00    +0.037 C 
ATOM     11  C   UNL     1      36.086 -20.655 -20.109  0.00  0.00    +0.037 C 
ATOM     12  C   UNL     1      34.941 -21.293 -19.634  0.00  0.00    +0.134 C 
BRANCH  12  13
ATOM     13  O   UNL     1      35.051 -22.331 -18.761  0.00  0.00    -0.506 OA
ATOM     14  H   UNL     1      35.856 -22.808 -18.700  0.00  0.00    +0.292 HD
ENDBRANCH  12  13
ENDBRANCH   6   7
ENDBRANCH   4   5
ENDBRANCH   2   4
ENDBRANCH   1   2
BRANCH   1  15
ATOM     15  C   UNL     1      34.035 -13.732 -23.113  0.00  0.00    +0.306 C 
BRANCH  15  17
ATOM     16  O   UNL     1      34.509 -14.595 -20.889  0.00  0.00    -0.246 OA
ATOM     17  C   UNL     1      33.697 -14.367 -21.777  0.00  0.00    +0.358 C 
BRANCH  17  18
ATOM     18  O   UNL     1      32.375 -14.648 -21.657  0.00  0.00    -0.478 OA
ATOM     19  H   UNL     1      32.080 -15.537 -21.684  0.00  0.00    +0.295 HD
ENDBRANCH  17  18
ENDBRANCH  15  17
BRANCH  15  20
ATOM     20  O   UNL     1      33.089 -12.684 -23.316  0.00  0.00    -0.434 OA
BRANCH  20  22
ATOM     21  O   UNL     1      34.573 -11.367 -24.499  0.00  0.00    -0.245 OA
ATOM     22  C   UNL     1      33.603 -11.508 -23.773  0.00  0.00    +0.342 C 
BRANCH  22  23
ATOM     23  C   UNL     1      32.771 -10.410 -23.228  0.00  0.00    +0.082 C 
ATOM     24  C   UNL     1      33.222  -9.149 -23.285  0.00  0.00    +0.007 C 
BRANCH  24  25
ATOM     25  C   UNL     1      32.487  -7.973 -22.789  0.00  0.00    +0.000 C 
ATOM     26  C   UNL     1      31.586  -7.334 -23.625  0.00  0.00    +0.003 C 
ATOM     27  C   UNL     1      32.709  -7.530 -21.495  0.00  0.00    +0.003 C 
ATOM     28  C   UNL     1      30.890  -6.220 -23.155  0.00  0.00    +0.037 C 
ATOM     29  C   UNL     1      32.013  -6.417 -21.025  0.00  0.00    +0.037 C 
ATOM     30  C   UNL     1      31.103  -5.762 -21.855  0.00  0.00    +0.134 C 
BRANCH  30  31
ATOM     31  O   UNL     1      30.424  -4.675 -21.397  0.00  0.00    -0.506 OA
ATOM     32  H   UNL     1      29.662  -4.373 -21.850  0.00  0.00    +0.292 HD
ENDBRANCH  30  31
ENDBRANCH  24  25
ENDBRANCH  22  23
ENDBRANCH  20  22
ENDBRANCH  15  20
ENDBRANCH   1  15
BRANCH   1  33
ATOM     33  C   UNL     1      32.714 -14.459 -25.215  0.00  0.00    +0.157 C 
BRANCH  33  35
ATOM     34  O   UNL     1      33.090 -12.853 -27.005  0.00  0.00    -0.250 OA
ATOM     35  C   UNL     1      33.096 -14.010 -26.607  0.00  0.00    +0.318 C 
BRANCH  35  36
ATOM     36  O   UNL     1      33.486 -15.057 -27.380  0.00  0.00    -0.480 OA
ATOM     37  H   UNL     1      33.127 -15.165 -28.239  0.00  0.00    +0.295 HD
ENDBRANCH  35  36
ENDBRANCH  33  35
ENDBRANCH   1  33
TORSDOF 16
ENDMDL
MODEL 6
REMARK VINA RESULT:      -9.9      1.347      2.773
REMARK  Name = 11669698
REMARK  16 active torsions:
REMARK  status: ('A' for Active; 'I' for Inactive)
REMARK    1  A    between atoms: C_1  and  O_2
REMARK    2  A    between atoms: C_1  and  C_15
REMARK    3  A    between atoms: C_1  and  C_33
REMARK    4  A    between atoms: O_2  and  C_4
REMARK    5  A    between atoms: C_4  and  C_5
REMARK    6  A    between atoms: C_6  and  C_7
REMARK    7  A    between atoms: C_12  and  O_13
REMARK    8  A    between atoms: C_15  and  C_17
REMARK    9  A    between atoms: C_15  and  O_20
REMARK   10  A    between atoms: C_17  and  O_18
REMARK   11  A    between atoms: O_20  and  C_22
REMARK   12  A    between atoms: C_22  and  C_23
REMARK   13  A    between atoms: C_24  and  C_25
REMARK   14  A    between atoms: C_30  and  O_31
REMARK   15  A    between atoms: C_33  and  C_35
REMARK   16  A    between atoms: C_35  and  O_36
REMARK                            x       y       z     vdW  Elec       q    Type
REMARK                         _______ _______ _______ _____ _____    ______ ____
ROOT
ATOM      1  C   UNL     1      36.613 -24.234 -13.594  0.00  0.00    +0.231 C 
ENDROOT
BRANCH   1   2
ATOM      2  O   UNL     1      35.441 -25.003 -13.310  0.00  0.00    -0.444 OA
BRANCH   2   4
ATOM      3  O   UNL     1      34.419 -23.576 -11.807  0.00  0.00    -0.245 OA
ATOM      4  C   UNL     1      34.397 -24.306 -12.786  0.00  0.00    +0.341 C 
BRANCH   4   5
ATOM      5  C   UNL     1      33.206 -24.590 -13.618  0.00  0.00    +0.082 C 
ATOM      6  C   UNL     1      32.410 -23.581 -13.999  0.00  0.00    +0.007 C 
BRANCH   6   7
ATOM      7  C   UNL     1      31.205 -23.734 -14.834  0.00  0.00    +0.000 C 
ATOM      8  C   UNL     1      30.891 -22.752 -15.759  0.00  0.00    +0.003 C 
ATOM      9  C   UNL     1      30.409 -24.857 -14.676  0.00  0.00    +0.003 C 
ATOM     10  C   UNL     1      29.751 -22.898 -16.548  0.00  0.00    +0.037 C 
ATOM     11  C   UNL     1      29.269 -25.003 -15.466  0.00  0.00    +0.037 C 
ATOM     12  C   UNL     1      28.939 -24.023 -16.402  0.00  0.00    +0.134 C 
BRANCH  12  13
ATOM     13  O   UNL     1      27.826 -24.164 -17.172  0.00  0.00    -0.506 OA
ATOM     14  H   UNL     1      26.991 -24.304 -16.768  0.00  0.00    +0.292 HD
ENDBRANCH  12  13
ENDBRANCH   6   7
ENDBRANCH   4   5
ENDBRANCH   2   4
ENDBRANCH   1   2
BRANCH   1  15
ATOM     15  C   UNL     1      37.011 -24.421 -15.065  0.00  0.00    +0.306 C 
BRANCH  15  17
ATOM     16  O   UNL     1      39.392 -23.984 -15.302  0.00  0.00    -0.246 OA
ATOM     17  C   UNL     1      38.470 -24.789 -15.259  0.00  0.00    +0.358 C 
BRANCH  17  18
ATOM     18  O   UNL     1      38.657 -26.129 -15.368  0.00  0.00    -0.478 OA
ATOM     19  H   UNL     1      37.953 -26.679 -15.651  0.00  0.00    +0.295 HD
ENDBRANCH  17  18
ENDBRANCH  15  17
BRANCH  15  20
ATOM     20  O   UNL     1      36.816 -23.171 -15.724  0.00  0.00    -0.434 OA
BRANCH  20  22
ATOM     21  O   UNL     1      34.770 -23.839 -16.564  0.00  0.00    -0.245 OA
ATOM     22  C   UNL     1      35.750 -23.113 -16.571  0.00  0.00    +0.342 C 
BRANCH  22  23
ATOM     23  C   UNL     1      35.989 -22.002 -17.521  0.00  0.00    +0.082 C 
ATOM     24  C   UNL     1      35.296 -21.952 -18.668  0.00  0.00    +0.007 C 
BRANCH  24  25
ATOM     25  C   UNL     1      35.435 -20.896 -19.685  0.00  0.00    +0.000 C 
ATOM     26  C   UNL     1      34.309 -20.447 -20.356  0.00  0.00    +0.003 C 
ATOM     27  C   UNL     1      36.690 -20.372 -19.951  0.00  0.00    +0.003 C 
ATOM     28  C   UNL     1      34.442 -19.447 -21.319  0.00  0.00    +0.037 C 
ATOM     29  C   UNL     1      36.822 -19.372 -20.915  0.00  0.00    +0.037 C 
ATOM     30  C   UNL     1      35.698 -18.910 -21.598  0.00  0.00    +0.134 C 
BRANCH  30  31
ATOM     31  O   UNL     1      35.827 -17.935 -22.539  0.00  0.00    -0.506 OA
ATOM     32  H   UNL     1      36.401 -17.210 -22.388  0.00  0.00    +0.292 HD
ENDBRANCH  30  31
ENDBRANCH  24  25
ENDBRANCH  22  23
ENDBRANCH  20  22
ENDBRANCH  15  20
ENDBRANCH   1  15
BRANCH   1  33
ATOM     33  C   UNL     1      37.682 -24.630 -12.575  0.00  0.00    +0.157 C 
BRANCH  33  35
ATOM     34  O   UNL     1      39.353 -23.157 -11.594  0.00  0.00    -0.250 OA
ATOM     35  C   UNL     1      38.180 -23.471 -11.743  0.00  0.00    +0.318 C 
BRANCH  35  36
ATOM     36  O   UNL     1      37.152 -22.776 -11.188  0.00  0.00    -0.480 OA
ATOM     37  H   UNL     1      37.182 -21.840 -11.157  0.00  0.00    +0.295 HD
ENDBRANCH  35  36
ENDBRANCH  33  35
ENDBRANCH   1  33
TORSDOF 16
ENDMDL
MODEL 7
REMARK VINA RESULT:      -9.9      1.122      5.165
REMARK  Name = 11669698
REMARK  16 active torsions:
REMARK  status: ('A' for Active; 'I' for Inactive)
REMARK    1  A    between atoms: C_1  and  O_2
REMARK    2  A    between atoms: C_1  and  C_15
REMARK    3  A    between atoms: C_1  and  C_33
REMARK    4  A    between atoms: O_2  and  C_4
REMARK    5  A    between atoms: C_4  and  C_5
REMARK    6  A    between atoms: C_6  and  C_7
REMARK    7  A    between atoms: C_12  and  O_13
REMARK    8  A    between atoms: C_15  and  C_17
REMARK    9  A    between atoms: C_15  and  O_20
REMARK   10  A    between atoms: C_17  and  O_18
REMARK   11  A    between atoms: O_20  and  C_22
REMARK   12  A    between atoms: C_22  and  C_23
REMARK   13  A    between atoms: C_24  and  C_25
REMARK   14  A    between atoms: C_30  and  O_31
REMARK   15  A    between atoms: C_33  and  C_35
REMARK   16  A    between atoms: C_35  and  O_36
REMARK                            x       y       z     vdW  Elec       q    Type
REMARK                         _______ _______ _______ _____ _____    ______ ____
ROOT
ATOM      1  C   UNL     1      36.916 -23.953 -13.800  0.00  0.00    +0.231 C 
ENDROOT
BRANCH   1   2
ATOM      2  O   UNL     1      37.544 -22.774 -14.313  0.00  0.00    -0.444 OA
BRANCH   2   4
ATOM      3  O   UNL     1      38.887 -23.179 -16.148  0.00  0.00    -0.245 OA
ATOM      4  C   UNL     1      37.844 -22.800 -15.639  0.00  0.00    +0.341 C 
BRANCH   4   5
ATOM      5  C   UNL     1      36.669 -22.281 -16.375  0.00  0.00    +0.082 C 
ATOM      6  C   UNL     1      36.681 -22.270 -17.715  0.00  0.00    +0.007 C 
BRANCH   6   7
ATOM      7  C   UNL     1      35.572 -21.789 -18.559  0.00  0.00    +0.000 C 
ATOM      8  C   UNL     1      34.291 -22.266 -18.331  0.00  0.00    +0.003 C 
ATOM      9  C   UNL     1      35.832 -20.872 -19.563  0.00  0.00    +0.003 C 
ATOM     10  C   UNL     1      33.242 -21.810 -19.129  0.00  0.00    +0.037 C 
ATOM     11  C   UNL     1      34.783 -20.417 -20.361  0.00  0.00    +0.037 C 
ATOM     12  C   UNL     1      33.487 -20.886 -20.145  0.00  0.00    +0.134 C 
BRANCH  12  13
ATOM     13  O   UNL     1      32.463 -20.443 -20.924  0.00  0.00    -0.506 OA
ATOM     14  H   UNL     1      31.722 -20.025 -20.530  0.00  0.00    +0.292 HD
ENDBRANCH  12  13
ENDBRANCH   6   7
ENDBRANCH   4   5
ENDBRANCH   2   4
ENDBRANCH   1   2
BRANCH   1  15
ATOM     15  C   UNL     1      35.842 -23.562 -12.775  0.00  0.00    +0.306 C 
BRANCH  15  17
ATOM     16  O   UNL     1      36.963 -23.124 -10.662  0.00  0.00    -0.246 OA
ATOM     17  C   UNL     1      36.239 -23.844 -11.339  0.00  0.00    +0.358 C 
BRANCH  17  18
ATOM     18  O   UNL     1      35.686 -24.988 -10.863  0.00  0.00    -0.478 OA
ATOM     19  H   UNL     1      36.019 -25.820 -11.139  0.00  0.00    +0.295 HD
ENDBRANCH  17  18
ENDBRANCH  15  17
BRANCH  15  20
ATOM     20  O   UNL     1      34.687 -24.358 -13.041  0.00  0.00    -0.434 OA
BRANCH  20  22
ATOM     21  O   UNL     1      35.117 -25.266 -15.121  0.00  0.00    -0.245 OA
ATOM     22  C   UNL     1      34.434 -24.605 -14.357  0.00  0.00    +0.342 C 
BRANCH  22  23
ATOM     23  C   UNL     1      33.168 -23.920 -14.708  0.00  0.00    +0.082 C 
ATOM     24  C   UNL     1      32.045 -24.640 -14.849  0.00  0.00    +0.007 C 
BRANCH  24  25
ATOM     25  C   UNL     1      30.727 -24.075 -15.185  0.00  0.00    +0.000 C 
ATOM     26  C   UNL     1      30.428 -22.777 -14.805  0.00  0.00    +0.003 C 
ATOM     27  C   UNL     1      29.812 -24.853 -15.875  0.00  0.00    +0.003 C 
ATOM     28  C   UNL     1      29.178 -22.243 -15.122  0.00  0.00    +0.037 C 
ATOM     29  C   UNL     1      28.563 -24.319 -16.192  0.00  0.00    +0.037 C 
ATOM     30  C   UNL     1      28.247 -23.014 -15.816  0.00  0.00    +0.134 C 
BRANCH  30  31
ATOM     31  O   UNL     1      27.028 -22.493 -16.126  0.00  0.00    -0.506 OA
ATOM     32  H   UNL     1      26.265 -22.779 -15.664  0.00  0.00    +0.292 HD
ENDBRANCH  30  31
ENDBRANCH  24  25
ENDBRANCH  22  23
ENDBRANCH  20  22
ENDBRANCH  15  20
ENDBRANCH   1  15
BRANCH   1  33
ATOM     33  C   UNL     1      38.020 -24.868 -13.269  0.00  0.00    +0.157 C 
BRANCH  33  35
ATOM     34  O   UNL     1      38.598 -26.919 -14.445  0.00  0.00    -0.250 OA
ATOM     35  C   UNL     1      37.856 -26.311 -13.684  0.00  0.00    +0.318 C 
BRANCH  35  36
ATOM     36  O   UNL     1      36.783 -26.887 -13.080  0.00  0.00    -0.480 OA
ATOM     37  H   UNL     1      36.268 -27.518 -13.543  0.00  0.00    +0.295 HD
ENDBRANCH  35  36
ENDBRANCH  33  35
ENDBRANCH   1  33
TORSDOF 16
ENDMDL
MODEL 8
REMARK VINA RESULT:      -9.8      8.642     13.563
REMARK  Name = 11669698
REMARK  16 active torsions:
REMARK  status: ('A' for Active; 'I' for Inactive)
REMARK    1  A    between atoms: C_1  and  O_2
REMARK    2  A    between atoms: C_1  and  C_15
REMARK    3  A    between atoms: C_1  and  C_33
REMARK    4  A    between atoms: O_2  and  C_4
REMARK    5  A    between atoms: C_4  and  C_5
REMARK    6  A    between atoms: C_6  and  C_7
REMARK    7  A    between atoms: C_12  and  O_13
REMARK    8  A    between atoms: C_15  and  C_17
REMARK    9  A    between atoms: C_15  and  O_20
REMARK   10  A    between atoms: C_17  and  O_18
REMARK   11  A    between atoms: O_20  and  C_22
REMARK   12  A    between atoms: C_22  and  C_23
REMARK   13  A    between atoms: C_24  and  C_25
REMARK   14  A    between atoms: C_30  and  O_31
REMARK   15  A    between atoms: C_33  and  C_35
REMARK   16  A    between atoms: C_35  and  O_36
REMARK                            x       y       z     vdW  Elec       q    Type
REMARK                         _______ _______ _______ _____ _____    ______ ____
ROOT
ATOM      1  C   UNL     1      33.773 -15.106 -23.292  0.00  0.00    +0.231 C 
ENDROOT
BRANCH   1   2
ATOM      2  O   UNL     1      34.664 -15.619 -24.286  0.00  0.00    -0.444 OA
BRANCH   2   4
ATOM      3  O   UNL     1      33.972 -17.424 -25.551  0.00  0.00    -0.245 OA
ATOM      4  C   UNL     1      34.522 -16.941 -24.574  0.00  0.00    +0.341 C 
BRANCH   4   5
ATOM      5  C   UNL     1      35.158 -17.709 -23.480  0.00  0.00    +0.082 C 
ATOM      6  C   UNL     1      34.411 -18.527 -22.725  0.00  0.00    +0.007 C 
BRANCH   6   7
ATOM      7  C   UNL     1      34.929 -19.350 -21.617  0.00  0.00    +0.000 C 
ATOM      8  C   UNL     1      34.067 -20.201 -20.945  0.00  0.00    +0.003 C 
ATOM      9  C   UNL     1      36.266 -19.255 -21.270  0.00  0.00    +0.003 C 
ATOM     10  C   UNL     1      34.558 -20.980 -19.897  0.00  0.00    +0.037 C 
ATOM     11  C   UNL     1      36.756 -20.034 -20.222  0.00  0.00    +0.037 C 
ATOM     12  C   UNL     1      35.903 -20.896 -19.535  0.00  0.00    +0.134 C 
BRANCH  12  13
ATOM     13  O   UNL     1      36.381 -21.656 -18.512  0.00  0.00    -0.506 OA
ATOM     14  H   UNL     1      36.006 -21.578 -17.656  0.00  0.00    +0.292 HD
ENDBRANCH  12  13
ENDBRANCH   6   7
ENDBRANCH   4   5
ENDBRANCH   2   4
ENDBRANCH   1   2
BRANCH   1  15
ATOM     15  C   UNL     1      32.879 -14.022 -23.910  0.00  0.00    +0.306 C 
BRANCH  15  17
ATOM     16  O   UNL     1      33.658 -12.961 -25.955  0.00  0.00    -0.246 OA
ATOM     17  C   UNL     1      33.049 -13.873 -25.410  0.00  0.00    +0.358 C 
BRANCH  17  18
ATOM     18  O   UNL     1      32.460 -14.882 -26.101  0.00  0.00    -0.478 OA
ATOM     19  H   UNL     1      32.943 -15.344 -26.758  0.00  0.00    +0.295 HD
ENDBRANCH  17  18
ENDBRANCH  15  17
BRANCH  15  20
ATOM     20  O   UNL     1      33.258 -12.773 -23.333  0.00  0.00    -0.434 OA
BRANCH  20  22
ATOM     21  O   UNL     1      31.681 -12.787 -21.645  0.00  0.00    -0.245 OA
ATOM     22  C   UNL     1      32.345 -12.212 -22.492  0.00  0.00    +0.342 C 
BRANCH  22  23
ATOM     23  C   UNL     1      32.291 -10.762 -22.788  0.00  0.00    +0.082 C 
ATOM     24  C   UNL     1      31.858  -9.911 -21.846  0.00  0.00    +0.007 C 
BRANCH  24  25
ATOM     25  C   UNL     1      31.768  -8.451 -22.015  0.00  0.00    +0.000 C 
ATOM     26  C   UNL     1      32.148  -7.622 -20.971  0.00  0.00    +0.003 C 
ATOM     27  C   UNL     1      31.305  -7.934 -23.213  0.00  0.00    +0.003 C 
ATOM     28  C   UNL     1      32.062  -6.239 -21.131  0.00  0.00    +0.037 C 
ATOM     29  C   UNL     1      31.219  -6.550 -23.373  0.00  0.00    +0.037 C 
ATOM     30  C   UNL     1      31.599  -5.704 -22.332  0.00  0.00    +0.134 C 
BRANCH  30  31
ATOM     31  O   UNL     1      31.515  -4.354 -22.487  0.00  0.00    -0.506 OA
ATOM     32  H   UNL     1      32.149  -3.795 -22.083  0.00  0.00    +0.292 HD
ENDBRANCH  30  31
ENDBRANCH  24  25
ENDBRANCH  22  23
ENDBRANCH  20  22
ENDBRANCH  15  20
ENDBRANCH   1  15
BRANCH   1  33
ATOM     33  C   UNL     1      34.621 -14.651 -22.104  0.00  0.00    +0.157 C 
BRANCH  33  35
ATOM     34  O   UNL     1      35.038 -16.044 -20.152  0.00  0.00    -0.250 OA
ATOM     35  C   UNL     1      34.273 -15.355 -20.812  0.00  0.00    +0.318 C 
BRANCH  35  36
ATOM     36  O   UNL     1      32.990 -15.107 -20.438  0.00  0.00    -0.480 OA
ATOM     37  H   UNL     1      32.740 -15.190 -19.540  0.00  0.00    +0.295 HD
ENDBRANCH  35  36
ENDBRANCH  33  35
ENDBRANCH   1  33
TORSDOF 16
ENDMDL
MODEL 9
REMARK VINA RESULT:      -9.7      8.360     13.681
REMARK  Name = 11669698
REMARK  16 active torsions:
REMARK  status: ('A' for Active; 'I' for Inactive)
REMARK    1  A    between atoms: C_1  and  O_2
REMARK    2  A    between atoms: C_1  and  C_15
REMARK    3  A    between atoms: C_1  and  C_33
REMARK    4  A    between atoms: O_2  and  C_4
REMARK    5  A    between atoms: C_4  and  C_5
REMARK    6  A    between atoms: C_6  and  C_7
REMARK    7  A    between atoms: C_12  and  O_13
REMARK    8  A    between atoms: C_15  and  C_17
REMARK    9  A    between atoms: C_15  and  O_20
REMARK   10  A    between atoms: C_17  and  O_18
REMARK   11  A    between atoms: O_20  and  C_22
REMARK   12  A    between atoms: C_22  and  C_23
REMARK   13  A    between atoms: C_24  and  C_25
REMARK   14  A    between atoms: C_30  and  O_31
REMARK   15  A    between atoms: C_33  and  C_35
REMARK   16  A    between atoms: C_35  and  O_36
REMARK                            x       y       z     vdW  Elec       q    Type
REMARK                         _______ _______ _______ _____ _____    ______ ____
ROOT
ATOM      1  C   UNL     1      33.347 -14.449 -23.186  0.00  0.00    +0.231 C 
ENDROOT
BRANCH   1   2
ATOM      2  O   UNL     1      33.575 -13.246 -22.446  0.00  0.00    -0.444 OA
BRANCH   2   4
ATOM      3  O   UNL     1      31.501 -12.703 -21.584  0.00  0.00    -0.245 OA
ATOM      4  C   UNL     1      32.484 -12.454 -22.266  0.00  0.00    +0.341 C 
BRANCH   4   5
ATOM      5  C   UNL     1      32.692 -11.217 -23.051  0.00  0.00    +0.082 C 
ATOM      6  C   UNL     1      32.247 -10.047 -22.571  0.00  0.00    +0.007 C 
BRANCH   6   7
ATOM      7  C   UNL     1      32.403  -8.749 -23.253  0.00  0.00    +0.000 C 
ATOM      8  C   UNL     1      31.274  -8.061 -23.666  0.00  0.00    +0.003 C 
ATOM      9  C   UNL     1      33.675  -8.244 -23.467  0.00  0.00    +0.003 C 
ATOM     10  C   UNL     1      31.422  -6.833 -24.311  0.00  0.00    +0.037 C 
ATOM     11  C   UNL     1      33.823  -7.016 -24.111  0.00  0.00    +0.037 C 
ATOM     12  C   UNL     1      32.697  -6.310 -24.534  0.00  0.00    +0.134 C 
BRANCH  12  13
ATOM     13  O   UNL     1      32.840  -5.112 -25.164  0.00  0.00    -0.506 OA
ATOM     14  H   UNL     1      33.684  -4.704 -25.208  0.00  0.00    +0.292 HD
ENDBRANCH  12  13
ENDBRANCH   6   7
ENDBRANCH   4   5
ENDBRANCH   2   4
ENDBRANCH   1   2
BRANCH   1  15
ATOM     15  C   UNL     1      33.731 -15.663 -22.329  0.00  0.00    +0.306 C 
BRANCH  15  17
ATOM     16  O   UNL     1      34.915 -15.286 -20.239  0.00  0.00    -0.246 OA
ATOM     17  C   UNL     1      33.855 -15.350 -20.850  0.00  0.00    +0.358 C 
BRANCH  17  18
ATOM     18  O   UNL     1      32.652 -15.129 -20.264  0.00  0.00    -0.478 OA
ATOM     19  H   UNL     1      32.607 -14.692 -19.436  0.00  0.00    +0.295 HD
ENDBRANCH  17  18
ENDBRANCH  15  17
BRANCH  15  20
ATOM     20  O   UNL     1      35.017 -16.104 -22.761  0.00  0.00    -0.434 OA
BRANCH  20  22
ATOM     21  O   UNL     1      34.933 -17.680 -24.448  0.00  0.00    -0.245 OA
ATOM     22  C   UNL     1      35.065 -17.364 -23.277  0.00  0.00    +0.342 C 
BRANCH  22  23
ATOM     23  C   UNL     1      35.305 -18.301 -22.155  0.00  0.00    +0.082 C 
ATOM     24  C   UNL     1      34.368 -19.207 -21.839  0.00  0.00    +0.007 C 
BRANCH  24  25
ATOM     25  C   UNL     1      34.492 -20.196 -20.755  0.00  0.00    +0.000 C 
ATOM     26  C   UNL     1      35.753 -20.554 -20.304  0.00  0.00    +0.003 C 
ATOM     27  C   UNL     1      33.347 -20.751 -20.208  0.00  0.00    +0.003 C 
ATOM     28  C   UNL     1      35.871 -21.492 -19.278  0.00  0.00    +0.037 C 
ATOM     29  C   UNL     1      33.465 -21.689 -19.182  0.00  0.00    +0.037 C 
ATOM     30  C   UNL     1      34.727 -22.059 -18.717  0.00  0.00    +0.134 C 
BRANCH  30  31
ATOM     31  O   UNL     1      34.843 -22.974 -17.717  0.00  0.00    -0.506 OA
ATOM     32  H   UNL     1      34.160 -23.062 -17.081  0.00  0.00    +0.292 HD
ENDBRANCH  30  31
ENDBRANCH  24  25
ENDBRANCH  22  23
ENDBRANCH  20  22
ENDBRANCH  15  20
ENDBRANCH   1  15
BRANCH   1  33
ATOM     33  C   UNL     1      34.100 -14.323 -24.511  0.00  0.00    +0.157 C 
BRANCH  33  35
ATOM     34  O   UNL     1      32.325 -14.195 -26.171  0.00  0.00    -0.250 OA
ATOM     35  C   UNL     1      33.295 -14.779 -25.706  0.00  0.00    +0.318 C 
BRANCH  35  36
ATOM     36  O   UNL     1      33.798 -15.922 -26.241  0.00  0.00    -0.480 OA
ATOM     37  H   UNL     1      34.720 -16.083 -26.220  0.00  0.00    +0.295 HD
ENDBRANCH  35  36
ENDBRANCH  33  35
ENDBRANCH   1  33
TORSDOF 16
ENDMDL
