MODEL 1
REMARK VINA RESULT:      -8.6      0.000      0.000
REMARK  Name = 68602
REMARK  2 active torsions:
REMARK  status: ('A' for Active; 'I' for Inactive)
REMARK    1  A    between atoms: C_1  and  C_3
REMARK    2  A    between atoms: C_1  and  C_13
REMARK                            x       y       z     vdW  Elec       q    Type
REMARK                         _______ _______ _______ _____ _____    ______ ____
ROOT
ATOM      1  C   UNL     1      35.160 -17.512 -21.708  0.00  0.00    +0.059 C 
ATOM      2  C   UNL     1      34.768 -16.180 -21.022  0.00  0.00    +0.011 C 
ENDROOT
BRANCH   1   3
ATOM      3  C   UNL     1      34.603 -18.747 -21.079  0.00  0.00    -0.021 C 
ATOM      4  C   UNL     1      35.444 -19.727 -20.551  0.00  0.00    -0.029 C 
ATOM      5  C   UNL     1      34.899 -20.871 -19.966  0.00  0.00    -0.026 C 
ATOM      6  C   UNL     1      33.219 -18.911 -21.023  0.00  0.00    -0.004 C 
ATOM      7  C   UNL     1      36.928 -19.552 -20.612  0.00  0.00    +0.030 C 
ATOM      8  C   UNL     1      33.515 -21.035 -19.911  0.00  0.00    -0.005 C 
ATOM      9  C   UNL     1      32.676 -20.055 -20.440  0.00  0.00    -0.001 C 
ATOM     10  C   UNL     1      35.776 -21.936 -19.394  0.00  0.00    +0.031 C 
ENDBRANCH   1   3
BRANCH   1  13
ATOM     11  N   UNL     1      34.501 -16.260 -23.759  0.00  0.00    -0.318 N 
ATOM     12  N   UNL     1      34.577 -17.792 -25.364  0.00  0.00    -0.315 N 
ATOM     13  C   UNL     1      34.870 -17.419 -23.211  0.00  0.00    +0.041 C 
ATOM     14  C   UNL     1      34.922 -18.353 -24.161  0.00  0.00    +0.069 C 
ATOM     15  C   UNL     1      34.329 -16.532 -25.088  0.00  0.00    +0.182 C 
ATOM     16  H   UNL     1      34.379 -15.396 -23.304  0.00  0.00    +0.148 HD
ATOM     17  H   UNL     1      34.526 -18.236 -26.242  0.00  0.00    +0.148 HD
ENDBRANCH   1  13
TORSDOF 2
ENDMDL
MODEL 2
REMARK VINA RESULT:      -8.6      2.407      5.169
REMARK  Name = 68602
REMARK  2 active torsions:
REMARK  status: ('A' for Active; 'I' for Inactive)
REMARK    1  A    between atoms: C_1  and  C_3
REMARK    2  A    between atoms: C_1  and  C_13
REMARK                            x       y       z     vdW  Elec       q    Type
REMARK                         _______ _______ _______ _____ _____    ______ ____
ROOT
ATOM      1  C   UNL     1      35.365 -18.695 -21.120  0.00  0.00    +0.059 C 
ATOM      2  C   UNL     1      36.817 -19.218 -20.985  0.00  0.00    +0.011 C 
ENDROOT
BRANCH   1   3
ATOM      3  C   UNL     1      35.000 -18.151 -22.461  0.00  0.00    -0.021 C 
ATOM      4  C   UNL     1      34.644 -16.812 -22.622  0.00  0.00    -0.029 C 
ATOM      5  C   UNL     1      34.307 -16.327 -23.887  0.00  0.00    -0.026 C 
ATOM      6  C   UNL     1      35.018 -19.006 -23.564  0.00  0.00    -0.004 C 
ATOM      7  C   UNL     1      34.622 -15.896 -21.440  0.00  0.00    +0.030 C 
ATOM      8  C   UNL     1      34.326 -17.182 -24.989  0.00  0.00    -0.005 C 
ATOM      9  C   UNL     1      34.681 -18.521 -24.827  0.00  0.00    -0.001 C 
ATOM     10  C   UNL     1      33.923 -14.898 -24.087  0.00  0.00    +0.031 C 
ENDBRANCH   1   3
BRANCH   1  13
ATOM     11  N   UNL     1      34.836 -20.839 -19.966  0.00  0.00    -0.318 N 
ATOM     12  N   UNL     1      32.624 -20.983 -20.101  0.00  0.00    -0.315 N 
ATOM     13  C   UNL     1      34.388 -19.764 -20.615  0.00  0.00    +0.041 C 
ATOM     14  C   UNL     1      33.059 -19.832 -20.706  0.00  0.00    +0.069 C 
ATOM     15  C   UNL     1      33.718 -21.567 -19.666  0.00  0.00    +0.182 C 
ATOM     16  H   UNL     1      35.770 -21.061 -19.750  0.00  0.00    +0.148 HD
ATOM     17  H   UNL     1      31.697 -21.302 -20.012  0.00  0.00    +0.148 HD
ENDBRANCH   1  13
TORSDOF 2
ENDMDL
MODEL 3
REMARK VINA RESULT:      -8.5      1.348      3.033
REMARK  Name = 68602
REMARK  2 active torsions:
REMARK  status: ('A' for Active; 'I' for Inactive)
REMARK    1  A    between atoms: C_1  and  C_3
REMARK    2  A    between atoms: C_1  and  C_13
REMARK                            x       y       z     vdW  Elec       q    Type
REMARK                         _______ _______ _______ _____ _____    ______ ____
ROOT
ATOM      1  C   UNL     1      34.525 -18.241 -22.340  0.00  0.00    +0.059 C 
ATOM      2  C   UNL     1      35.153 -18.310 -23.755  0.00  0.00    +0.011 C 
ENDROOT
BRANCH   1   3
ATOM      3  C   UNL     1      35.069 -19.215 -21.348  0.00  0.00    -0.021 C 
ATOM      4  C   UNL     1      34.230 -20.109 -20.681  0.00  0.00    -0.029 C 
ATOM      5  C   UNL     1      34.763 -21.010 -19.759  0.00  0.00    -0.026 C 
ATOM      6  C   UNL     1      36.441 -19.224 -21.093  0.00  0.00    -0.004 C 
ATOM      7  C   UNL     1      32.760 -20.098 -20.952  0.00  0.00    +0.030 C 
ATOM      8  C   UNL     1      36.134 -21.018 -19.504  0.00  0.00    -0.005 C 
ATOM      9  C   UNL     1      36.973 -20.125 -20.171  0.00  0.00    -0.001 C 
ATOM     10  C   UNL     1      33.887 -21.976 -19.030  0.00  0.00    +0.031 C 
ENDBRANCH   1   3
BRANCH   1  13
ATOM     11  N   UNL     1      34.517 -15.776 -22.701  0.00  0.00    -0.318 N 
ATOM     12  N   UNL     1      34.601 -14.938 -20.648  0.00  0.00    -0.315 N 
ATOM     13  C   UNL     1      34.550 -16.793 -21.838  0.00  0.00    +0.041 C 
ATOM     14  C   UNL     1      34.600 -16.308 -20.597  0.00  0.00    +0.069 C 
ATOM     15  C   UNL     1      34.551 -14.650 -21.928  0.00  0.00    +0.182 C 
ATOM     16  H   UNL     1      34.477 -15.828 -23.684  0.00  0.00    +0.148 HD
ATOM     17  H   UNL     1      34.633 -14.308 -19.891  0.00  0.00    +0.148 HD
ENDBRANCH   1  13
TORSDOF 2
ENDMDL
MODEL 4
REMARK VINA RESULT:      -7.9      2.556      5.190
REMARK  Name = 68602
REMARK  2 active torsions:
REMARK  status: ('A' for Active; 'I' for Inactive)
REMARK    1  A    between atoms: C_1  and  C_3
REMARK    2  A    between atoms: C_1  and  C_13
REMARK                            x       y       z     vdW  Elec       q    Type
REMARK                         _______ _______ _______ _____ _____    ______ ____
ROOT
ATOM      1  C   UNL     1      34.110 -19.762 -21.387  0.00  0.00    +0.059 C 
ATOM      2  C   UNL     1      32.741 -19.960 -20.688  0.00  0.00    +0.011 C 
ENDROOT
BRANCH   1   3
ATOM      3  C   UNL     1      34.358 -18.398 -21.940  0.00  0.00    -0.021 C 
ATOM      4  C   UNL     1      34.557 -18.200 -23.307  0.00  0.00    -0.029 C 
ATOM      5  C   UNL     1      34.786 -16.914 -23.799  0.00  0.00    -0.026 C 
ATOM      6  C   UNL     1      34.389 -17.311 -21.066  0.00  0.00    -0.004 C 
ATOM      7  C   UNL     1      34.525 -19.364 -24.244  0.00  0.00    +0.030 C 
ATOM      8  C   UNL     1      34.818 -15.828 -22.924  0.00  0.00    -0.005 C 
ATOM      9  C   UNL     1      34.620 -16.027 -21.558  0.00  0.00    -0.001 C 
ATOM     10  C   UNL     1      35.002 -16.674 -25.257  0.00  0.00    +0.031 C 
ENDBRANCH   1   3
BRANCH   1  13
ATOM     11  N   UNL     1      35.006 -21.230 -19.584  0.00  0.00    -0.318 N 
ATOM     12  N   UNL     1      37.125 -20.597 -19.388  0.00  0.00    -0.315 N 
ATOM     13  C   UNL     1      35.231 -20.253 -20.464  0.00  0.00    +0.041 C 
ATOM     14  C   UNL     1      36.501 -19.858 -20.361  0.00  0.00    +0.069 C 
ATOM     15  C   UNL     1      36.198 -21.412 -18.940  0.00  0.00    +0.182 C 
ATOM     16  H   UNL     1      34.163 -21.715 -19.433  0.00  0.00    +0.148 HD
ATOM     17  H   UNL     1      38.061 -20.529 -19.091  0.00  0.00    +0.148 HD
ENDBRANCH   1  13
TORSDOF 2
ENDMDL
MODEL 5
REMARK VINA RESULT:      -7.7      8.989     12.084
REMARK  Name = 68602
REMARK  2 active torsions:
REMARK  status: ('A' for Active; 'I' for Inactive)
REMARK    1  A    between atoms: C_1  and  C_3
REMARK    2  A    between atoms: C_1  and  C_13
REMARK                            x       y       z     vdW  Elec       q    Type
REMARK                         _______ _______ _______ _____ _____    ______ ____
ROOT
ATOM      1  C   UNL     1      32.022  -7.800 -21.466  0.00  0.00    +0.059 C 
ATOM      2  C   UNL     1      32.583  -7.415 -20.074  0.00  0.00    +0.011 C 
ENDROOT
BRANCH   1   3
ATOM      3  C   UNL     1      32.857  -7.385 -22.632  0.00  0.00    -0.021 C 
ATOM      4  C   UNL     1      32.366  -6.497 -23.589  0.00  0.00    -0.029 C 
ATOM      5  C   UNL     1      33.166  -6.123 -24.670  0.00  0.00    -0.026 C 
ATOM      6  C   UNL     1      34.148  -7.900 -22.756  0.00  0.00    -0.004 C 
ATOM      7  C   UNL     1      30.982  -5.946 -23.458  0.00  0.00    +0.030 C 
ATOM      8  C   UNL     1      34.456  -6.639 -24.793  0.00  0.00    -0.005 C 
ATOM      9  C   UNL     1      34.947  -7.527 -23.836  0.00  0.00    -0.001 C 
ATOM     10  C   UNL     1      32.665  -5.175 -25.709  0.00  0.00    +0.031 C 
ENDBRANCH   1   3
BRANCH   1  13
ATOM     11  N   UNL     1      31.706 -10.008 -20.355  0.00  0.00    -0.318 N 
ATOM     12  N   UNL     1      31.076 -11.349 -22.008  0.00  0.00    -0.315 N 
ATOM     13  C   UNL     1      31.666  -9.291 -21.480  0.00  0.00    +0.041 C 
ATOM     14  C   UNL     1      31.289 -10.081 -22.486  0.00  0.00    +0.069 C 
ATOM     15  C   UNL     1      31.337 -11.272 -20.723  0.00  0.00    +0.182 C 
ATOM     16  H   UNL     1      31.950  -9.694 -19.455  0.00  0.00    +0.148 HD
ATOM     17  H   UNL     1      30.792 -12.143 -22.517  0.00  0.00    +0.148 HD
ENDBRANCH   1  13
TORSDOF 2
ENDMDL
MODEL 6
REMARK VINA RESULT:      -7.6      0.821      2.114
REMARK  Name = 68602
REMARK  2 active torsions:
REMARK  status: ('A' for Active; 'I' for Inactive)
REMARK    1  A    between atoms: C_1  and  C_3
REMARK    2  A    between atoms: C_1  and  C_13
REMARK                            x       y       z     vdW  Elec       q    Type
REMARK                         _______ _______ _______ _____ _____    ______ ____
ROOT
ATOM      1  C   UNL     1      35.584 -17.929 -21.683  0.00  0.00    +0.059 C 
ATOM      2  C   UNL     1      34.816 -16.767 -21.007  0.00  0.00    +0.011 C 
ENDROOT
BRANCH   1   3
ATOM      3  C   UNL     1      35.611 -19.212 -20.920  0.00  0.00    -0.021 C 
ATOM      4  C   UNL     1      34.428 -19.847 -20.537  0.00  0.00    -0.029 C 
ATOM      5  C   UNL     1      34.480 -21.046 -19.824  0.00  0.00    -0.026 C 
ATOM      6  C   UNL     1      36.844 -19.775 -20.590  0.00  0.00    -0.004 C 
ATOM      7  C   UNL     1      33.107 -19.242 -20.889  0.00  0.00    +0.030 C 
ATOM      8  C   UNL     1      35.713 -21.608 -19.494  0.00  0.00    -0.005 C 
ATOM      9  C   UNL     1      36.894 -20.973 -19.877  0.00  0.00    -0.001 C 
ATOM     10  C   UNL     1      33.230 -21.746 -19.402  0.00  0.00    +0.031 C 
ENDBRANCH   1   3
BRANCH   1  13
ATOM     11  N   UNL     1      34.686 -17.040 -23.830  0.00  0.00    -0.318 N 
ATOM     12  N   UNL     1      34.494 -18.841 -25.114  0.00  0.00    -0.315 N 
ATOM     13  C   UNL     1      35.093 -18.097 -23.126  0.00  0.00    +0.041 C 
ATOM     14  C   UNL     1      34.985 -19.191 -23.882  0.00  0.00    +0.069 C 
ATOM     15  C   UNL     1      34.324 -17.540 -25.050  0.00  0.00    +0.182 C 
ATOM     16  H   UNL     1      34.653 -16.101 -23.534  0.00  0.00    +0.148 HD
ATOM     17  H   UNL     1      34.310 -19.435 -25.877  0.00  0.00    +0.148 HD
ENDBRANCH   1  13
TORSDOF 2
ENDMDL
MODEL 7
REMARK VINA RESULT:      -7.5      1.370      2.324
REMARK  Name = 68602
REMARK  2 active torsions:
REMARK  status: ('A' for Active; 'I' for Inactive)
REMARK    1  A    between atoms: C_1  and  C_3
REMARK    2  A    between atoms: C_1  and  C_13
REMARK                            x       y       z     vdW  Elec       q    Type
REMARK                         _______ _______ _______ _____ _____    ______ ____
ROOT
ATOM      1  C   UNL     1      34.483 -18.332 -22.466  0.00  0.00    +0.059 C 
ATOM      2  C   UNL     1      35.649 -18.524 -23.468  0.00  0.00    +0.011 C 
ENDROOT
BRANCH   1   3
ATOM      3  C   UNL     1      34.364 -19.381 -21.410  0.00  0.00    -0.021 C 
ATOM      4  C   UNL     1      35.492 -19.869 -20.750  0.00  0.00    -0.029 C 
ATOM      5  C   UNL     1      35.354 -20.849 -19.766  0.00  0.00    -0.026 C 
ATOM      6  C   UNL     1      33.099 -19.872 -21.086  0.00  0.00    -0.004 C 
ATOM      7  C   UNL     1      36.848 -19.344 -21.098  0.00  0.00    +0.030 C 
ATOM      8  C   UNL     1      34.089 -21.340 -19.443  0.00  0.00    -0.005 C 
ATOM      9  C   UNL     1      32.962 -20.852 -20.103  0.00  0.00    -0.001 C 
ATOM     10  C   UNL     1      36.545 -21.389 -19.044  0.00  0.00    +0.031 C 
ENDBRANCH   1   3
BRANCH   1  13
ATOM     11  N   UNL     1      34.523 -15.853 -22.716  0.00  0.00    -0.318 N 
ATOM     12  N   UNL     1      34.588 -15.109 -20.626  0.00  0.00    -0.315 N 
ATOM     13  C   UNL     1      34.524 -16.908 -21.899  0.00  0.00    +0.041 C 
ATOM     14  C   UNL     1      34.563 -16.480 -20.637  0.00  0.00    +0.069 C 
ATOM     15  C   UNL     1      34.563 -14.763 -21.893  0.00  0.00    +0.182 C 
ATOM     16  H   UNL     1      34.498 -15.860 -23.700  0.00  0.00    +0.148 HD
ATOM     17  H   UNL     1      34.618 -14.515 -19.841  0.00  0.00    +0.148 HD
ENDBRANCH   1  13
TORSDOF 2
ENDMDL
MODEL 8
REMARK VINA RESULT:      -7.4      8.093     10.991
REMARK  Name = 68602
REMARK  2 active torsions:
REMARK  status: ('A' for Active; 'I' for Inactive)
REMARK    1  A    between atoms: C_1  and  C_3
REMARK    2  A    between atoms: C_1  and  C_13
REMARK                            x       y       z     vdW  Elec       q    Type
REMARK                         _______ _______ _______ _____ _____    ______ ____
ROOT
ATOM      1  C   UNL     1      31.493 -10.077 -22.519  0.00  0.00    +0.059 C 
ATOM      2  C   UNL     1      30.894 -11.130 -21.552  0.00  0.00    +0.011 C 
ENDROOT
BRANCH   1   3
ATOM      3  C   UNL     1      31.771  -8.739 -21.919  0.00  0.00    -0.021 C 
ATOM      4  C   UNL     1      31.462  -7.564 -22.605  0.00  0.00    -0.029 C 
ATOM      5  C   UNL     1      31.731  -6.325 -22.021  0.00  0.00    -0.026 C 
ATOM      6  C   UNL     1      32.350  -8.675 -20.650  0.00  0.00    -0.004 C 
ATOM      7  C   UNL     1      30.844  -7.632 -23.964  0.00  0.00    +0.030 C 
ATOM      8  C   UNL     1      32.310  -6.261 -20.754  0.00  0.00    -0.005 C 
ATOM      9  C   UNL     1      32.619  -7.436 -20.069  0.00  0.00    -0.001 C 
ATOM     10  C   UNL     1      31.411  -5.052 -22.734  0.00  0.00    +0.031 C 
ENDBRANCH   1   3
BRANCH   1  13
ATOM     11  N   UNL     1      32.858 -12.000 -23.324  0.00  0.00    -0.318 N 
ATOM     12  N   UNL     1      34.568 -11.039 -24.364  0.00  0.00    -0.315 N 
ATOM     13  C   UNL     1      32.704 -10.677 -23.242  0.00  0.00    +0.041 C 
ATOM     14  C   UNL     1      33.723 -10.081 -23.863  0.00  0.00    +0.069 C 
ATOM     15  C   UNL     1      34.019 -12.182 -24.022  0.00  0.00    +0.182 C 
ATOM     16  H   UNL     1      32.263 -12.694 -22.960  0.00  0.00    +0.148 HD
ATOM     17  H   UNL     1      35.402 -10.899 -24.868  0.00  0.00    +0.148 HD
ENDBRANCH   1  13
TORSDOF 2
ENDMDL
MODEL 9
REMARK VINA RESULT:      -7.4      2.398      5.311
REMARK  Name = 68602
REMARK  2 active torsions:
REMARK  status: ('A' for Active; 'I' for Inactive)
REMARK    1  A    between atoms: C_1  and  C_3
REMARK    2  A    between atoms: C_1  and  C_13
REMARK                            x       y       z     vdW  Elec       q    Type
REMARK                         _______ _______ _______ _____ _____    ______ ____
ROOT
ATOM      1  C   UNL     1      35.490 -18.361 -22.648  0.00  0.00    +0.059 C 
ATOM      2  C   UNL     1      34.633 -19.102 -23.705  0.00  0.00    +0.011 C 
ENDROOT
BRANCH   1   3
ATOM      3  C   UNL     1      35.006 -17.002 -22.266  0.00  0.00    -0.021 C 
ATOM      4  C   UNL     1      34.694 -16.049 -23.237  0.00  0.00    -0.029 C 
ATOM      5  C   UNL     1      34.242 -14.786 -22.854  0.00  0.00    -0.026 C 
ATOM      6  C   UNL     1      34.866 -16.691 -20.913  0.00  0.00    -0.004 C 
ATOM      7  C   UNL     1      34.846 -16.381 -24.687  0.00  0.00    +0.030 C 
ATOM      8  C   UNL     1      34.103 -14.475 -21.501  0.00  0.00    -0.005 C 
ATOM      9  C   UNL     1      34.414 -15.427 -20.531  0.00  0.00    -0.001 C 
ATOM     10  C   UNL     1      33.902 -13.748 -23.873  0.00  0.00    +0.031 C 
ENDBRANCH   1   3
BRANCH   1  13
ATOM     11  N   UNL     1      34.761 -20.103 -21.023  0.00  0.00    -0.318 N 
ATOM     12  N   UNL     1      36.528 -20.376 -19.707  0.00  0.00    -0.315 N 
ATOM     13  C   UNL     1      35.723 -19.279 -21.442  0.00  0.00    +0.041 C 
ATOM     14  C   UNL     1      36.795 -19.430 -20.663  0.00  0.00    +0.069 C 
ATOM     15  C   UNL     1      35.296 -20.761 -19.951  0.00  0.00    +0.182 C 
ATOM     16  H   UNL     1      33.860 -20.213 -21.403  0.00  0.00    +0.148 HD
ATOM     17  H   UNL     1      37.129 -20.696 -18.995  0.00  0.00    +0.148 HD
ENDBRANCH   1  13
TORSDOF 2
ENDMDL
