MODEL 1
REMARK VINA RESULT:      -7.7      0.000      0.000
REMARK  Name = 5430
REMARK  1 active torsions:
REMARK  status: ('A' for Active; 'I' for Inactive)
REMARK    1  A    between atoms: C_5  and  C_14
REMARK                            x       y       z     vdW  Elec       q    Type
REMARK                         _______ _______ _______ _____ _____    ______ ____
ROOT
ATOM      1  N   UNL     1      33.658 -19.271 -21.287  0.00  0.00    -0.314 N 
ATOM      2  N   UNL     1      35.871 -19.065 -21.294  0.00  0.00    -0.314 N 
ATOM      3  C   UNL     1      34.119 -20.258 -20.453  0.00  0.00    +0.059 C 
ATOM      4  C   UNL     1      35.504 -20.108 -20.475  0.00  0.00    +0.059 C 
ATOM      5  C   UNL     1      34.740 -18.587 -21.764  0.00  0.00    +0.182 C 
ATOM      6  C   UNL     1      33.466 -21.237 -19.706  0.00  0.00    +0.016 C 
ATOM      7  C   UNL     1      36.298 -20.980 -19.711  0.00  0.00    +0.016 C 
ATOM      8  C   UNL     1      34.272 -22.096 -18.950  0.00  0.00    +0.001 C 
ATOM      9  C   UNL     1      35.664 -21.971 -18.953  0.00  0.00    +0.001 C 
ATOM     10  H   UNL     1      32.715 -19.089 -21.503  0.00  0.00    +0.149 HD
ATOM     11  H   UNL     1      36.782 -18.748 -21.488  0.00  0.00    +0.149 HD
ENDROOT
BRANCH   5  14
ATOM     12  S   UNL     1      34.388 -15.098 -23.614  0.00  0.00    -0.108 S 
ATOM     13  N   UNL     1      34.738 -17.619 -24.062  0.00  0.00    -0.263 NA
ATOM     14  C   UNL     1      34.643 -17.448 -22.694  0.00  0.00    +0.080 C 
ATOM     15  C   UNL     1      34.453 -16.151 -22.262  0.00  0.00    +0.104 C 
ATOM     16  C   UNL     1      34.618 -16.448 -24.646  0.00  0.00    +0.183 C 
ENDBRANCH   5  14
TORSDOF 1
ENDMDL
MODEL 2
REMARK VINA RESULT:      -7.7      2.618      5.639
REMARK  Name = 5430
REMARK  1 active torsions:
REMARK  status: ('A' for Active; 'I' for Inactive)
REMARK    1  A    between atoms: C_5  and  C_14
REMARK                            x       y       z     vdW  Elec       q    Type
REMARK                         _______ _______ _______ _____ _____    ______ ____
ROOT
ATOM      1  N   UNL     1      34.806 -19.611 -22.543  0.00  0.00    -0.314 N 
ATOM      2  N   UNL     1      34.961 -18.108 -20.914  0.00  0.00    -0.314 N 
ATOM      3  C   UNL     1      34.789 -18.390 -23.169  0.00  0.00    +0.059 C 
ATOM      4  C   UNL     1      34.886 -17.468 -22.130  0.00  0.00    +0.059 C 
ATOM      5  C   UNL     1      34.911 -19.389 -21.199  0.00  0.00    +0.182 C 
ATOM      6  C   UNL     1      34.698 -18.025 -24.512  0.00  0.00    +0.016 C 
ATOM      7  C   UNL     1      34.895 -16.096 -22.431  0.00  0.00    +0.016 C 
ATOM      8  C   UNL     1      34.710 -16.654 -24.794  0.00  0.00    +0.001 C 
ATOM      9  C   UNL     1      34.806 -15.706 -23.773  0.00  0.00    +0.001 C 
ATOM     10  H   UNL     1      34.753 -20.489 -22.985  0.00  0.00    +0.149 HD
ATOM     11  H   UNL     1      35.035 -17.694 -20.023  0.00  0.00    +0.149 HD
ENDROOT
BRANCH   5  14
ATOM     12  S   UNL     1      34.280 -22.368 -18.659  0.00  0.00    -0.108 S 
ATOM     13  N   UNL     1      36.131 -20.789 -19.535  0.00  0.00    -0.263 NA
ATOM     14  C   UNL     1      34.960 -20.467 -20.194  0.00  0.00    +0.080 C 
ATOM     15  C   UNL     1      33.851 -21.214 -19.853  0.00  0.00    +0.104 C 
ATOM     16  C   UNL     1      35.891 -21.777 -18.702  0.00  0.00    +0.183 C 
ENDBRANCH   5  14
TORSDOF 1
ENDMDL
MODEL 3
REMARK VINA RESULT:      -7.7      0.160      1.562
REMARK  Name = 5430
REMARK  1 active torsions:
REMARK  status: ('A' for Active; 'I' for Inactive)
REMARK    1  A    between atoms: C_5  and  C_14
REMARK                            x       y       z     vdW  Elec       q    Type
REMARK                         _______ _______ _______ _____ _____    ______ ____
ROOT
ATOM      1  N   UNL     1      35.894 -19.128 -21.299  0.00  0.00    -0.314 N 
ATOM      2  N   UNL     1      33.682 -19.325 -21.377  0.00  0.00    -0.314 N 
ATOM      3  C   UNL     1      35.588 -20.153 -20.440  0.00  0.00    +0.059 C 
ATOM      4  C   UNL     1      34.200 -20.255 -20.506  0.00  0.00    +0.059 C 
ATOM      5  C   UNL     1      34.724 -18.668 -21.834  0.00  0.00    +0.182 C 
ATOM      6  C   UNL     1      36.380 -20.972 -19.635  0.00  0.00    +0.016 C 
ATOM      7  C   UNL     1      33.548 -21.228 -19.730  0.00  0.00    +0.016 C 
ATOM      8  C   UNL     1      35.714 -21.936 -18.870  0.00  0.00    +0.001 C 
ATOM      9  C   UNL     1      34.323 -22.062 -18.914  0.00  0.00    +0.001 C 
ATOM     10  H   UNL     1      36.796 -18.787 -21.495  0.00  0.00    +0.149 HD
ATOM     11  H   UNL     1      32.735 -19.182 -21.607  0.00  0.00    +0.149 HD
ENDROOT
BRANCH   5  14
ATOM     12  S   UNL     1      34.341 -15.260 -23.824  0.00  0.00    -0.108 S 
ATOM     13  N   UNL     1      34.888 -17.765 -24.153  0.00  0.00    -0.263 NA
ATOM     14  C   UNL     1      34.649 -17.563 -22.807  0.00  0.00    +0.080 C 
ATOM     15  C   UNL     1      34.338 -16.270 -22.438  0.00  0.00    +0.104 C 
ATOM     16  C   UNL     1      34.754 -16.620 -24.784  0.00  0.00    +0.183 C 
ENDBRANCH   5  14
TORSDOF 1
ENDMDL
MODEL 4
REMARK VINA RESULT:      -7.6      2.608      5.670
REMARK  Name = 5430
REMARK  1 active torsions:
REMARK  status: ('A' for Active; 'I' for Inactive)
REMARK    1  A    between atoms: C_5  and  C_14
REMARK                            x       y       z     vdW  Elec       q    Type
REMARK                         _______ _______ _______ _____ _____    ______ ____
ROOT
ATOM      1  N   UNL     1      35.041 -18.034 -20.946  0.00  0.00    -0.314 N 
ATOM      2  N   UNL     1      34.893 -19.595 -22.521  0.00  0.00    -0.314 N 
ATOM      3  C   UNL     1      34.924 -17.349 -22.129  0.00  0.00    +0.059 C 
ATOM      4  C   UNL     1      34.834 -18.347 -23.097  0.00  0.00    +0.059 C 
ATOM      5  C   UNL     1      35.017 -19.370 -21.232  0.00  0.00    +0.182 C 
ATOM      6  C   UNL     1      34.891 -15.987 -22.426  0.00  0.00    +0.016 C 
ATOM      7  C   UNL     1      34.703 -17.979 -24.447  0.00  0.00    +0.016 C 
ATOM      8  C   UNL     1      34.759 -15.639 -23.774  0.00  0.00    +0.001 C 
ATOM      9  C   UNL     1      34.667 -16.617 -24.769  0.00  0.00    +0.001 C 
ATOM     10  H   UNL     1      35.126 -17.633 -20.051  0.00  0.00    +0.149 HD
ATOM     11  H   UNL     1      34.853 -20.467 -22.976  0.00  0.00    +0.149 HD
ENDROOT
BRANCH   5  14
ATOM     12  S   UNL     1      34.525 -22.315 -18.623  0.00  0.00    -0.108 S 
ATOM     13  N   UNL     1      36.314 -20.711 -19.578  0.00  0.00    -0.263 NA
ATOM     14  C   UNL     1      35.119 -20.427 -20.210  0.00  0.00    +0.080 C 
ATOM     15  C   UNL     1      34.037 -21.193 -19.825  0.00  0.00    +0.104 C 
ATOM     16  C   UNL     1      36.120 -21.689 -18.722  0.00  0.00    +0.183 C 
ENDBRANCH   5  14
TORSDOF 1
ENDMDL
MODEL 5
REMARK VINA RESULT:      -7.4      9.166     10.456
REMARK  Name = 5430
REMARK  1 active torsions:
REMARK  status: ('A' for Active; 'I' for Inactive)
REMARK    1  A    between atoms: C_5  and  C_14
REMARK                            x       y       z     vdW  Elec       q    Type
REMARK                         _______ _______ _______ _____ _____    ______ ____
ROOT
ATOM      1  N   UNL     1      32.466 -25.193 -13.776  0.00  0.00    -0.314 N 
ATOM      2  N   UNL     1      32.648 -22.990 -14.007  0.00  0.00    -0.314 N 
ATOM      3  C   UNL     1      31.280 -24.785 -14.331  0.00  0.00    +0.059 C 
ATOM      4  C   UNL     1      31.418 -23.405 -14.465  0.00  0.00    +0.059 C 
ATOM      5  C   UNL     1      33.249 -24.086 -13.603  0.00  0.00    +0.182 C 
ATOM      6  C   UNL     1      30.134 -25.481 -14.715  0.00  0.00    +0.016 C 
ATOM      7  C   UNL     1      30.359 -22.661 -15.012  0.00  0.00    +0.016 C 
ATOM      8  C   UNL     1      29.090 -24.725 -15.258  0.00  0.00    +0.001 C 
ATOM      9  C   UNL     1      29.198 -23.340 -15.404  0.00  0.00    +0.001 C 
ATOM     10  H   UNL     1      32.710 -26.118 -13.546  0.00  0.00    +0.149 HD
ATOM     11  H   UNL     1      33.000 -22.070 -13.987  0.00  0.00    +0.149 HD
ENDROOT
BRANCH   5  14
ATOM     12  S   UNL     1      37.104 -23.818 -12.717  0.00  0.00    -0.108 S 
ATOM     13  N   UNL     1      34.857 -24.710 -11.802  0.00  0.00    -0.263 NA
ATOM     14  C   UNL     1      34.606 -24.126 -13.029  0.00  0.00    +0.080 C 
ATOM     15  C   UNL     1      35.701 -23.589 -13.675  0.00  0.00    +0.104 C 
ATOM     16  C   UNL     1      36.140 -24.605 -11.536  0.00  0.00    +0.183 C 
ENDBRANCH   5  14
TORSDOF 1
ENDMDL
MODEL 6
REMARK VINA RESULT:      -7.3      6.277      9.610
REMARK  Name = 5430
REMARK  1 active torsions:
REMARK  status: ('A' for Active; 'I' for Inactive)
REMARK    1  A    between atoms: C_5  and  C_14
REMARK                            x       y       z     vdW  Elec       q    Type
REMARK                         _______ _______ _______ _____ _____    ______ ____
ROOT
ATOM      1  N   UNL     1      32.741 -11.188 -23.255  0.00  0.00    -0.314 N 
ATOM      2  N   UNL     1      34.604 -10.961 -24.445  0.00  0.00    -0.314 N 
ATOM      3  C   UNL     1      33.062  -9.856 -23.182  0.00  0.00    +0.059 C 
ATOM      4  C   UNL     1      34.230  -9.741 -23.933  0.00  0.00    +0.059 C 
ATOM      5  C   UNL     1      33.691 -11.805 -24.020  0.00  0.00    +0.182 C 
ATOM      6  C   UNL     1      32.451  -8.777 -22.543  0.00  0.00    +0.016 C 
ATOM      7  C   UNL     1      34.836  -8.480 -24.064  0.00  0.00    +0.016 C 
ATOM      8  C   UNL     1      33.068  -7.529 -22.686  0.00  0.00    +0.001 C 
ATOM      9  C   UNL     1      34.241  -7.382 -23.432  0.00  0.00    +0.001 C 
ATOM     10  H   UNL     1      31.965 -11.621 -22.832  0.00  0.00    +0.149 HD
ATOM     11  H   UNL     1      35.388 -11.160 -25.008  0.00  0.00    +0.149 HD
ENDROOT
BRANCH   5  14
ATOM     12  S   UNL     1      33.986 -15.757 -24.129  0.00  0.00    -0.108 S 
ATOM     13  N   UNL     1      33.211 -13.729 -25.532  0.00  0.00    -0.263 NA
ATOM     14  C   UNL     1      33.684 -13.247 -24.327  0.00  0.00    +0.080 C 
ATOM     15  C   UNL     1      34.145 -14.196 -23.437  0.00  0.00    +0.104 C 
ATOM     16  C   UNL     1      33.322 -15.039 -25.538  0.00  0.00    +0.183 C 
ENDBRANCH   5  14
TORSDOF 1
ENDMDL
MODEL 7
REMARK VINA RESULT:      -7.3      6.238      9.705
REMARK  Name = 5430
REMARK  1 active torsions:
REMARK  status: ('A' for Active; 'I' for Inactive)
REMARK    1  A    between atoms: C_5  and  C_14
REMARK                            x       y       z     vdW  Elec       q    Type
REMARK                         _______ _______ _______ _____ _____    ______ ____
ROOT
ATOM      1  N   UNL     1      34.591 -10.936 -24.380  0.00  0.00    -0.314 N 
ATOM      2  N   UNL     1      32.719 -11.235 -23.221  0.00  0.00    -0.314 N 
ATOM      3  C   UNL     1      34.251  -9.693 -23.909  0.00  0.00    +0.059 C 
ATOM      4  C   UNL     1      33.078  -9.907 -23.189  0.00  0.00    +0.059 C 
ATOM      5  C   UNL     1      33.648 -11.822 -23.942  0.00  0.00    +0.182 C 
ATOM      6  C   UNL     1      34.848  -8.441 -24.047  0.00  0.00    +0.016 C 
ATOM      7  C   UNL     1      32.451  -8.816 -22.563  0.00  0.00    +0.016 C 
ATOM      8  C   UNL     1      34.211  -7.366 -23.417  0.00  0.00    +0.001 C 
ATOM      9  C   UNL     1      33.033  -7.549 -22.689  0.00  0.00    +0.001 C 
ATOM     10  H   UNL     1      35.377 -11.150 -24.934  0.00  0.00    +0.149 HD
ATOM     11  H   UNL     1      31.936 -11.654 -22.796  0.00  0.00    +0.149 HD
ENDROOT
BRANCH   5  14
ATOM     12  S   UNL     1      34.059 -15.764 -24.059  0.00  0.00    -0.108 S 
ATOM     13  N   UNL     1      33.180 -13.761 -25.438  0.00  0.00    -0.263 NA
ATOM     14  C   UNL     1      33.675 -13.264 -24.248  0.00  0.00    +0.080 C 
ATOM     15  C   UNL     1      34.192 -14.197 -23.374  0.00  0.00    +0.104 C 
ATOM     16  C   UNL     1      33.329 -15.067 -25.447  0.00  0.00    +0.183 C 
ENDBRANCH   5  14
TORSDOF 1
ENDMDL
MODEL 8
REMARK VINA RESULT:      -7.3      4.110      5.772
REMARK  Name = 5430
REMARK  1 active torsions:
REMARK  status: ('A' for Active; 'I' for Inactive)
REMARK    1  A    between atoms: C_5  and  C_14
REMARK                            x       y       z     vdW  Elec       q    Type
REMARK                         _______ _______ _______ _____ _____    ______ ____
ROOT
ATOM      1  N   UNL     1      34.438 -14.701 -22.696  0.00  0.00    -0.314 N 
ATOM      2  N   UNL     1      33.532 -14.709 -24.726  0.00  0.00    -0.314 N 
ATOM      3  C   UNL     1      34.662 -15.961 -23.191  0.00  0.00    +0.059 C 
ATOM      4  C   UNL     1      34.086 -15.940 -24.460  0.00  0.00    +0.059 C 
ATOM      5  C   UNL     1      33.762 -13.992 -23.649  0.00  0.00    +0.182 C 
ATOM      6  C   UNL     1      35.298 -17.081 -22.656  0.00  0.00    +0.016 C 
ATOM      7  C   UNL     1      34.139 -17.098 -25.254  0.00  0.00    +0.016 C 
ATOM      8  C   UNL     1      35.341 -18.225 -23.461  0.00  0.00    +0.001 C 
ATOM      9  C   UNL     1      34.772 -18.235 -24.736  0.00  0.00    +0.001 C 
ATOM     10  H   UNL     1      34.717 -14.368 -21.813  0.00  0.00    +0.149 HD
ATOM     11  H   UNL     1      33.064 -14.427 -25.545  0.00  0.00    +0.149 HD
ENDROOT
BRANCH   5  14
ATOM     12  S   UNL     1      33.169 -10.073 -23.750  0.00  0.00    -0.108 S 
ATOM     13  N   UNL     1      32.366 -12.229 -22.571  0.00  0.00    -0.263 NA
ATOM     14  C   UNL     1      33.343 -12.589 -23.480  0.00  0.00    +0.080 C 
ATOM     15  C   UNL     1      33.894 -11.557 -24.211  0.00  0.00    +0.104 C 
ATOM     16  C   UNL     1      32.192 -10.928 -22.628  0.00  0.00    +0.183 C 
ENDBRANCH   5  14
TORSDOF 1
ENDMDL
MODEL 9
REMARK VINA RESULT:      -7.2      4.061      5.623
REMARK  Name = 5430
REMARK  1 active torsions:
REMARK  status: ('A' for Active; 'I' for Inactive)
REMARK    1  A    between atoms: C_5  and  C_14
REMARK                            x       y       z     vdW  Elec       q    Type
REMARK                         _______ _______ _______ _____ _____    ______ ____
ROOT
ATOM      1  N   UNL     1      33.580 -14.817 -24.691  0.00  0.00    -0.314 N 
ATOM      2  N   UNL     1      34.473 -14.713 -22.658  0.00  0.00    -0.314 N 
ATOM      3  C   UNL     1      34.122 -16.057 -24.465  0.00  0.00    +0.059 C 
ATOM      4  C   UNL     1      34.674 -15.966 -23.190  0.00  0.00    +0.059 C 
ATOM      5  C   UNL     1      33.815 -14.051 -23.584  0.00  0.00    +0.182 C 
ATOM      6  C   UNL     1      34.175 -17.214 -25.243  0.00  0.00    +0.016 C 
ATOM      7  C   UNL     1      35.322 -17.086 -22.643  0.00  0.00    +0.016 C 
ATOM      8  C   UNL     1      34.823 -18.320 -24.682  0.00  0.00    +0.001 C 
ATOM      9  C   UNL     1      35.387 -18.259 -23.406  0.00  0.00    +0.001 C 
ATOM     10  H   UNL     1      33.106 -14.532 -25.505  0.00  0.00    +0.149 HD
ATOM     11  H   UNL     1      34.762 -14.383 -21.777  0.00  0.00    +0.149 HD
ENDROOT
BRANCH   5  14
ATOM     12  S   UNL     1      33.193 -10.140 -23.769  0.00  0.00    -0.108 S 
ATOM     13  N   UNL     1      32.370 -12.284 -22.581  0.00  0.00    -0.263 NA
ATOM     14  C   UNL     1      33.379 -12.650 -23.451  0.00  0.00    +0.080 C 
ATOM     15  C   UNL     1      33.945 -11.625 -24.182  0.00  0.00    +0.104 C 
ATOM     16  C   UNL     1      32.187 -10.985 -22.665  0.00  0.00    +0.183 C 
ENDBRANCH   5  14
TORSDOF 1
ENDMDL
