MODEL 1
REMARK VINA RESULT:      -8.4      0.000      0.000
REMARK  Name = 151115
REMARK  3 active torsions:
REMARK  status: ('A' for Active; 'I' for Inactive)
REMARK    1  A    between atoms: C_9  and  N_29
REMARK    2  A    between atoms: C_19  and  O_33
REMARK    3  A    between atoms: C_19  and  C_35
REMARK                            x       y       z     vdW  Elec       q    Type
REMARK                         _______ _______ _______ _____ _____    ______ ____
ROOT
ATOM      1  F   UNL     1      35.482  -8.296 -25.986  0.00  0.00    -0.204 F 
ATOM      2  O   UNL     1      33.819 -19.453 -22.051  0.00  0.00    -0.442 OA
ATOM      3  O   UNL     1      31.764 -16.221 -20.250  0.00  0.00    -0.270 OA
ATOM      4  O   UNL     1      34.901 -20.115 -23.903  0.00  0.00    -0.247 OA
ATOM      5  N   UNL     1      32.770 -14.712 -21.686  0.00  0.00    -0.249 N 
ATOM      6  N   UNL     1      34.380 -12.377 -23.891  0.00  0.00    -0.405 NA
ATOM      7  C   UNL     1      32.397 -11.099 -22.310  0.00  0.00    -0.054 C 
ATOM      8  C   UNL     1      32.650 -12.452 -22.186  0.00  0.00    +0.020 C 
ATOM      9  C   UNL     1      31.364 -10.410 -21.446  0.00  0.00    -0.046 C 
ATOM     10  C   UNL     1      33.163 -10.369 -23.251  0.00  0.00    +0.087 C 
ATOM     11  C   UNL     1      32.036 -13.491 -21.300  0.00  0.00    +0.127 C 
ATOM     12  C   UNL     1      33.630 -13.021 -22.988  0.00  0.00    +0.142 C 
ATOM     13  C   UNL     1      30.819  -9.165 -22.165  0.00  0.00    -0.014 C 
ATOM     14  C   UNL     1      33.701 -14.441 -22.673  0.00  0.00    +0.084 C 
ATOM     15  C   UNL     1      32.969  -8.982 -23.441  0.00  0.00    -0.036 C 
ATOM     16  C   UNL     1      31.938  -8.233 -22.632  0.00  0.00    +0.021 C 
ATOM     17  C   UNL     1      34.352 -16.754 -22.675  0.00  0.00    +0.017 C 
ATOM     18  C   UNL     1      34.149 -11.057 -24.018  0.00  0.00    +0.118 C 
ATOM     19  C   UNL     1      35.258 -17.831 -23.208  0.00  0.00    +0.196 C 
ATOM     20  C   UNL     1      33.464 -17.042 -21.707  0.00  0.00    +0.074 C 
ATOM     21  C   UNL     1      34.488 -15.395 -23.175  0.00  0.00    +0.016 C 
ATOM     22  C   UNL     1      32.578 -15.967 -21.135  0.00  0.00    +0.252 C 
ATOM     23  C   UNL     1      33.760  -8.282 -24.357  0.00  0.00    -0.002 C 
ATOM     24  C   UNL     1      33.341 -18.423 -21.159  0.00  0.00    +0.239 C 
ATOM     25  C   UNL     1      34.903 -10.328 -24.930  0.00  0.00    +0.057 C 
ATOM     26  C   UNL     1      34.721  -8.956 -25.101  0.00  0.00    +0.138 C 
ATOM     27  C   UNL     1      34.639 -19.221 -23.101  0.00  0.00    +0.346 C 
ATOM     28  C   UNL     1      33.613  -6.809 -24.560  0.00  0.00    +0.033 C 
ENDROOT
BRANCH   9  29
ATOM     29  N   UNL     1      31.931 -10.039 -20.148  0.00  0.00    +0.384 N 
ATOM     30  H   UNL     1      32.469  -9.177 -20.245  0.00  0.00    -0.089 HD
ATOM     31  H   UNL     1      32.544 -10.786 -19.818  0.00  0.00    -0.089 HD
ATOM     32  H   UNL     1      31.178  -9.896 -19.475  0.00  0.00    -0.089 HD
ENDBRANCH   9  29
BRANCH  19  33
ATOM     33  O   UNL     1      35.464 -17.637 -24.608  0.00  0.00    -0.373 OA
ATOM     34  H   UNL     1      34.663 -17.889 -25.093  0.00  0.00    +0.211 HD
ENDBRANCH  19  33
BRANCH  19  35
ATOM     35  C   UNL     1      36.614 -17.827 -22.500  0.00  0.00    +0.042 C 
ATOM     36  C   UNL     1      36.652 -18.843 -21.376  0.00  0.00    +0.003 C 
ENDBRANCH  19  35
TORSDOF 3
ENDMDL
MODEL 2
REMARK VINA RESULT:      -8.3      5.557      9.919
REMARK  Name = 151115
REMARK  3 active torsions:
REMARK  status: ('A' for Active; 'I' for Inactive)
REMARK    1  A    between atoms: C_9  and  N_29
REMARK    2  A    between atoms: C_19  and  O_33
REMARK    3  A    between atoms: C_19  and  C_35
REMARK                            x       y       z     vdW  Elec       q    Type
REMARK                         _______ _______ _______ _____ _____    ______ ____
ROOT
ATOM      1  F   UNL     1      34.367 -13.770 -25.751  0.00  0.00    -0.204 F 
ATOM      2  O   UNL     1      31.996  -2.168 -24.165  0.00  0.00    -0.442 OA
ATOM      3  O   UNL     1      30.621  -5.034 -21.371  0.00  0.00    -0.270 OA
ATOM      4  O   UNL     1      33.497  -1.786 -25.789  0.00  0.00    -0.247 OA
ATOM      5  N   UNL     1      31.574  -6.755 -22.586  0.00  0.00    -0.249 N 
ATOM      6  N   UNL     1      33.019  -9.421 -24.514  0.00  0.00    -0.405 NA
ATOM      7  C   UNL     1      31.989 -10.378 -22.046  0.00  0.00    -0.054 C 
ATOM      8  C   UNL     1      31.905  -9.041 -22.387  0.00  0.00    +0.020 C 
ATOM      9  C   UNL     1      31.412 -10.895 -20.747  0.00  0.00    -0.046 C 
ATOM     10  C   UNL     1      32.603 -11.256 -22.971  0.00  0.00    +0.087 C 
ATOM     11  C   UNL     1      31.323  -7.872 -21.654  0.00  0.00    +0.127 C 
ATOM     12  C   UNL     1      32.429  -8.632 -23.606  0.00  0.00    +0.142 C 
ATOM     13  C   UNL     1      32.156 -12.165 -20.307  0.00  0.00    -0.014 C 
ATOM     14  C   UNL     1      32.221  -7.196 -23.727  0.00  0.00    +0.084 C 
ATOM     15  C   UNL     1      32.730 -12.638 -22.700  0.00  0.00    -0.036 C 
ATOM     16  C   UNL     1      32.200 -13.220 -21.413  0.00  0.00    +0.021 C 
ATOM     17  C   UNL     1      32.219  -4.949 -24.581  0.00  0.00    +0.017 C 
ATOM     18  C   UNL     1      33.101 -10.726 -24.197  0.00  0.00    +0.118 C 
ATOM     19  C   UNL     1      32.548  -4.003 -25.703  0.00  0.00    +0.196 C 
ATOM     20  C   UNL     1      31.578  -4.497 -23.488  0.00  0.00    +0.074 C 
ATOM     21  C   UNL     1      32.546  -6.360 -24.716  0.00  0.00    +0.016 C 
ATOM     22  C   UNL     1      31.206  -5.438 -22.372  0.00  0.00    +0.252 C 
ATOM     23  C   UNL     1      33.315 -13.486 -23.645  0.00  0.00    -0.002 C 
ATOM     24  C   UNL     1      31.203  -3.061 -23.353  0.00  0.00    +0.239 C 
ATOM     25  C   UNL     1      33.692 -11.601 -25.103  0.00  0.00    +0.057 C 
ATOM     26  C   UNL     1      33.799 -12.967 -24.840  0.00  0.00    +0.138 C 
ATOM     27  C   UNL     1      32.738  -2.569 -25.222  0.00  0.00    +0.346 C 
ATOM     28  C   UNL     1      33.434 -14.958 -23.415  0.00  0.00    +0.033 C 
ENDROOT
BRANCH   9  29
ATOM     29  N   UNL     1      29.979 -11.166 -20.882  0.00  0.00    +0.384 N 
ATOM     30  H   UNL     1      29.729 -11.971 -20.306  0.00  0.00    -0.089 HD
ATOM     31  H   UNL     1      29.761 -11.368 -21.858  0.00  0.00    -0.089 HD
ATOM     32  H   UNL     1      29.448 -10.351 -20.576  0.00  0.00    -0.089 HD
ENDBRANCH   9  29
BRANCH  19  33
ATOM     33  O   UNL     1      33.807  -4.359 -26.278  0.00  0.00    -0.373 OA
ATOM     34  H   UNL     1      34.229  -5.044 -25.738  0.00  0.00    +0.211 HD
ENDBRANCH  19  33
BRANCH  19  35
ATOM     35  C   UNL     1      31.477  -4.031 -26.796  0.00  0.00    +0.042 C 
ATOM     36  C   UNL     1      32.057  -3.656 -28.145  0.00  0.00    +0.003 C 
ENDBRANCH  19  35
TORSDOF 3
ENDMDL
MODEL 3
REMARK VINA RESULT:      -7.8      7.621     10.827
REMARK  Name = 151115
REMARK  3 active torsions:
REMARK  status: ('A' for Active; 'I' for Inactive)
REMARK    1  A    between atoms: C_9  and  N_29
REMARK    2  A    between atoms: C_19  and  O_33
REMARK    3  A    between atoms: C_19  and  C_35
REMARK                            x       y       z     vdW  Elec       q    Type
REMARK                         _______ _______ _______ _____ _____    ______ ____
ROOT
ATOM      1  F   UNL     1      38.364 -18.368 -22.125  0.00  0.00    -0.204 F 
ATOM      2  O   UNL     1      36.279 -25.755 -12.970  0.00  0.00    -0.442 OA
ATOM      3  O   UNL     1      33.068 -24.261 -15.288  0.00  0.00    -0.270 OA
ATOM      4  O   UNL     1      38.491 -26.135 -12.958  0.00  0.00    -0.247 OA
ATOM      5  N   UNL     1      34.523 -23.062 -16.627  0.00  0.00    -0.249 N 
ATOM      6  N   UNL     1      36.794 -21.167 -18.667  0.00  0.00    -0.405 NA
ATOM      7  C   UNL     1      34.145 -21.039 -19.685  0.00  0.00    -0.054 C 
ATOM      8  C   UNL     1      34.440 -21.761 -18.544  0.00  0.00    +0.020 C 
ATOM      9  C   UNL     1      32.730 -20.942 -20.210  0.00  0.00    -0.046 C 
ATOM     10  C   UNL     1      35.209 -20.362 -20.329  0.00  0.00    +0.087 C 
ATOM     11  C   UNL     1      33.565 -22.570 -17.638  0.00  0.00    +0.127 C 
ATOM     12  C   UNL     1      35.754 -21.788 -18.096  0.00  0.00    +0.142 C 
ATOM     13  C   UNL     1      32.745 -20.685 -21.726  0.00  0.00    -0.014 C 
ATOM     14  C   UNL     1      35.803 -22.608 -16.894  0.00  0.00    +0.084 C 
ATOM     15  C   UNL     1      34.994 -19.601 -21.502  0.00  0.00    -0.036 C 
ATOM     16  C   UNL     1      33.613 -19.481 -22.097  0.00  0.00    +0.021 C 
ATOM     17  C   UNL     1      36.606 -23.773 -14.951  0.00  0.00    +0.017 C 
ATOM     18  C   UNL     1      36.520 -20.455 -19.776  0.00  0.00    +0.118 C 
ATOM     19  C   UNL     1      37.754 -24.106 -14.038  0.00  0.00    +0.196 C 
ATOM     20  C   UNL     1      35.369 -24.217 -14.662  0.00  0.00    +0.074 C 
ATOM     21  C   UNL     1      36.835 -22.922 -16.108  0.00  0.00    +0.016 C 
ATOM     22  C   UNL     1      34.201 -23.860 -15.544  0.00  0.00    +0.252 C 
ATOM     23  C   UNL     1      36.059 -18.920 -22.099  0.00  0.00    -0.002 C 
ATOM     24  C   UNL     1      35.113 -25.057 -13.458  0.00  0.00    +0.239 C 
ATOM     25  C   UNL     1      37.554 -19.776 -20.411  0.00  0.00    +0.057 C 
ATOM     26  C   UNL     1      37.335 -19.012 -21.557  0.00  0.00    +0.138 C 
ATOM     27  C   UNL     1      37.549 -25.420 -13.295  0.00  0.00    +0.346 C 
ATOM     28  C   UNL     1      35.868 -18.075 -23.317  0.00  0.00    +0.033 C 
ENDROOT
BRANCH   9  29
ATOM     29  N   UNL     1      31.987 -19.884 -19.522  0.00  0.00    +0.384 N 
ATOM     30  H   UNL     1      31.349 -20.302 -18.844  0.00  0.00    -0.089 HD
ATOM     31  H   UNL     1      31.452 -19.345 -20.204  0.00  0.00    -0.089 HD
ATOM     32  H   UNL     1      32.641 -19.268 -19.039  0.00  0.00    -0.089 HD
ENDBRANCH   9  29
BRANCH  19  33
ATOM     33  O   UNL     1      38.939 -24.312 -14.811  0.00  0.00    -0.373 OA
ATOM     34  H   UNL     1      38.910 -23.755 -15.605  0.00  0.00    +0.211 HD
ENDBRANCH  19  33
BRANCH  19  35
ATOM     35  C   UNL     1      38.011 -22.988 -13.025  0.00  0.00    +0.042 C 
ATOM     36  C   UNL     1      37.422 -23.327 -11.670  0.00  0.00    +0.003 C 
ENDBRANCH  19  35
TORSDOF 3
ENDMDL
MODEL 4
REMARK VINA RESULT:      -7.7      3.882      8.221
REMARK  Name = 151115
REMARK  3 active torsions:
REMARK  status: ('A' for Active; 'I' for Inactive)
REMARK    1  A    between atoms: C_9  and  N_29
REMARK    2  A    between atoms: C_19  and  O_33
REMARK    3  A    between atoms: C_19  and  C_35
REMARK                            x       y       z     vdW  Elec       q    Type
REMARK                         _______ _______ _______ _____ _____    ______ ____
ROOT
ATOM      1  F   UNL     1      35.275 -17.325 -26.491  0.00  0.00    -0.204 F 
ATOM      2  O   UNL     1      31.882  -7.241 -21.054  0.00  0.00    -0.442 OA
ATOM      3  O   UNL     1      31.374 -10.981 -19.138  0.00  0.00    -0.270 OA
ATOM      4  O   UNL     1      33.015  -6.161 -22.663  0.00  0.00    -0.247 OA
ATOM      5  N   UNL     1      32.290 -12.092 -20.947  0.00  0.00    -0.249 N 
ATOM      6  N   UNL     1      33.669 -13.807 -23.787  0.00  0.00    -0.405 NA
ATOM      7  C   UNL     1      33.216 -15.595 -21.627  0.00  0.00    -0.054 C 
ATOM      8  C   UNL     1      32.916 -14.250 -21.519  0.00  0.00    +0.020 C 
ATOM      9  C   UNL     1      32.944 -16.554 -20.489  0.00  0.00    -0.046 C 
ATOM     10  C   UNL     1      33.754 -16.053 -22.854  0.00  0.00    +0.087 C 
ATOM     11  C   UNL     1      32.342 -13.457 -20.386  0.00  0.00    +0.127 C 
ATOM     12  C   UNL     1      33.163 -13.425 -22.608  0.00  0.00    +0.142 C 
ATOM     13  C   UNL     1      33.899 -17.756 -20.573  0.00  0.00    -0.014 C 
ATOM     14  C   UNL     1      32.770 -12.070 -22.245  0.00  0.00    +0.084 C 
ATOM     15  C   UNL     1      34.088 -17.413 -23.049  0.00  0.00    -0.036 C 
ATOM     16  C   UNL     1      33.868 -18.423 -21.949  0.00  0.00    +0.021 C 
ATOM     17  C   UNL     1      32.352  -9.706 -22.345  0.00  0.00    +0.017 C 
ATOM     18  C   UNL     1      33.959 -15.116 -23.909  0.00  0.00    +0.118 C 
ATOM     19  C   UNL     1      32.362  -8.434 -23.148  0.00  0.00    +0.196 C 
ATOM     20  C   UNL     1      31.868  -9.702 -21.089  0.00  0.00    +0.074 C 
ATOM     21  C   UNL     1      32.813 -10.942 -22.957  0.00  0.00    +0.016 C 
ATOM     22  C   UNL     1      31.814 -10.975 -20.285  0.00  0.00    +0.252 C 
ATOM     23  C   UNL     1      34.590 -17.842 -24.281  0.00  0.00    -0.002 C 
ATOM     24  C   UNL     1      31.357  -8.450 -20.463  0.00  0.00    +0.239 C 
ATOM     25  C   UNL     1      34.477 -15.580 -25.113  0.00  0.00    +0.057 C 
ATOM     26  C   UNL     1      34.788 -16.926 -25.307  0.00  0.00    +0.138 C 
ATOM     27  C   UNL     1      32.465  -7.190 -22.273  0.00  0.00    +0.346 C 
ATOM     28  C   UNL     1      34.920 -19.276 -24.540  0.00  0.00    +0.033 C 
ENDROOT
BRANCH   9  29
ATOM     29  N   UNL     1      31.552 -17.009 -20.509  0.00  0.00    +0.384 N 
ATOM     30  H   UNL     1      31.516 -18.004 -20.283  0.00  0.00    -0.089 HD
ATOM     31  H   UNL     1      31.158 -16.858 -21.438  0.00  0.00    -0.089 HD
ATOM     32  H   UNL     1      31.013 -16.484 -19.822  0.00  0.00    -0.089 HD
ENDBRANCH   9  29
BRANCH  19  33
ATOM     33  O   UNL     1      33.531  -8.394 -23.970  0.00  0.00    -0.373 OA
ATOM     34  H   UNL     1      33.860  -9.295 -24.112  0.00  0.00    +0.211 HD
ENDBRANCH  19  33
BRANCH  19  35
ATOM     35  C   UNL     1      31.124  -8.322 -24.041  0.00  0.00    +0.042 C 
ATOM     36  C   UNL     1      30.868  -6.884 -24.449  0.00  0.00    +0.003 C 
ENDBRANCH  19  35
TORSDOF 3
ENDMDL
MODEL 5
REMARK VINA RESULT:      -7.6      2.204      3.851
REMARK  Name = 151115
REMARK  3 active torsions:
REMARK  status: ('A' for Active; 'I' for Inactive)
REMARK    1  A    between atoms: C_9  and  N_29
REMARK    2  A    between atoms: C_19  and  O_33
REMARK    3  A    between atoms: C_19  and  C_35
REMARK                            x       y       z     vdW  Elec       q    Type
REMARK                         _______ _______ _______ _____ _____    ______ ____
ROOT
ATOM      1  F   UNL     1      31.133  -9.932 -19.134  0.00  0.00    -0.204 F 
ATOM      2  O   UNL     1      35.602 -20.322 -22.984  0.00  0.00    -0.442 OA
ATOM      3  O   UNL     1      35.254 -17.032 -25.624  0.00  0.00    -0.270 OA
ATOM      4  O   UNL     1      35.705 -20.915 -20.822  0.00  0.00    -0.247 OA
ATOM      5  N   UNL     1      34.358 -15.714 -23.949  0.00  0.00    -0.249 N 
ATOM      6  N   UNL     1      32.920 -13.696 -21.348  0.00  0.00    -0.405 NA
ATOM      7  C   UNL     1      33.408 -12.162 -23.687  0.00  0.00    -0.054 C 
ATOM      8  C   UNL     1      33.713 -13.509 -23.637  0.00  0.00    +0.020 C 
ATOM      9  C   UNL     1      33.637 -11.351 -24.944  0.00  0.00    -0.046 C 
ATOM     10  C   UNL     1      32.840 -11.572 -22.532  0.00  0.00    +0.087 C 
ATOM     11  C   UNL     1      34.306 -14.423 -24.664  0.00  0.00    +0.127 C 
ATOM     12  C   UNL     1      33.454 -14.206 -22.465  0.00  0.00    +0.142 C 
ATOM     13  C   UNL     1      33.849  -9.871 -24.585  0.00  0.00    -0.014 C 
ATOM     14  C   UNL     1      33.862 -15.589 -22.663  0.00  0.00    +0.084 C 
ATOM     15  C   UNL     1      32.498 -10.200 -22.500  0.00  0.00    -0.036 C 
ATOM     16  C   UNL     1      32.722  -9.324 -23.707  0.00  0.00    +0.021 C 
ATOM     17  C   UNL     1      34.286 -17.925 -22.288  0.00  0.00    +0.017 C 
ATOM     18  C   UNL     1      32.612 -12.386 -21.385  0.00  0.00    +0.118 C 
ATOM     19  C   UNL     1      34.195 -19.114 -21.372  0.00  0.00    +0.196 C 
ATOM     20  C   UNL     1      34.761 -18.076 -23.538  0.00  0.00    +0.074 C 
ATOM     21  C   UNL     1      33.804 -16.631 -21.831  0.00  0.00    +0.016 C 
ATOM     22  C   UNL     1      34.823 -16.904 -24.481  0.00  0.00    +0.252 C 
ATOM     23  C   UNL     1      31.912  -9.652 -21.355  0.00  0.00    -0.002 C 
ATOM     24  C   UNL     1      35.222 -19.404 -24.033  0.00  0.00    +0.239 C 
ATOM     25  C   UNL     1      32.042 -11.798 -20.261  0.00  0.00    +0.057 C 
ATOM     26  C   UNL     1      31.690 -10.449 -20.239  0.00  0.00    +0.138 C 
ATOM     27  C   UNL     1      35.238 -20.179 -21.689  0.00  0.00    +0.346 C 
ATOM     28  C   UNL     1      31.501  -8.216 -21.292  0.00  0.00    +0.033 C 
ENDROOT
BRANCH   9  29
ATOM     29  N   UNL     1      32.513 -11.494 -25.871  0.00  0.00    +0.384 N 
ATOM     30  H   UNL     1      31.713 -11.891 -25.378  0.00  0.00    -0.089 HD
ATOM     31  H   UNL     1      32.780 -12.112 -26.637  0.00  0.00    -0.089 HD
ATOM     32  H   UNL     1      32.262 -10.579 -26.245  0.00  0.00    -0.089 HD
ENDBRANCH   9  29
BRANCH  19  33
ATOM     33  O   UNL     1      34.487 -18.713 -20.032  0.00  0.00    -0.373 OA
ATOM     34  H   UNL     1      33.714 -18.872 -19.469  0.00  0.00    +0.211 HD
ENDBRANCH  19  33
BRANCH  19  35
ATOM     35  C   UNL     1      32.802 -19.747 -21.407  0.00  0.00    +0.042 C 
ATOM     36  C   UNL     1      32.513 -20.516 -20.133  0.00  0.00    +0.003 C 
ENDBRANCH  19  35
TORSDOF 3
ENDMDL
MODEL 6
REMARK VINA RESULT:      -6.2      4.348      8.657
REMARK  Name = 151115
REMARK  3 active torsions:
REMARK  status: ('A' for Active; 'I' for Inactive)
REMARK    1  A    between atoms: C_9  and  N_29
REMARK    2  A    between atoms: C_19  and  O_33
REMARK    3  A    between atoms: C_19  and  C_35
REMARK                            x       y       z     vdW  Elec       q    Type
REMARK                         _______ _______ _______ _____ _____    ______ ____
ROOT
ATOM      1  F   UNL     1      33.901 -15.331 -27.192  0.00  0.00    -0.204 F 
ATOM      2  O   UNL     1      31.840  -5.220 -21.171  0.00  0.00    -0.442 OA
ATOM      3  O   UNL     1      31.894  -8.939 -19.152  0.00  0.00    -0.270 OA
ATOM      4  O   UNL     1      32.510  -4.147 -23.025  0.00  0.00    -0.247 OA
ATOM      5  N   UNL     1      32.338 -10.063 -21.123  0.00  0.00    -0.249 N 
ATOM      6  N   UNL     1      32.978 -11.798 -24.204  0.00  0.00    -0.405 NA
ATOM      7  C   UNL     1      33.116 -13.563 -21.982  0.00  0.00    -0.054 C 
ATOM      8  C   UNL     1      32.833 -12.220 -21.815  0.00  0.00    +0.020 C 
ATOM      9  C   UNL     1      33.158 -14.510 -20.804  0.00  0.00    -0.046 C 
ATOM     10  C   UNL     1      33.332 -14.030 -23.301  0.00  0.00    +0.087 C 
ATOM     11  C   UNL     1      32.553 -11.420 -20.581  0.00  0.00    +0.127 C 
ATOM     12  C   UNL     1      32.782 -11.407 -22.938  0.00  0.00    +0.142 C 
ATOM     13  C   UNL     1      34.079 -15.700 -21.115  0.00  0.00    -0.014 C 
ATOM     14  C   UNL     1      32.473 -10.053 -22.501  0.00  0.00    +0.084 C 
ATOM     15  C   UNL     1      33.627 -15.389 -23.561  0.00  0.00    -0.036 C 
ATOM     16  C   UNL     1      33.710 -16.386 -22.431  0.00  0.00    +0.021 C 
ATOM     17  C   UNL     1      32.006  -7.695 -22.514  0.00  0.00    +0.017 C 
ATOM     18  C   UNL     1      33.249 -13.105 -24.382  0.00  0.00    +0.118 C 
ATOM     19  C   UNL     1      31.792  -6.434 -23.306  0.00  0.00    +0.196 C 
ATOM     20  C   UNL     1      31.857  -7.681 -21.177  0.00  0.00    +0.074 C 
ATOM     21  C   UNL     1      32.316  -8.934 -23.211  0.00  0.00    +0.016 C 
ATOM     22  C   UNL     1      32.029  -8.943 -20.373  0.00  0.00    +0.252 C 
ATOM     23  C   UNL     1      33.808 -15.827 -24.876  0.00  0.00    -0.002 C 
ATOM     24  C   UNL     1      31.501  -6.427 -20.454  0.00  0.00    +0.239 C 
ATOM     25  C   UNL     1      33.451 -13.578 -25.674  0.00  0.00    +0.057 C 
ATOM     26  C   UNL     1      33.724 -14.923 -25.927  0.00  0.00    +0.138 C 
ATOM     27  C   UNL     1      32.094  -5.178 -22.498  0.00  0.00    +0.346 C 
ATOM     28  C   UNL     1      34.084 -17.261 -25.197  0.00  0.00    +0.033 C 
ENDROOT
BRANCH   9  29
ATOM     29  N   UNL     1      31.814 -14.983 -20.465  0.00  0.00    +0.384 N 
ATOM     30  H   UNL     1      31.128 -14.506 -21.051  0.00  0.00    -0.089 HD
ATOM     31  H   UNL     1      31.619 -14.781 -19.483  0.00  0.00    -0.089 HD
ATOM     32  H   UNL     1      31.757 -15.989 -20.623  0.00  0.00    -0.089 HD
ENDBRANCH   9  29
BRANCH  19  33
ATOM     33  O   UNL     1      32.713  -6.390 -24.398  0.00  0.00    -0.373 OA
ATOM     34  H   UNL     1      32.474  -7.064 -25.052  0.00  0.00    +0.211 HD
ENDBRANCH  19  33
BRANCH  19  35
ATOM     35  C   UNL     1      30.367  -6.350 -23.856  0.00  0.00    +0.042 C 
ATOM     36  C   UNL     1      30.229  -5.220 -24.857  0.00  0.00    +0.003 C 
ENDBRANCH  19  35
TORSDOF 3
ENDMDL
