MODEL 1
REMARK VINA RESULT:      -4.4      0.000      0.000
REMARK  Name = 5950
REMARK  3 active torsions:
REMARK  status: ('A' for Active; 'I' for Inactive)
REMARK    1  A    between atoms: CA_1  and  N_3
REMARK    2  A    between atoms: CA_1  and  C_8
REMARK    3  A    between atoms: C_8  and  O_9
REMARK                            x       y       z     vdW  Elec       q    Type
REMARK                         _______ _______ _______ _____ _____    ______ ____
ROOT
ATOM      1  CA  ALA A   1      39.097 -25.156 -14.275  0.00  0.00    +0.036 C 
ATOM      2  CB  ALA A   1      38.544 -25.665 -12.951  0.00  0.00    -0.013 C 
ENDROOT
BRANCH   1   3
ATOM      3  N   ALA A   1      38.079 -25.284 -15.317  0.00  0.00    +0.389 N 
ATOM      4  H1  ALA A   1      37.221 -25.656 -14.909  0.00  0.00    -0.088 HD
ATOM      5  H2  ALA A   1      38.413 -25.918 -16.043  0.00  0.00    -0.088 HD
ATOM      6  H3  ALA A   1      37.893 -24.368 -15.725  0.00  0.00    -0.088 HD
ENDBRANCH   1   3
BRANCH   1   8
ATOM      7  OXT ALA A   1      41.074 -26.562 -13.959  0.00  0.00    -0.253 OA
ATOM      8  C   ALA A   1      40.307 -25.962 -14.699  0.00  0.00    +0.293 C 
BRANCH   8   9
ATOM      9  O   ALA A   1      40.436 -25.946 -16.051  0.00  0.00    -0.482 OA
ATOM     10  H   ALA A   1      39.760 -25.574 -16.582  0.00  0.00    +0.295 HD
ENDBRANCH   8   9
ENDBRANCH   1   8
TORSDOF 3
ENDMDL
MODEL 2
REMARK VINA RESULT:      -4.2     10.810     11.184
REMARK  Name = 5950
REMARK  3 active torsions:
REMARK  status: ('A' for Active; 'I' for Inactive)
REMARK    1  A    between atoms: CA_1  and  N_3
REMARK    2  A    between atoms: CA_1  and  C_8
REMARK    3  A    between atoms: C_8  and  O_9
REMARK                            x       y       z     vdW  Elec       q    Type
REMARK                         _______ _______ _______ _____ _____    ______ ____
ROOT
ATOM      1  CA  ALA A   1      41.086 -14.366 -16.370  0.00  0.00    +0.036 C 
ATOM      2  CB  ALA A   1      41.367 -14.432 -17.864  0.00  0.00    -0.013 C 
ENDROOT
BRANCH   1   3
ATOM      3  N   ALA A   1      42.031 -13.452 -15.730  0.00  0.00    +0.389 N 
ATOM      4  H1  ALA A   1      42.425 -12.825 -16.431  0.00  0.00    -0.088 HD
ATOM      5  H2  ALA A   1      42.781 -13.989 -15.293  0.00  0.00    -0.088 HD
ATOM      6  H3  ALA A   1      41.546 -12.905 -15.018  0.00  0.00    -0.088 HD
ENDBRANCH   1   3
BRANCH   1   8
ATOM      7  OXT ALA A   1      42.269 -16.401 -15.701  0.00  0.00    -0.253 OA
ATOM      8  C   ALA A   1      41.247 -15.730 -15.731  0.00  0.00    +0.293 C 
BRANCH   8   9
ATOM      9  O   ALA A   1      40.077 -16.128 -15.165  0.00  0.00    -0.482 OA
ATOM     10  H   ALA A   1      39.591 -15.534 -14.629  0.00  0.00    +0.295 HD
ENDBRANCH   8   9
ENDBRANCH   1   8
TORSDOF 3
ENDMDL
MODEL 3
REMARK VINA RESULT:      -4.0      2.920      3.123
REMARK  Name = 5950
REMARK  3 active torsions:
REMARK  status: ('A' for Active; 'I' for Inactive)
REMARK    1  A    between atoms: CA_1  and  N_3
REMARK    2  A    between atoms: CA_1  and  C_8
REMARK    3  A    between atoms: C_8  and  O_9
REMARK                            x       y       z     vdW  Elec       q    Type
REMARK                         _______ _______ _______ _____ _____    ______ ____
ROOT
ATOM      1  CA  ALA A   1      36.439 -25.414 -14.912  0.00  0.00    +0.036 C 
ATOM      2  CB  ALA A   1      37.326 -24.185 -15.054  0.00  0.00    -0.013 C 
ENDROOT
BRANCH   1   3
ATOM      3  N   ALA A   1      35.935 -25.503 -13.543  0.00  0.00    +0.389 N 
ATOM      4  H1  ALA A   1      34.954 -25.221 -13.523  0.00  0.00    -0.088 HD
ATOM      5  H2  ALA A   1      36.478 -24.885 -12.939  0.00  0.00    -0.088 HD
ATOM      6  H3  ALA A   1      36.020 -26.464 -13.211  0.00  0.00    -0.088 HD
ENDBRANCH   1   3
BRANCH   1   8
ATOM      7  OXT ALA A   1      38.151 -27.125 -14.554  0.00  0.00    -0.253 OA
ATOM      8  C   ALA A   1      37.219 -26.678 -15.208  0.00  0.00    +0.293 C 
BRANCH   8   9
ATOM      9  O   ALA A   1      36.733 -27.284 -16.323  0.00  0.00    -0.482 OA
ATOM     10  H   ALA A   1      36.778 -26.847 -17.151  0.00  0.00    +0.295 HD
ENDBRANCH   8   9
ENDBRANCH   1   8
TORSDOF 3
ENDMDL
MODEL 4
REMARK VINA RESULT:      -3.9     11.258     11.733
REMARK  Name = 5950
REMARK  3 active torsions:
REMARK  status: ('A' for Active; 'I' for Inactive)
REMARK    1  A    between atoms: CA_1  and  N_3
REMARK    2  A    between atoms: CA_1  and  C_8
REMARK    3  A    between atoms: C_8  and  O_9
REMARK                            x       y       z     vdW  Elec       q    Type
REMARK                         _______ _______ _______ _____ _____    ______ ____
ROOT
ATOM      1  CA  ALA A   1      29.065 -23.138 -15.822  0.00  0.00    +0.036 C 
ATOM      2  CB  ALA A   1      30.483 -22.944 -16.340  0.00  0.00    -0.013 C 
ENDROOT
BRANCH   1   3
ATOM      3  N   ALA A   1      28.863 -24.538 -15.450  0.00  0.00    +0.389 N 
ATOM      4  H1  ALA A   1      29.026 -24.650 -14.449  0.00  0.00    -0.088 HD
ATOM      5  H2  ALA A   1      29.516 -25.125 -15.969  0.00  0.00    -0.088 HD
ATOM      6  H3  ALA A   1      27.906 -24.814 -15.673  0.00  0.00    -0.088 HD
ENDBRANCH   1   3
BRANCH   1   8
ATOM      7  OXT ALA A   1      27.600 -21.671 -17.122  0.00  0.00    -0.253 OA
ATOM      8  C   ALA A   1      28.050 -22.785 -16.889  0.00  0.00    +0.293 C 
BRANCH   8   9
ATOM      9  O   ALA A   1      27.693 -23.893 -17.589  0.00  0.00    -0.482 OA
ATOM     10  H   ALA A   1      28.290 -24.610 -17.666  0.00  0.00    +0.295 HD
ENDBRANCH   8   9
ENDBRANCH   1   8
TORSDOF 3
ENDMDL
MODEL 5
REMARK VINA RESULT:      -3.9      2.982      3.347
REMARK  Name = 5950
REMARK  3 active torsions:
REMARK  status: ('A' for Active; 'I' for Inactive)
REMARK    1  A    between atoms: CA_1  and  N_3
REMARK    2  A    between atoms: CA_1  and  C_8
REMARK    3  A    between atoms: C_8  and  O_9
REMARK                            x       y       z     vdW  Elec       q    Type
REMARK                         _______ _______ _______ _____ _____    ______ ____
ROOT
ATOM      1  CA  ALA A   1      37.971 -26.126 -14.636  0.00  0.00    +0.036 C 
ATOM      2  CB  ALA A   1      37.726 -26.019 -13.137  0.00  0.00    -0.013 C 
ENDROOT
BRANCH   1   3
ATOM      3  N   ALA A   1      38.311 -24.810 -15.176  0.00  0.00    +0.389 N 
ATOM      4  H1  ALA A   1      39.163 -24.470 -14.731  0.00  0.00    -0.088 HD
ATOM      5  H2  ALA A   1      37.547 -24.159 -14.990  0.00  0.00    -0.088 HD
ATOM      6  H3  ALA A   1      38.458 -24.883 -16.183  0.00  0.00    -0.088 HD
ENDBRANCH   1   3
BRANCH   1   8
ATOM      7  OXT ALA A   1      36.696 -27.408 -16.285  0.00  0.00    -0.253 OA
ATOM      8  C   ALA A   1      36.730 -26.620 -15.350  0.00  0.00    +0.293 C 
BRANCH   8   9
ATOM      9  O   ALA A   1      35.616 -26.072 -14.797  0.00  0.00    -0.482 OA
ATOM     10  H   ALA A   1      35.419 -25.167 -14.940  0.00  0.00    +0.295 HD
ENDBRANCH   8   9
ENDBRANCH   1   8
TORSDOF 3
ENDMDL
MODEL 6
REMARK VINA RESULT:      -3.9     10.437     10.803
REMARK  Name = 5950
REMARK  3 active torsions:
REMARK  status: ('A' for Active; 'I' for Inactive)
REMARK    1  A    between atoms: CA_1  and  N_3
REMARK    2  A    between atoms: CA_1  and  C_8
REMARK    3  A    between atoms: C_8  and  O_9
REMARK                            x       y       z     vdW  Elec       q    Type
REMARK                         _______ _______ _______ _____ _____    ______ ____
ROOT
ATOM      1  CA  ALA A   1      42.169 -15.366 -17.599  0.00  0.00    +0.036 C 
ATOM      2  CB  ALA A   1      41.192 -14.287 -18.046  0.00  0.00    -0.013 C 
ENDROOT
BRANCH   1   3
ATOM      3  N   ALA A   1      42.183 -16.454 -18.575  0.00  0.00    +0.389 N 
ATOM      4  H1  ALA A   1      42.982 -17.062 -18.394  0.00  0.00    -0.088 HD
ATOM      5  H2  ALA A   1      42.256 -16.066 -19.516  0.00  0.00    -0.088 HD
ATOM      6  H3  ALA A   1      41.320 -16.993 -18.496  0.00  0.00    -0.088 HD
ENDBRANCH   1   3
BRANCH   1   8
ATOM      7  OXT ALA A   1      42.414 -16.708 -15.568  0.00  0.00    -0.253 OA
ATOM      8  C   ALA A   1      41.758 -15.941 -16.259  0.00  0.00    +0.293 C 
BRANCH   8   9
ATOM      9  O   ALA A   1      40.533 -15.476 -15.901  0.00  0.00    -0.482 OA
ATOM     10  H   ALA A   1      40.122 -15.791 -15.120  0.00  0.00    +0.295 HD
ENDBRANCH   8   9
ENDBRANCH   1   8
TORSDOF 3
ENDMDL
MODEL 7
REMARK VINA RESULT:      -3.8      4.841      5.277
REMARK  Name = 5950
REMARK  3 active torsions:
REMARK  status: ('A' for Active; 'I' for Inactive)
REMARK    1  A    between atoms: CA_1  and  N_3
REMARK    2  A    between atoms: CA_1  and  C_8
REMARK    3  A    between atoms: C_8  and  O_9
REMARK                            x       y       z     vdW  Elec       q    Type
REMARK                         _______ _______ _______ _____ _____    ______ ____
ROOT
ATOM      1  CA  ALA A   1      36.596 -25.109 -12.007  0.00  0.00    +0.036 C 
ATOM      2  CB  ALA A   1      37.855 -24.261 -12.129  0.00  0.00    -0.013 C 
ENDROOT
BRANCH   1   3
ATOM      3  N   ALA A   1      36.016 -25.324 -13.332  0.00  0.00    +0.389 N 
ATOM      4  H1  ALA A   1      36.600 -24.871 -14.036  0.00  0.00    -0.088 HD
ATOM      5  H2  ALA A   1      35.078 -24.925 -13.361  0.00  0.00    -0.088 HD
ATOM      6  H3  ALA A   1      35.967 -26.325 -13.523  0.00  0.00    -0.088 HD
ENDBRANCH   1   3
BRANCH   1   8
ATOM      7  OXT ALA A   1      35.434 -24.523  -9.936  0.00  0.00    -0.253 OA
ATOM      8  C   ALA A   1      35.560 -24.415 -11.148  0.00  0.00    +0.293 C 
BRANCH   8   9
ATOM      9  O   ALA A   1      34.766 -23.621 -11.912  0.00  0.00    -0.482 OA
ATOM     10  H   ALA A   1      35.092 -22.805 -12.235  0.00  0.00    +0.295 HD
ENDBRANCH   8   9
ENDBRANCH   1   8
TORSDOF 3
ENDMDL
MODEL 8
REMARK VINA RESULT:      -3.8      8.068      8.701
REMARK  Name = 5950
REMARK  3 active torsions:
REMARK  status: ('A' for Active; 'I' for Inactive)
REMARK    1  A    between atoms: CA_1  and  N_3
REMARK    2  A    between atoms: CA_1  and  C_8
REMARK    3  A    between atoms: C_8  and  O_9
REMARK                            x       y       z     vdW  Elec       q    Type
REMARK                         _______ _______ _______ _____ _____    ______ ____
ROOT
ATOM      1  CA  ALA A   1      33.555 -21.562 -19.881  0.00  0.00    +0.036 C 
ATOM      2  CB  ALA A   1      32.988 -20.220 -20.320  0.00  0.00    -0.013 C 
ENDROOT
BRANCH   1   3
ATOM      3  N   ALA A   1      32.768 -22.091 -18.768  0.00  0.00    +0.389 N 
ATOM      4  H1  ALA A   1      31.799 -21.787 -18.863  0.00  0.00    -0.088 HD
ATOM      5  H2  ALA A   1      33.149 -21.743 -17.887  0.00  0.00    -0.088 HD
ATOM      6  H3  ALA A   1      32.809 -23.110 -18.777  0.00  0.00    -0.088 HD
ENDBRANCH   1   3
BRANCH   1   8
ATOM      7  OXT ALA A   1      35.759 -20.512 -19.713  0.00  0.00    -0.253 OA
ATOM      8  C   ALA A   1      34.989 -21.415 -19.415  0.00  0.00    +0.293 C 
BRANCH   8   9
ATOM      9  O   ALA A   1      35.324 -22.438 -18.586  0.00  0.00    -0.482 OA
ATOM     10  H   ALA A   1      35.251 -23.323 -18.881  0.00  0.00    +0.295 HD
ENDBRANCH   8   9
ENDBRANCH   1   8
TORSDOF 3
ENDMDL
MODEL 9
REMARK VINA RESULT:      -3.7     14.698     15.350
REMARK  Name = 5950
REMARK  3 active torsions:
REMARK  status: ('A' for Active; 'I' for Inactive)
REMARK    1  A    between atoms: CA_1  and  N_3
REMARK    2  A    between atoms: CA_1  and  C_8
REMARK    3  A    between atoms: C_8  and  O_9
REMARK                            x       y       z     vdW  Elec       q    Type
REMARK                         _______ _______ _______ _____ _____    ______ ____
ROOT
ATOM      1  CA  ALA A   1      34.883 -16.827 -25.094  0.00  0.00    +0.036 C 
ATOM      2  CB  ALA A   1      34.330 -18.244 -25.028  0.00  0.00    -0.013 C 
ENDROOT
BRANCH   1   3
ATOM      3  N   ALA A   1      35.419 -16.445 -23.788  0.00  0.00    +0.389 N 
ATOM      4  H1  ALA A   1      36.321 -16.899 -23.645  0.00  0.00    -0.088 HD
ATOM      5  H2  ALA A   1      34.771 -16.738 -23.057  0.00  0.00    -0.088 HD
ATOM      6  H3  ALA A   1      35.537 -15.433 -23.753  0.00  0.00    -0.088 HD
ENDBRANCH   1   3
BRANCH   1   8
ATOM      7  OXT ALA A   1      33.330 -15.657 -26.580  0.00  0.00    -0.253 OA
ATOM      8  C   ALA A   1      33.795 -15.841 -25.463  0.00  0.00    +0.293 C 
BRANCH   8   9
ATOM      9  O   ALA A   1      33.373 -15.168 -24.360  0.00  0.00    -0.482 OA
ATOM     10  H   ALA A   1      32.719 -14.503 -24.439  0.00  0.00    +0.295 HD
ENDBRANCH   8   9
ENDBRANCH   1   8
TORSDOF 3
ENDMDL
