MODEL 1
REMARK VINA RESULT:      -6.4      0.000      0.000
REMARK  Name = 69532
REMARK  13 active torsions:
REMARK  status: ('A' for Active; 'I' for Inactive)
REMARK    1  A    between atoms: S_1  and  S_2
REMARK    2  A    between atoms: S_1  and  C_15
REMARK    3  A    between atoms: S_2  and  C_3
REMARK    4  A    between atoms: C_3  and  C_4
REMARK    5  A    between atoms: C_4  and  N_6
REMARK    6  A    between atoms: C_7  and  C_9
REMARK    7  A    between atoms: C_9  and  C_10
REMARK    8  A    between atoms: C_10  and  N_11
REMARK    9  A    between atoms: C_15  and  C_16
REMARK   10  A    between atoms: C_16  and  N_18
REMARK   11  A    between atoms: C_19  and  C_21
REMARK   12  A    between atoms: C_21  and  C_22
REMARK   13  A    between atoms: C_22  and  N_23
REMARK                            x       y       z     vdW  Elec       q    Type
REMARK                         _______ _______ _______ _____ _____    ______ ____
ROOT
ATOM      1  S   UNL     1      34.762 -15.732 -23.214  0.00  0.00    -0.080 S 
ENDROOT
BRANCH   1   2
ATOM      2  S   UNL     1      34.326 -16.425 -25.098  0.00  0.00    -0.080 S 
BRANCH   2   3
ATOM      3  C   UNL     1      34.528 -18.220 -24.879  0.00  0.00    +0.090 C 
BRANCH   3   4
ATOM      4  C   UNL     1      35.199 -18.566 -23.555  0.00  0.00    +0.102 C 
BRANCH   4   6
ATOM      5  O   UNL     1      35.242 -18.468 -20.692  0.00  0.00    -0.275 OA
ATOM      6  N   UNL     1      34.337 -19.301 -22.660  0.00  0.00    -0.303 N 
ATOM      7  C   UNL     1      34.437 -19.184 -21.281  0.00  0.00    +0.220 C 
ATOM      8  H   UNL     1      33.657 -19.902 -23.040  0.00  0.00    +0.149 HD
BRANCH   7   9
ATOM      9  C   UNL     1      33.419 -20.058 -20.570  0.00  0.00    +0.061 C 
BRANCH   9  10
ATOM     10  C   UNL     1      34.076 -21.175 -19.766  0.00  0.00    -0.077 C 
BRANCH  10  11
ATOM     11  N   UNL     1      33.088 -22.179 -19.391  0.00  0.00    +0.381 N 
ATOM     12  H   UNL     1      32.496 -22.390 -20.194  0.00  0.00    -0.089 HD
ATOM     13  H   UNL     1      32.512 -21.821 -18.628  0.00  0.00    -0.089 HD
ATOM     14  H   UNL     1      33.564 -23.028 -19.087  0.00  0.00    -0.089 HD
ENDBRANCH  10  11
ENDBRANCH   9  10
ENDBRANCH   7   9
ENDBRANCH   4   6
ENDBRANCH   3   4
ENDBRANCH   2   3
ENDBRANCH   1   2
BRANCH   1  15
ATOM     15  C   UNL     1      34.058 -14.066 -23.263  0.00  0.00    +0.090 C 
BRANCH  15  16
ATOM     16  C   UNL     1      32.538 -14.081 -23.182  0.00  0.00    +0.102 C 
BRANCH  16  18
ATOM     17  O   UNL     1      32.439 -13.482 -20.381  0.00  0.00    -0.275 OA
ATOM     18  N   UNL     1      31.994 -12.892 -22.582  0.00  0.00    -0.303 N 
ATOM     19  C   UNL     1      31.992 -12.691 -21.207  0.00  0.00    +0.220 C 
ATOM     20  H   UNL     1      31.611 -12.198 -23.165  0.00  0.00    +0.149 HD
BRANCH  19  21
ATOM     21  C   UNL     1      31.364 -11.360 -20.831  0.00  0.00    +0.061 C 
BRANCH  21  22
ATOM     22  C   UNL     1      31.468 -11.071 -19.338  0.00  0.00    -0.077 C 
BRANCH  22  23
ATOM     23  N   UNL     1      32.217  -9.842 -19.110  0.00  0.00    +0.381 N 
ATOM     24  H   UNL     1      32.590  -9.842 -18.161  0.00  0.00    -0.089 HD
ATOM     25  H   UNL     1      31.599  -9.039 -19.231  0.00  0.00    -0.089 HD
ATOM     26  H   UNL     1      32.984  -9.782 -19.778  0.00  0.00    -0.089 HD
ENDBRANCH  22  23
ENDBRANCH  21  22
ENDBRANCH  19  21
ENDBRANCH  16  18
ENDBRANCH  15  16
ENDBRANCH   1  15
TORSDOF 13
ENDMDL
MODEL 2
REMARK VINA RESULT:      -6.4      7.105     10.518
REMARK  Name = 69532
REMARK  13 active torsions:
REMARK  status: ('A' for Active; 'I' for Inactive)
REMARK    1  A    between atoms: S_1  and  S_2
REMARK    2  A    between atoms: S_1  and  C_15
REMARK    3  A    between atoms: S_2  and  C_3
REMARK    4  A    between atoms: C_3  and  C_4
REMARK    5  A    between atoms: C_4  and  N_6
REMARK    6  A    between atoms: C_7  and  C_9
REMARK    7  A    between atoms: C_9  and  C_10
REMARK    8  A    between atoms: C_10  and  N_11
REMARK    9  A    between atoms: C_15  and  C_16
REMARK   10  A    between atoms: C_16  and  N_18
REMARK   11  A    between atoms: C_19  and  C_21
REMARK   12  A    between atoms: C_21  and  C_22
REMARK   13  A    between atoms: C_22  and  N_23
REMARK                            x       y       z     vdW  Elec       q    Type
REMARK                         _______ _______ _______ _____ _____    ______ ____
ROOT
ATOM      1  S   UNL     1      31.588 -23.211 -16.319  0.00  0.00    -0.080 S 
ENDROOT
BRANCH   1   2
ATOM      2  S   UNL     1      31.629 -23.328 -14.269  0.00  0.00    -0.080 S 
BRANCH   2   3
ATOM      3  C   UNL     1      32.926 -24.575 -14.003  0.00  0.00    +0.090 C 
BRANCH   3   4
ATOM      4  C   UNL     1      34.019 -24.078 -13.065  0.00  0.00    +0.102 C 
BRANCH   4   6
ATOM      5  O   UNL     1      35.776 -25.070 -11.030  0.00  0.00    -0.275 OA
ATOM      6  N   UNL     1      35.286 -24.738 -13.274  0.00  0.00    -0.303 N 
ATOM      7  C   UNL     1      36.067 -25.184 -12.218  0.00  0.00    +0.220 C 
ATOM      8  H   UNL     1      35.605 -24.877 -14.195  0.00  0.00    +0.149 HD
BRANCH   7   9
ATOM      9  C   UNL     1      37.346 -25.842 -12.705  0.00  0.00    +0.061 C 
BRANCH   9  10
ATOM     10  C   UNL     1      38.519 -24.869 -12.745  0.00  0.00    -0.077 C 
BRANCH  10  11
ATOM     11  N   UNL     1      38.359 -23.840 -11.725  0.00  0.00    +0.381 N 
ATOM     12  H   UNL     1      37.761 -23.096 -12.083  0.00  0.00    -0.089 HD
ATOM     13  H   UNL     1      39.272 -23.456 -11.483  0.00  0.00    -0.089 HD
ATOM     14  H   UNL     1      37.932 -24.249 -10.894  0.00  0.00    -0.089 HD
ENDBRANCH  10  11
ENDBRANCH   9  10
ENDBRANCH   7   9
ENDBRANCH   4   6
ENDBRANCH   3   4
ENDBRANCH   2   3
ENDBRANCH   1   2
BRANCH   1  15
ATOM     15  C   UNL     1      33.351 -23.134 -16.718  0.00  0.00    +0.090 C 
BRANCH  15  16
ATOM     16  C   UNL     1      33.607 -23.245 -18.215  0.00  0.00    +0.102 C 
BRANCH  16  18
ATOM     17  O   UNL     1      35.037 -21.320 -19.785  0.00  0.00    -0.275 OA
ATOM     18  N   UNL     1      33.034 -22.160 -18.966  0.00  0.00    -0.303 N 
ATOM     19  C   UNL     1      33.813 -21.274 -19.701  0.00  0.00    +0.220 C 
ATOM     20  H   UNL     1      32.057 -22.042 -18.960  0.00  0.00    +0.149 HD
BRANCH  19  21
ATOM     21  C   UNL     1      32.968 -20.224 -20.401  0.00  0.00    +0.061 C 
BRANCH  21  22
ATOM     22  C   UNL     1      33.808 -19.078 -20.953  0.00  0.00    -0.077 C 
BRANCH  22  23
ATOM     23  N   UNL     1      34.377 -19.442 -22.244  0.00  0.00    +0.381 N 
ATOM     24  H   UNL     1      34.746 -18.608 -22.701  0.00  0.00    -0.089 HD
ATOM     25  H   UNL     1      33.653 -19.857 -22.830  0.00  0.00    -0.089 HD
ATOM     26  H   UNL     1      35.130 -20.116 -22.107  0.00  0.00    -0.089 HD
ENDBRANCH  22  23
ENDBRANCH  21  22
ENDBRANCH  19  21
ENDBRANCH  16  18
ENDBRANCH  15  16
ENDBRANCH   1  15
TORSDOF 13
ENDMDL
MODEL 3
REMARK VINA RESULT:      -6.3      5.871     11.023
REMARK  Name = 69532
REMARK  13 active torsions:
REMARK  status: ('A' for Active; 'I' for Inactive)
REMARK    1  A    between atoms: S_1  and  S_2
REMARK    2  A    between atoms: S_1  and  C_15
REMARK    3  A    between atoms: S_2  and  C_3
REMARK    4  A    between atoms: C_3  and  C_4
REMARK    5  A    between atoms: C_4  and  N_6
REMARK    6  A    between atoms: C_7  and  C_9
REMARK    7  A    between atoms: C_9  and  C_10
REMARK    8  A    between atoms: C_10  and  N_11
REMARK    9  A    between atoms: C_15  and  C_16
REMARK   10  A    between atoms: C_16  and  N_18
REMARK   11  A    between atoms: C_19  and  C_21
REMARK   12  A    between atoms: C_21  and  C_22
REMARK   13  A    between atoms: C_22  and  N_23
REMARK                            x       y       z     vdW  Elec       q    Type
REMARK                         _______ _______ _______ _____ _____    ______ ____
ROOT
ATOM      1  S   UNL     1      33.314 -23.279 -17.210  0.00  0.00    -0.080 S 
ENDROOT
BRANCH   1   2
ATOM      2  S   UNL     1      34.012 -22.433 -18.947  0.00  0.00    -0.080 S 
BRANCH   2   3
ATOM      3  C   UNL     1      35.690 -21.930 -18.456  0.00  0.00    +0.090 C 
BRANCH   3   4
ATOM      4  C   UNL     1      36.370 -21.079 -19.521  0.00  0.00    +0.102 C 
BRANCH   4   6
ATOM      5  O   UNL     1      36.001 -18.441 -20.578  0.00  0.00    -0.275 OA
ATOM      6  N   UNL     1      35.483 -20.703 -20.596  0.00  0.00    -0.303 N 
ATOM      7  C   UNL     1      35.375 -19.392 -21.037  0.00  0.00    +0.220 C 
ATOM      8  H   UNL     1      34.938 -21.399 -21.029  0.00  0.00    +0.149 HD
BRANCH   7   9
ATOM      9  C   UNL     1      34.378 -19.264 -22.175  0.00  0.00    +0.061 C 
BRANCH   9  10
ATOM     10  C   UNL     1      35.057 -18.981 -23.511  0.00  0.00    -0.077 C 
BRANCH  10  11
ATOM     11  N   UNL     1      35.738 -17.693 -23.470  0.00  0.00    +0.381 N 
ATOM     12  H   UNL     1      36.469 -17.718 -22.759  0.00  0.00    -0.089 HD
ATOM     13  H   UNL     1      35.066 -16.960 -23.243  0.00  0.00    -0.089 HD
ATOM     14  H   UNL     1      36.156 -17.501 -24.381  0.00  0.00    -0.089 HD
ENDBRANCH  10  11
ENDBRANCH   9  10
ENDBRANCH   7   9
ENDBRANCH   4   6
ENDBRANCH   3   4
ENDBRANCH   2   3
ENDBRANCH   1   2
BRANCH   1  15
ATOM     15  C   UNL     1      34.829 -23.411 -16.230  0.00  0.00    +0.090 C 
BRANCH  15  16
ATOM     16  C   UNL     1      34.682 -24.388 -15.072  0.00  0.00    +0.102 C 
BRANCH  16  18
ATOM     17  O   UNL     1      36.113 -26.743 -15.858  0.00  0.00    -0.275 OA
ATOM     18  N   UNL     1      35.945 -24.834 -14.548  0.00  0.00    -0.303 N 
ATOM     19  C   UNL     1      36.564 -25.995 -14.995  0.00  0.00    +0.220 C 
ATOM     20  H   UNL     1      36.385 -24.298 -13.850  0.00  0.00    +0.149 HD
BRANCH  19  21
ATOM     21  C   UNL     1      37.884 -26.242 -14.284  0.00  0.00    +0.061 C 
BRANCH  21  22
ATOM     22  C   UNL     1      38.802 -25.025 -14.329  0.00  0.00    -0.077 C 
BRANCH  22  23
ATOM     23  N   UNL     1      39.584 -25.026 -15.559  0.00  0.00    +0.381 N 
ATOM     24  H   UNL     1      38.996 -25.328 -16.336  0.00  0.00    -0.089 HD
ATOM     25  H   UNL     1      40.372 -25.666 -15.461  0.00  0.00    -0.089 HD
ATOM     26  H   UNL     1      39.932 -24.085 -15.742  0.00  0.00    -0.089 HD
ENDBRANCH  22  23
ENDBRANCH  21  22
ENDBRANCH  19  21
ENDBRANCH  16  18
ENDBRANCH  15  16
ENDBRANCH   1  15
TORSDOF 13
ENDMDL
MODEL 4
REMARK VINA RESULT:      -6.3      7.444      9.599
REMARK  Name = 69532
REMARK  13 active torsions:
REMARK  status: ('A' for Active; 'I' for Inactive)
REMARK    1  A    between atoms: S_1  and  S_2
REMARK    2  A    between atoms: S_1  and  C_15
REMARK    3  A    between atoms: S_2  and  C_3
REMARK    4  A    between atoms: C_3  and  C_4
REMARK    5  A    between atoms: C_4  and  N_6
REMARK    6  A    between atoms: C_7  and  C_9
REMARK    7  A    between atoms: C_9  and  C_10
REMARK    8  A    between atoms: C_10  and  N_11
REMARK    9  A    between atoms: C_15  and  C_16
REMARK   10  A    between atoms: C_16  and  N_18
REMARK   11  A    between atoms: C_19  and  C_21
REMARK   12  A    between atoms: C_21  and  C_22
REMARK   13  A    between atoms: C_22  and  N_23
REMARK                            x       y       z     vdW  Elec       q    Type
REMARK                         _______ _______ _______ _____ _____    ______ ____
ROOT
ATOM      1  S   UNL     1      37.125 -23.226 -15.343  0.00  0.00    -0.080 S 
ENDROOT
BRANCH   1   2
ATOM      2  S   UNL     1      35.561 -24.438 -14.789  0.00  0.00    -0.080 S 
BRANCH   2   3
ATOM      3  C   UNL     1      34.214 -23.785 -15.823  0.00  0.00    +0.090 C 
BRANCH   3   4
ATOM      4  C   UNL     1      33.106 -23.152 -14.991  0.00  0.00    +0.102 C 
BRANCH   4   6
ATOM      5  O   UNL     1      31.053 -22.588 -16.910  0.00  0.00    -0.275 OA
ATOM      6  N   UNL     1      31.842 -23.836 -15.120  0.00  0.00    -0.303 N 
ATOM      7  C   UNL     1      30.910 -23.487 -16.086  0.00  0.00    +0.220 C 
ATOM      8  H   UNL     1      31.635 -24.574 -14.502  0.00  0.00    +0.149 HD
BRANCH   7   9
ATOM      9  C   UNL     1      29.669 -24.359 -16.009  0.00  0.00    +0.061 C 
BRANCH   9  10
ATOM     10  C   UNL     1      28.382 -23.542 -16.082  0.00  0.00    -0.077 C 
BRANCH  10  11
ATOM     11  N   UNL     1      28.139 -23.099 -17.448  0.00  0.00    +0.381 N 
ATOM     12  H   UNL     1      27.136 -23.105 -17.634  0.00  0.00    -0.089 HD
ATOM     13  H   UNL     1      28.609 -23.729 -18.099  0.00  0.00    -0.089 HD
ATOM     14  H   UNL     1      28.502 -22.154 -17.569  0.00  0.00    -0.089 HD
ENDBRANCH  10  11
ENDBRANCH   9  10
ENDBRANCH   7   9
ENDBRANCH   4   6
ENDBRANCH   3   4
ENDBRANCH   2   3
ENDBRANCH   1   2
BRANCH   1  15
ATOM     15  C   UNL     1      36.299 -22.026 -16.415  0.00  0.00    +0.090 C 
BRANCH  15  16
ATOM     16  C   UNL     1      36.964 -21.923 -17.781  0.00  0.00    +0.102 C 
BRANCH  16  18
ATOM     17  O   UNL     1      34.956 -22.749 -19.651  0.00  0.00    -0.275 OA
ATOM     18  N   UNL     1      36.247 -21.074 -18.694  0.00  0.00    -0.303 N 
ATOM     19  C   UNL     1      35.285 -21.569 -19.567  0.00  0.00    +0.220 C 
ATOM     20  H   UNL     1      36.443 -20.109 -18.700  0.00  0.00    +0.149 HD
BRANCH  19  21
ATOM     21  C   UNL     1      34.676 -20.470 -20.420  0.00  0.00    +0.061 C 
BRANCH  21  22
ATOM     22  C   UNL     1      33.154 -20.452 -20.341  0.00  0.00    -0.077 C 
BRANCH  22  23
ATOM     23  N   UNL     1      32.696 -21.224 -19.193  0.00  0.00    +0.381 N 
ATOM     24  H   UNL     1      33.034 -20.789 -18.335  0.00  0.00    -0.089 HD
ATOM     25  H   UNL     1      33.060 -22.175 -19.256  0.00  0.00    -0.089 HD
ATOM     26  H   UNL     1      31.677 -21.250 -19.183  0.00  0.00    -0.089 HD
ENDBRANCH  22  23
ENDBRANCH  21  22
ENDBRANCH  19  21
ENDBRANCH  16  18
ENDBRANCH  15  16
ENDBRANCH   1  15
TORSDOF 13
ENDMDL
MODEL 5
REMARK VINA RESULT:      -6.3      1.884      2.198
REMARK  Name = 69532
REMARK  13 active torsions:
REMARK  status: ('A' for Active; 'I' for Inactive)
REMARK    1  A    between atoms: S_1  and  S_2
REMARK    2  A    between atoms: S_1  and  C_15
REMARK    3  A    between atoms: S_2  and  C_3
REMARK    4  A    between atoms: C_3  and  C_4
REMARK    5  A    between atoms: C_4  and  N_6
REMARK    6  A    between atoms: C_7  and  C_9
REMARK    7  A    between atoms: C_9  and  C_10
REMARK    8  A    between atoms: C_10  and  N_11
REMARK    9  A    between atoms: C_15  and  C_16
REMARK   10  A    between atoms: C_16  and  N_18
REMARK   11  A    between atoms: C_19  and  C_21
REMARK   12  A    between atoms: C_21  and  C_22
REMARK   13  A    between atoms: C_22  and  N_23
REMARK                            x       y       z     vdW  Elec       q    Type
REMARK                         _______ _______ _______ _____ _____    ______ ____
ROOT
ATOM      1  S   UNL     1      34.346 -15.066 -23.150  0.00  0.00    -0.080 S 
ENDROOT
BRANCH   1   2
ATOM      2  S   UNL     1      34.134 -15.722 -21.215  0.00  0.00    -0.080 S 
BRANCH   2   3
ATOM      3  C   UNL     1      35.123 -17.249 -21.241  0.00  0.00    +0.090 C 
BRANCH   3   4
ATOM      4  C   UNL     1      34.254 -18.495 -21.367  0.00  0.00    +0.102 C 
BRANCH   4   6
ATOM      5  O   UNL     1      32.676 -20.648 -20.325  0.00  0.00    -0.275 OA
ATOM      6  N   UNL     1      34.732 -19.599 -20.569  0.00  0.00    -0.303 N 
ATOM      7  C   UNL     1      33.884 -20.596 -20.110  0.00  0.00    +0.220 C 
ATOM      8  H   UNL     1      35.689 -19.645 -20.344  0.00  0.00    +0.149 HD
BRANCH   7   9
ATOM      9  C   UNL     1      34.632 -21.638 -19.296  0.00  0.00    +0.061 C 
BRANCH   9  10
ATOM     10  C   UNL     1      33.789 -22.880 -19.030  0.00  0.00    -0.077 C 
BRANCH  10  11
ATOM     11  N   UNL     1      32.650 -22.548 -18.184  0.00  0.00    +0.381 N 
ATOM     12  H   UNL     1      31.974 -23.311 -18.209  0.00  0.00    -0.089 HD
ATOM     13  H   UNL     1      32.211 -21.692 -18.524  0.00  0.00    -0.089 HD
ATOM     14  H   UNL     1      32.969 -22.407 -17.225  0.00  0.00    -0.089 HD
ENDBRANCH  10  11
ENDBRANCH   9  10
ENDBRANCH   7   9
ENDBRANCH   4   6
ENDBRANCH   3   4
ENDBRANCH   2   3
ENDBRANCH   1   2
BRANCH   1  15
ATOM     15  C   UNL     1      33.804 -13.345 -23.016  0.00  0.00    +0.090 C 
BRANCH  15  16
ATOM     16  C   UNL     1      32.290 -13.211 -23.093  0.00  0.00    +0.102 C 
BRANCH  16  18
ATOM     17  O   UNL     1      31.915 -10.454 -22.407  0.00  0.00    -0.275 OA
ATOM     18  N   UNL     1      31.706 -12.705 -21.880  0.00  0.00    -0.303 N 
ATOM     19  C   UNL     1      31.566 -11.344 -21.637  0.00  0.00    +0.220 C 
ATOM     20  H   UNL     1      31.396 -13.344 -21.199  0.00  0.00    +0.149 HD
BRANCH  19  21
ATOM     21  C   UNL     1      30.921 -11.074 -20.288  0.00  0.00    +0.061 C 
BRANCH  21  22
ATOM     22  C   UNL     1      31.897 -10.452 -19.294  0.00  0.00    -0.077 C 
BRANCH  22  23
ATOM     23  N   UNL     1      32.271  -9.111 -19.724  0.00  0.00    +0.381 N 
ATOM     24  H   UNL     1      31.445  -8.619 -20.063  0.00  0.00    -0.089 HD
ATOM     25  H   UNL     1      32.960  -9.173 -20.474  0.00  0.00    -0.089 HD
ATOM     26  H   UNL     1      32.672  -8.600 -18.937  0.00  0.00    -0.089 HD
ENDBRANCH  22  23
ENDBRANCH  21  22
ENDBRANCH  19  21
ENDBRANCH  16  18
ENDBRANCH  15  16
ENDBRANCH   1  15
TORSDOF 13
ENDMDL
MODEL 6
REMARK VINA RESULT:      -6.3      3.148      8.235
REMARK  Name = 69532
REMARK  13 active torsions:
REMARK  status: ('A' for Active; 'I' for Inactive)
REMARK    1  A    between atoms: S_1  and  S_2
REMARK    2  A    between atoms: S_1  and  C_15
REMARK    3  A    between atoms: S_2  and  C_3
REMARK    4  A    between atoms: C_3  and  C_4
REMARK    5  A    between atoms: C_4  and  N_6
REMARK    6  A    between atoms: C_7  and  C_9
REMARK    7  A    between atoms: C_9  and  C_10
REMARK    8  A    between atoms: C_10  and  N_11
REMARK    9  A    between atoms: C_15  and  C_16
REMARK   10  A    between atoms: C_16  and  N_18
REMARK   11  A    between atoms: C_19  and  C_21
REMARK   12  A    between atoms: C_21  and  C_22
REMARK   13  A    between atoms: C_22  and  N_23
REMARK                            x       y       z     vdW  Elec       q    Type
REMARK                         _______ _______ _______ _____ _____    ______ ____
ROOT
ATOM      1  S   UNL     1      32.726 -15.449 -20.739  0.00  0.00    -0.080 S 
ENDROOT
BRANCH   1   2
ATOM      2  S   UNL     1      32.497 -13.542 -21.466  0.00  0.00    -0.080 S 
BRANCH   2   3
ATOM      3  C   UNL     1      32.448 -13.842 -23.260  0.00  0.00    +0.090 C 
BRANCH   3   4
ATOM      4  C   UNL     1      33.803 -13.614 -23.919  0.00  0.00    +0.102 C 
BRANCH   4   6
ATOM      5  O   UNL     1      33.711 -11.632 -25.986  0.00  0.00    -0.275 OA
ATOM      6  N   UNL     1      34.258 -12.249 -23.817  0.00  0.00    -0.303 N 
ATOM      7  C   UNL     1      34.170 -11.362 -24.880  0.00  0.00    +0.220 C 
ATOM      8  H   UNL     1      34.643 -11.937 -22.966  0.00  0.00    +0.149 HD
BRANCH   7   9
ATOM      9  C   UNL     1      34.716  -9.992 -24.514  0.00  0.00    +0.061 C 
BRANCH   9  10
ATOM     10  C   UNL     1      33.824  -9.263 -23.515  0.00  0.00    -0.077 C 
BRANCH  10  11
ATOM     11  N   UNL     1      32.422  -9.412 -23.883  0.00  0.00    +0.381 N 
ATOM     12  H   UNL     1      32.244 -10.379 -24.156  0.00  0.00    -0.089 HD
ATOM     13  H   UNL     1      32.207  -8.793 -24.664  0.00  0.00    -0.089 HD
ATOM     14  H   UNL     1      31.834  -9.170 -23.085  0.00  0.00    -0.089 HD
ENDBRANCH  10  11
ENDBRANCH   9  10
ENDBRANCH   7   9
ENDBRANCH   4   6
ENDBRANCH   3   4
ENDBRANCH   2   3
ENDBRANCH   1   2
BRANCH   1  15
ATOM     15  C   UNL     1      34.527 -15.624 -20.722  0.00  0.00    +0.090 C 
BRANCH  15  16
ATOM     16  C   UNL     1      35.000 -16.786 -21.584  0.00  0.00    +0.102 C 
BRANCH  16  18
ATOM     17  O   UNL     1      34.513 -19.420 -22.602  0.00  0.00    -0.275 OA
ATOM     18  N   UNL     1      35.115 -18.019 -20.852  0.00  0.00    -0.303 N 
ATOM     19  C   UNL     1      34.858 -19.254 -21.436  0.00  0.00    +0.220 C 
ATOM     20  H   UNL     1      35.387 -17.987 -19.907  0.00  0.00    +0.149 HD
BRANCH  19  21
ATOM     21  C   UNL     1      35.053 -20.396 -20.453  0.00  0.00    +0.061 C 
BRANCH  21  22
ATOM     22  C   UNL     1      33.737 -20.866 -19.843  0.00  0.00    -0.077 C 
BRANCH  22  23
ATOM     23  N   UNL     1      32.617 -20.473 -20.688  0.00  0.00    +0.381 N 
ATOM     24  H   UNL     1      31.988 -19.869 -20.160  0.00  0.00    -0.089 HD
ATOM     25  H   UNL     1      32.112 -21.305 -20.993  0.00  0.00    -0.089 HD
ATOM     26  H   UNL     1      32.966 -19.970 -21.504  0.00  0.00    -0.089 HD
ENDBRANCH  22  23
ENDBRANCH  21  22
ENDBRANCH  19  21
ENDBRANCH  16  18
ENDBRANCH  15  16
ENDBRANCH   1  15
TORSDOF 13
ENDMDL
MODEL 7
REMARK VINA RESULT:      -6.3      2.780      2.914
REMARK  Name = 69532
REMARK  13 active torsions:
REMARK  status: ('A' for Active; 'I' for Inactive)
REMARK    1  A    between atoms: S_1  and  S_2
REMARK    2  A    between atoms: S_1  and  C_15
REMARK    3  A    between atoms: S_2  and  C_3
REMARK    4  A    between atoms: C_3  and  C_4
REMARK    5  A    between atoms: C_4  and  N_6
REMARK    6  A    between atoms: C_7  and  C_9
REMARK    7  A    between atoms: C_9  and  C_10
REMARK    8  A    between atoms: C_10  and  N_11
REMARK    9  A    between atoms: C_15  and  C_16
REMARK   10  A    between atoms: C_16  and  N_18
REMARK   11  A    between atoms: C_19  and  C_21
REMARK   12  A    between atoms: C_21  and  C_22
REMARK   13  A    between atoms: C_22  and  N_23
REMARK                            x       y       z     vdW  Elec       q    Type
REMARK                         _______ _______ _______ _____ _____    ______ ____
ROOT
ATOM      1  S   UNL     1      33.413 -14.545 -24.412  0.00  0.00    -0.080 S 
ENDROOT
BRANCH   1   2
ATOM      2  S   UNL     1      34.517 -15.784 -23.202  0.00  0.00    -0.080 S 
BRANCH   2   3
ATOM      3  C   UNL     1      34.805 -17.203 -24.303  0.00  0.00    +0.090 C 
BRANCH   3   4
ATOM      4  C   UNL     1      35.426 -18.385 -23.569  0.00  0.00    +0.102 C 
BRANCH   4   6
ATOM      5  O   UNL     1      35.388 -18.514 -20.707  0.00  0.00    -0.275 OA
ATOM      6  N   UNL     1      34.477 -19.107 -22.757  0.00  0.00    -0.303 N 
ATOM      7  C   UNL     1      34.544 -19.108 -21.371  0.00  0.00    +0.220 C 
ATOM      8  H   UNL     1      33.759 -19.615 -23.200  0.00  0.00    +0.149 HD
BRANCH   7   9
ATOM      9  C   UNL     1      33.432 -19.941 -20.757  0.00  0.00    +0.061 C 
BRANCH   9  10
ATOM     10  C   UNL     1      33.967 -21.014 -19.813  0.00  0.00    -0.077 C 
BRANCH  10  11
ATOM     11  N   UNL     1      32.890 -21.898 -19.389  0.00  0.00    +0.381 N 
ATOM     12  H   UNL     1      33.281 -22.793 -19.094  0.00  0.00    -0.089 HD
ATOM     13  H   UNL     1      32.246 -22.048 -20.166  0.00  0.00    -0.089 HD
ATOM     14  H   UNL     1      32.388 -21.473 -18.609  0.00  0.00    -0.089 HD
ENDBRANCH  10  11
ENDBRANCH   9  10
ENDBRANCH   7   9
ENDBRANCH   4   6
ENDBRANCH   3   4
ENDBRANCH   2   3
ENDBRANCH   1   2
BRANCH   1  15
ATOM     15  C   UNL     1      33.882 -12.911 -23.793  0.00  0.00    +0.090 C 
BRANCH  15  16
ATOM     16  C   UNL     1      33.956 -11.874 -24.905  0.00  0.00    +0.102 C 
BRANCH  16  18
ATOM     17  O   UNL     1      32.520  -9.706 -23.701  0.00  0.00    -0.275 OA
ATOM     18  N   UNL     1      34.511 -10.620 -24.470  0.00  0.00    -0.303 N 
ATOM     19  C   UNL     1      33.730  -9.625 -23.894  0.00  0.00    +0.220 C 
ATOM     20  H   UNL     1      35.475 -10.463 -24.584  0.00  0.00    +0.149 HD
BRANCH  19  21
ATOM     21  C   UNL     1      34.554  -8.404 -23.522  0.00  0.00    +0.061 C 
BRANCH  21  22
ATOM     22  C   UNL     1      33.698  -7.278 -22.953  0.00  0.00    -0.077 C 
BRANCH  22  23
ATOM     23  N   UNL     1      33.231  -7.623 -21.616  0.00  0.00    +0.381 N 
ATOM     24  H   UNL     1      32.436  -8.258 -21.687  0.00  0.00    -0.089 HD
ATOM     25  H   UNL     1      32.945  -6.775 -21.127  0.00  0.00    -0.089 HD
ATOM     26  H   UNL     1      33.984  -8.076 -21.099  0.00  0.00    -0.089 HD
ENDBRANCH  22  23
ENDBRANCH  21  22
ENDBRANCH  19  21
ENDBRANCH  16  18
ENDBRANCH  15  16
ENDBRANCH   1  15
TORSDOF 13
ENDMDL
MODEL 8
REMARK VINA RESULT:      -6.2      3.566      5.057
REMARK  Name = 69532
REMARK  13 active torsions:
REMARK  status: ('A' for Active; 'I' for Inactive)
REMARK    1  A    between atoms: S_1  and  S_2
REMARK    2  A    between atoms: S_1  and  C_15
REMARK    3  A    between atoms: S_2  and  C_3
REMARK    4  A    between atoms: C_3  and  C_4
REMARK    5  A    between atoms: C_4  and  N_6
REMARK    6  A    between atoms: C_7  and  C_9
REMARK    7  A    between atoms: C_9  and  C_10
REMARK    8  A    between atoms: C_10  and  N_11
REMARK    9  A    between atoms: C_15  and  C_16
REMARK   10  A    between atoms: C_16  and  N_18
REMARK   11  A    between atoms: C_19  and  C_21
REMARK   12  A    between atoms: C_21  and  C_22
REMARK   13  A    between atoms: C_22  and  N_23
REMARK                            x       y       z     vdW  Elec       q    Type
REMARK                         _______ _______ _______ _____ _____    ______ ____
ROOT
ATOM      1  S   UNL     1      31.619 -11.805 -21.593  0.00  0.00    -0.080 S 
ENDROOT
BRANCH   1   2
ATOM      2  S   UNL     1      32.469 -13.675 -21.583  0.00  0.00    -0.080 S 
BRANCH   2   3
ATOM      3  C   UNL     1      32.689 -13.982 -23.362  0.00  0.00    +0.090 C 
BRANCH   3   4
ATOM      4  C   UNL     1      34.131 -14.328 -23.712  0.00  0.00    +0.102 C 
BRANCH   4   6
ATOM      5  O   UNL     1      33.913 -15.808 -26.157  0.00  0.00    -0.275 OA
ATOM      6  N   UNL     1      34.348 -15.745 -23.878  0.00  0.00    -0.303 N 
ATOM      7  C   UNL     1      34.217 -16.371 -25.109  0.00  0.00    +0.220 C 
ATOM      8  H   UNL     1      34.597 -16.284 -23.093  0.00  0.00    +0.149 HD
BRANCH   7   9
ATOM      9  C   UNL     1      34.498 -17.861 -25.013  0.00  0.00    +0.061 C 
BRANCH   9  10
ATOM     10  C   UNL     1      35.280 -18.222 -23.754  0.00  0.00    -0.077 C 
BRANCH  10  11
ATOM     11  N   UNL     1      34.628 -19.320 -23.051  0.00  0.00    +0.381 N 
ATOM     12  H   UNL     1      34.099 -18.951 -22.261  0.00  0.00    -0.089 HD
ATOM     13  H   UNL     1      35.334 -19.974 -22.712  0.00  0.00    -0.089 HD
ATOM     14  H   UNL     1      33.995 -19.803 -23.688  0.00  0.00    -0.089 HD
ENDBRANCH  10  11
ENDBRANCH   9  10
ENDBRANCH   7   9
ENDBRANCH   4   6
ENDBRANCH   3   4
ENDBRANCH   2   3
ENDBRANCH   1   2
BRANCH   1  15
ATOM     15  C   UNL     1      31.515 -11.438 -19.824  0.00  0.00    +0.090 C 
BRANCH  15  16
ATOM     16  C   UNL     1      31.797  -9.972 -19.524  0.00  0.00    +0.102 C 
BRANCH  16  18
ATOM     17  O   UNL     1      32.801  -7.289 -19.575  0.00  0.00    -0.275 OA
ATOM     18  N   UNL     1      32.150  -9.215 -20.695  0.00  0.00    -0.303 N 
ATOM     19  C   UNL     1      32.632  -7.914 -20.618  0.00  0.00    +0.220 C 
ATOM     20  H   UNL     1      32.048  -9.633 -21.580  0.00  0.00    +0.149 HD
BRANCH  19  21
ATOM     21  C   UNL     1      32.931  -7.339 -21.992  0.00  0.00    +0.061 C 
BRANCH  21  22
ATOM     22  C   UNL     1      31.817  -6.427 -22.493  0.00  0.00    -0.077 C 
BRANCH  22  23
ATOM     23  N   UNL     1      31.687  -5.262 -21.627  0.00  0.00    +0.381 N 
ATOM     24  H   UNL     1      31.117  -4.555 -22.091  0.00  0.00    -0.089 HD
ATOM     25  H   UNL     1      32.612  -4.878 -21.433  0.00  0.00    -0.089 HD
ATOM     26  H   UNL     1      31.244  -5.536 -20.751  0.00  0.00    -0.089 HD
ENDBRANCH  22  23
ENDBRANCH  21  22
ENDBRANCH  19  21
ENDBRANCH  16  18
ENDBRANCH  15  16
ENDBRANCH   1  15
TORSDOF 13
ENDMDL
MODEL 9
REMARK VINA RESULT:      -6.2      2.692      8.972
REMARK  Name = 69532
REMARK  13 active torsions:
REMARK  status: ('A' for Active; 'I' for Inactive)
REMARK    1  A    between atoms: S_1  and  S_2
REMARK    2  A    between atoms: S_1  and  C_15
REMARK    3  A    between atoms: S_2  and  C_3
REMARK    4  A    between atoms: C_3  and  C_4
REMARK    5  A    between atoms: C_4  and  N_6
REMARK    6  A    between atoms: C_7  and  C_9
REMARK    7  A    between atoms: C_9  and  C_10
REMARK    8  A    between atoms: C_10  and  N_11
REMARK    9  A    between atoms: C_15  and  C_16
REMARK   10  A    between atoms: C_16  and  N_18
REMARK   11  A    between atoms: C_19  and  C_21
REMARK   12  A    between atoms: C_21  and  C_22
REMARK   13  A    between atoms: C_22  and  N_23
REMARK                            x       y       z     vdW  Elec       q    Type
REMARK                         _______ _______ _______ _____ _____    ______ ____
ROOT
ATOM      1  S   UNL     1      32.708 -15.235 -20.691  0.00  0.00    -0.080 S 
ENDROOT
BRANCH   1   2
ATOM      2  S   UNL     1      32.582 -13.730 -22.084  0.00  0.00    -0.080 S 
BRANCH   2   3
ATOM      3  C   UNL     1      31.862 -12.383 -21.097  0.00  0.00    +0.090 C 
BRANCH   3   4
ATOM      4  C   UNL     1      31.154 -11.349 -21.963  0.00  0.00    +0.102 C 
BRANCH   4   6
ATOM      5  O   UNL     1      33.127  -9.952 -23.502  0.00  0.00    -0.275 OA
ATOM      6  N   UNL     1      31.624 -10.003 -21.735  0.00  0.00    -0.303 N 
ATOM      7  C   UNL     1      32.587  -9.413 -22.540  0.00  0.00    +0.220 C 
ATOM      8  H   UNL     1      31.248  -9.489 -20.985  0.00  0.00    +0.149 HD
BRANCH   7   9
ATOM      9  C   UNL     1      32.904  -7.998 -22.089  0.00  0.00    +0.061 C 
BRANCH   9  10
ATOM     10  C   UNL     1      32.175  -7.624 -20.802  0.00  0.00    -0.077 C 
BRANCH  10  11
ATOM     11  N   UNL     1      33.104  -7.607 -19.680  0.00  0.00    +0.381 N 
ATOM     12  H   UNL     1      33.847  -6.933 -19.864  0.00  0.00    -0.089 HD
ATOM     13  H   UNL     1      33.510  -8.536 -19.560  0.00  0.00    -0.089 HD
ATOM     14  H   UNL     1      32.606  -7.342 -18.830  0.00  0.00    -0.089 HD
ENDBRANCH  10  11
ENDBRANCH   9  10
ENDBRANCH   7   9
ENDBRANCH   4   6
ENDBRANCH   3   4
ENDBRANCH   2   3
ENDBRANCH   1   2
BRANCH   1  15
ATOM     15  C   UNL     1      34.492 -15.529 -20.627  0.00  0.00    +0.090 C 
BRANCH  15  16
ATOM     16  C   UNL     1      34.922 -16.661 -21.549  0.00  0.00    +0.102 C 
BRANCH  16  18
ATOM     17  O   UNL     1      34.324 -19.273 -22.565  0.00  0.00    -0.275 OA
ATOM     18  N   UNL     1      35.109 -17.909 -20.858  0.00  0.00    -0.303 N 
ATOM     19  C   UNL     1      34.788 -19.131 -21.437  0.00  0.00    +0.220 C 
ATOM     20  H   UNL     1      35.477 -17.897 -19.946  0.00  0.00    +0.149 HD
BRANCH  19  21
ATOM     21  C   UNL     1      35.080 -20.294 -20.504  0.00  0.00    +0.061 C 
BRANCH  21  22
ATOM     22  C   UNL     1      33.812 -20.879 -19.893  0.00  0.00    -0.077 C 
BRANCH  22  23
ATOM     23  N   UNL     1      32.638 -20.416 -20.622  0.00  0.00    +0.381 N 
ATOM     24  H   UNL     1      32.443 -19.447 -20.372  0.00  0.00    -0.089 HD
ATOM     25  H   UNL     1      31.836 -20.997 -20.378  0.00  0.00    -0.089 HD
ATOM     26  H   UNL     1      32.812 -20.481 -21.624  0.00  0.00    -0.089 HD
ENDBRANCH  22  23
ENDBRANCH  21  22
ENDBRANCH  19  21
ENDBRANCH  16  18
ENDBRANCH  15  16
ENDBRANCH   1  15
TORSDOF 13
ENDMDL
