MODEL 1
REMARK VINA RESULT:     -10.2      0.000      0.000
REMARK  Name = 11840911
REMARK  2 active torsions:
REMARK  status: ('A' for Active; 'I' for Inactive)
REMARK    1  A    between atoms: C_2  and  C_13
REMARK    2  A    between atoms: C_4  and  C_24
REMARK                            x       y       z     vdW  Elec       q    Type
REMARK                         _______ _______ _______ _____ _____    ______ ____
ROOT
ATOM      1  N   UNL     1      34.492 -11.487 -23.979  0.00  0.00    -0.357 N 
ATOM      2  C   UNL     1      33.631 -12.204 -23.222  0.00  0.00    +0.053 A 
ATOM      3  C   UNL     1      32.626 -11.422 -22.779  0.00  0.00    -0.001 A 
ATOM      4  C   UNL     1      32.876 -10.126 -23.295  0.00  0.00    +0.062 A 
ATOM      5  C   UNL     1      34.037 -10.196 -24.033  0.00  0.00    +0.038 A 
ATOM      6  C   UNL     1      31.485 -11.818 -21.926  0.00  0.00    +0.033 C 
ATOM      7  C   UNL     1      34.770  -9.163 -24.793  0.00  0.00    +0.050 C 
ATOM      8  H   UNL     1      35.305 -11.833 -24.415  0.00  0.00    +0.166 HD
ENDROOT
BRANCH   2  13
ATOM      9 CL   UNL     1      35.350 -19.116 -21.616  0.00  0.00    -0.082 Cl
ATOM     10  O   UNL     1      33.182 -13.290 -25.894  0.00  0.00    -0.270 OA
ATOM     11  N   UNL     1      33.608 -15.613 -25.977  0.00  0.00    -0.280 N 
ATOM     12  C   UNL     1      33.905 -14.576 -23.958  0.00  0.00    +0.056 C 
ATOM     13  C   UNL     1      33.943 -13.603 -23.045  0.00  0.00    +0.021 C 
ATOM     14  C   UNL     1      34.217 -15.991 -23.792  0.00  0.00    +0.019 C 
ATOM     15  C   UNL     1      34.020 -16.574 -25.047  0.00  0.00    +0.051 C 
ATOM     16  C   UNL     1      33.509 -14.347 -25.388  0.00  0.00    +0.250 C 
ATOM     17  C   UNL     1      34.628 -16.756 -22.716  0.00  0.00    +0.013 C 
ATOM     18  C   UNL     1      34.221 -17.920 -25.277  0.00  0.00    +0.016 C 
ATOM     19  C   UNL     1      34.838 -18.122 -22.928  0.00  0.00    +0.058 C 
ATOM     20  C   UNL     1      34.637 -18.699 -24.195  0.00  0.00    +0.013 C 
ATOM     21  H   UNL     1      33.411 -15.802 -26.922  0.00  0.00    +0.155 HD
ENDBRANCH   2  13
BRANCH   4  24
ATOM     22  O   UNL     1      31.161  -8.617 -23.873  0.00  0.00    -0.270 OA
ATOM     23  N   UNL     1      32.413  -8.138 -21.998  0.00  0.00    -0.299 N 
ATOM     24  C   UNL     1      32.097  -8.934 -23.110  0.00  0.00    +0.247 C 
ATOM     25  C   UNL     1      31.702  -6.926 -21.659  0.00  0.00    +0.111 C 
ATOM     26  H   UNL     1      33.157  -8.420 -21.418  0.00  0.00    +0.150 HD
ENDBRANCH   4  24
TORSDOF 2
ENDMDL
MODEL 2
REMARK VINA RESULT:     -10.1      4.780      8.957
REMARK  Name = 11840911
REMARK  2 active torsions:
REMARK  status: ('A' for Active; 'I' for Inactive)
REMARK    1  A    between atoms: C_2  and  C_13
REMARK    2  A    between atoms: C_4  and  C_24
REMARK                            x       y       z     vdW  Elec       q    Type
REMARK                         _______ _______ _______ _____ _____    ______ ____
ROOT
ATOM      1  N   UNL     1      33.648 -19.438 -21.194  0.00  0.00    -0.357 N 
ATOM      2  C   UNL     1      34.695 -18.800 -21.762  0.00  0.00    +0.053 A 
ATOM      3  C   UNL     1      35.861 -19.301 -21.303  0.00  0.00    -0.001 A 
ATOM      4  C   UNL     1      35.516 -20.323 -20.384  0.00  0.00    +0.062 A 
ATOM      5  C   UNL     1      34.141 -20.386 -20.336  0.00  0.00    +0.038 A 
ATOM      6  C   UNL     1      37.229 -18.881 -21.673  0.00  0.00    +0.033 C 
ATOM      7  C   UNL     1      33.233 -21.254 -19.560  0.00  0.00    +0.050 C 
ATOM      8  H   UNL     1      32.695 -19.253 -21.366  0.00  0.00    +0.166 HD
ENDROOT
BRANCH   2  13
ATOM      9 CL   UNL     1      32.991 -14.052 -27.041  0.00  0.00    -0.082 Cl
ATOM     10  O   UNL     1      34.928 -16.389 -20.132  0.00  0.00    -0.270 OA
ATOM     11  N   UNL     1      34.463 -14.440 -21.384  0.00  0.00    -0.280 N 
ATOM     12  C   UNL     1      34.331 -16.439 -22.492  0.00  0.00    +0.056 C 
ATOM     13  C   UNL     1      34.376 -17.755 -22.707  0.00  0.00    +0.021 C 
ATOM     14  C   UNL     1      34.011 -15.374 -23.436  0.00  0.00    +0.019 C 
ATOM     15  C   UNL     1      34.106 -14.182 -22.711  0.00  0.00    +0.051 C 
ATOM     16  C   UNL     1      34.623 -15.812 -21.159  0.00  0.00    +0.250 C 
ATOM     17  C   UNL     1      33.668 -15.360 -24.775  0.00  0.00    +0.013 C 
ATOM     18  C   UNL     1      33.866 -12.948 -23.283  0.00  0.00    +0.016 C 
ATOM     19  C   UNL     1      33.422 -14.120 -25.374  0.00  0.00    +0.058 C 
ATOM     20  C   UNL     1      33.520 -12.925 -24.636  0.00  0.00    +0.013 C 
ATOM     21  H   UNL     1      34.586 -13.747 -20.696  0.00  0.00    +0.155 HD
ENDBRANCH   2  13
BRANCH   4  24
ATOM     22  O   UNL     1      37.255 -21.897 -20.154  0.00  0.00    -0.270 OA
ATOM     23  N   UNL     1      36.281 -21.097 -18.224  0.00  0.00    -0.299 N 
ATOM     24  C   UNL     1      36.399 -21.161 -19.621  0.00  0.00    +0.247 C 
ATOM     25  C   UNL     1      37.117 -21.855 -17.320  0.00  0.00    +0.111 C 
ATOM     26  H   UNL     1      35.595 -20.505 -17.840  0.00  0.00    +0.150 HD
ENDBRANCH   4  24
TORSDOF 2
ENDMDL
MODEL 3
REMARK VINA RESULT:     -10.1      3.683      7.828
REMARK  Name = 11840911
REMARK  2 active torsions:
REMARK  status: ('A' for Active; 'I' for Inactive)
REMARK    1  A    between atoms: C_2  and  C_13
REMARK    2  A    between atoms: C_4  and  C_24
REMARK                            x       y       z     vdW  Elec       q    Type
REMARK                         _______ _______ _______ _____ _____    ______ ____
ROOT
ATOM      1  N   UNL     1      34.518 -16.550 -23.931  0.00  0.00    -0.357 N 
ATOM      2  C   UNL     1      34.570 -15.697 -22.884  0.00  0.00    +0.053 A 
ATOM      3  C   UNL     1      34.706 -16.374 -21.726  0.00  0.00    -0.001 A 
ATOM      4  C   UNL     1      34.742 -17.748 -22.074  0.00  0.00    +0.062 A 
ATOM      5  C   UNL     1      34.624 -17.827 -23.444  0.00  0.00    +0.038 A 
ATOM      6  C   UNL     1      34.801 -15.815 -20.360  0.00  0.00    +0.033 C 
ATOM      7  C   UNL     1      34.599 -18.991 -24.353  0.00  0.00    +0.050 C 
ATOM      8  H   UNL     1      34.421 -16.299 -24.878  0.00  0.00    +0.166 HD
ENDROOT
BRANCH   2  13
ATOM      9 CL   UNL     1      34.736  -8.655 -24.809  0.00  0.00    -0.082 Cl
ATOM     10  O   UNL     1      32.021 -14.957 -21.668  0.00  0.00    -0.270 OA
ATOM     11  N   UNL     1      31.530 -12.669 -21.991  0.00  0.00    -0.280 N 
ATOM     12  C   UNL     1      33.495 -13.442 -22.876  0.00  0.00    +0.056 C 
ATOM     13  C   UNL     1      34.474 -14.290 -23.197  0.00  0.00    +0.021 C 
ATOM     14  C   UNL     1      33.386 -12.020 -23.185  0.00  0.00    +0.019 C 
ATOM     15  C   UNL     1      32.175 -11.601 -22.625  0.00  0.00    +0.051 C 
ATOM     16  C   UNL     1      32.277 -13.847 -22.098  0.00  0.00    +0.250 C 
ATOM     17  C   UNL     1      34.195 -11.128 -23.865  0.00  0.00    +0.013 C 
ATOM     18  C   UNL     1      31.729 -10.298 -22.719  0.00  0.00    +0.016 C 
ATOM     19  C   UNL     1      33.761  -9.803 -23.970  0.00  0.00    +0.058 C 
ATOM     20  C   UNL     1      32.541  -9.391 -23.403  0.00  0.00    +0.013 C 
ATOM     21  H   UNL     1      30.663 -12.600 -21.531  0.00  0.00    +0.155 HD
ENDBRANCH   2  13
BRANCH   4  24
ATOM     22  O   UNL     1      35.959 -19.197 -20.669  0.00  0.00    -0.270 OA
ATOM     23  N   UNL     1      33.707 -19.612 -20.932  0.00  0.00    -0.299 N 
ATOM     24  C   UNL     1      34.874 -18.879 -21.199  0.00  0.00    +0.247 C 
ATOM     25  C   UNL     1      33.671 -20.755 -20.049  0.00  0.00    +0.111 C 
ATOM     26  H   UNL     1      32.869 -19.331 -21.367  0.00  0.00    +0.150 HD
ENDBRANCH   4  24
TORSDOF 2
ENDMDL
MODEL 4
REMARK VINA RESULT:     -10.1      4.923      7.858
REMARK  Name = 11840911
REMARK  2 active torsions:
REMARK  status: ('A' for Active; 'I' for Inactive)
REMARK    1  A    between atoms: C_2  and  C_13
REMARK    2  A    between atoms: C_4  and  C_24
REMARK                            x       y       z     vdW  Elec       q    Type
REMARK                         _______ _______ _______ _____ _____    ______ ____
ROOT
ATOM      1  N   UNL     1      35.068 -19.416 -22.957  0.00  0.00    -0.357 N 
ATOM      2  C   UNL     1      35.185 -18.818 -21.750  0.00  0.00    +0.053 A 
ATOM      3  C   UNL     1      34.971 -17.491 -21.856  0.00  0.00    -0.001 A 
ATOM      4  C   UNL     1      34.700 -17.242 -23.225  0.00  0.00    +0.062 A 
ATOM      5  C   UNL     1      34.767 -18.451 -23.883  0.00  0.00    +0.038 A 
ATOM      6  C   UNL     1      35.007 -16.483 -20.774  0.00  0.00    +0.033 C 
ATOM      7  C   UNL     1      34.574 -18.796 -25.305  0.00  0.00    +0.050 C 
ATOM      8  H   UNL     1      35.179 -20.377 -23.140  0.00  0.00    +0.166 HD
ENDROOT
BRANCH   2  13
ATOM      9 CL   UNL     1      37.478 -22.889 -16.139  0.00  0.00    -0.082 Cl
ATOM     10  O   UNL     1      32.651 -20.187 -21.273  0.00  0.00    -0.270 OA
ATOM     11  N   UNL     1      32.807 -21.712 -19.474  0.00  0.00    -0.280 N 
ATOM     12  C   UNL     1      34.699 -20.536 -20.003  0.00  0.00    +0.056 C 
ATOM     13  C   UNL     1      35.503 -19.679 -20.635  0.00  0.00    +0.021 C 
ATOM     14  C   UNL     1      35.008 -21.411 -18.877  0.00  0.00    +0.019 C 
ATOM     15  C   UNL     1      33.824 -22.101 -18.597  0.00  0.00    +0.051 C 
ATOM     16  C   UNL     1      33.261 -20.745 -20.379  0.00  0.00    +0.250 C 
ATOM     17  C   UNL     1      36.150 -21.637 -18.132  0.00  0.00    +0.013 C 
ATOM     18  C   UNL     1      33.734 -23.030 -17.579  0.00  0.00    +0.016 C 
ATOM     19  C   UNL     1      36.079 -22.574 -17.096  0.00  0.00    +0.058 C 
ATOM     20  C   UNL     1      34.884 -23.264 -16.821  0.00  0.00    +0.013 C 
ATOM     21  H   UNL     1      31.891 -22.070 -19.457  0.00  0.00    +0.155 HD
ENDBRANCH   2  13
BRANCH   4  24
ATOM     22  O   UNL     1      34.937 -14.913 -23.496  0.00  0.00    -0.270 OA
ATOM     23  N   UNL     1      33.507 -16.011 -24.931  0.00  0.00    -0.299 N 
ATOM     24  C   UNL     1      34.407 -15.985 -23.854  0.00  0.00    +0.247 C 
ATOM     25  C   UNL     1      33.135 -14.836 -25.686  0.00  0.00    +0.111 C 
ATOM     26  H   UNL     1      33.109 -16.875 -25.186  0.00  0.00    +0.150 HD
ENDBRANCH   4  24
TORSDOF 2
ENDMDL
MODEL 5
REMARK VINA RESULT:     -10.1      5.078      9.072
REMARK  Name = 11840911
REMARK  2 active torsions:
REMARK  status: ('A' for Active; 'I' for Inactive)
REMARK    1  A    between atoms: C_2  and  C_13
REMARK    2  A    between atoms: C_4  and  C_24
REMARK                            x       y       z     vdW  Elec       q    Type
REMARK                         _______ _______ _______ _____ _____    ______ ____
ROOT
ATOM      1  N   UNL     1      35.956 -19.419 -20.746  0.00  0.00    -0.357 N 
ATOM      2  C   UNL     1      34.658 -19.083 -20.921  0.00  0.00    +0.053 A 
ATOM      3  C   UNL     1      33.849 -20.056 -20.453  0.00  0.00    -0.001 A 
ATOM      4  C   UNL     1      34.702 -21.070 -19.949  0.00  0.00    +0.062 A 
ATOM      5  C   UNL     1      35.999 -20.650 -20.144  0.00  0.00    +0.038 A 
ATOM      6  C   UNL     1      32.371 -20.077 -20.455  0.00  0.00    +0.033 C 
ATOM      7  C   UNL     1      37.289 -21.291 -19.819  0.00  0.00    +0.050 C 
ATOM      8  H   UNL     1      36.734 -18.875 -21.006  0.00  0.00    +0.166 HD
ENDROOT
BRANCH   2  13
ATOM      9 CL   UNL     1      33.315 -12.349 -23.403  0.00  0.00    -0.082 Cl
ATOM     10  O   UNL     1      34.794 -19.741 -23.762  0.00  0.00    -0.270 OA
ATOM     11  N   UNL     1      34.415 -17.843 -25.118  0.00  0.00    -0.280 N 
ATOM     12  C   UNL     1      34.349 -17.527 -22.851  0.00  0.00    +0.056 C 
ATOM     13  C   UNL     1      34.403 -17.807 -21.547  0.00  0.00    +0.021 C 
ATOM     14  C   UNL     1      34.093 -16.244 -23.496  0.00  0.00    +0.019 C 
ATOM     15  C   UNL     1      34.145 -16.493 -24.871  0.00  0.00    +0.051 C 
ATOM     16  C   UNL     1      34.557 -18.558 -23.923  0.00  0.00    +0.250 C 
ATOM     17  C   UNL     1      33.838 -14.972 -23.018  0.00  0.00    +0.013 C 
ATOM     18  C   UNL     1      33.947 -15.499 -25.809  0.00  0.00    +0.016 C 
ATOM     19  C   UNL     1      33.636 -13.952 -23.952  0.00  0.00    +0.058 C 
ATOM     20  C   UNL     1      33.689 -14.211 -25.334  0.00  0.00    +0.013 C 
ATOM     21  H   UNL     1      34.495 -18.238 -26.015  0.00  0.00    +0.155 HD
ENDBRANCH   2  13
BRANCH   4  24
ATOM     22  O   UNL     1      34.285 -23.389 -19.983  0.00  0.00    -0.270 OA
ATOM     23  N   UNL     1      34.045 -22.294 -17.969  0.00  0.00    -0.299 N 
ATOM     24  C   UNL     1      34.331 -22.318 -19.344  0.00  0.00    +0.247 C 
ATOM     25  C   UNL     1      33.687 -23.471 -17.211  0.00  0.00    +0.111 C 
ATOM     26  H   UNL     1      34.093 -21.431 -17.498  0.00  0.00    +0.150 HD
ENDBRANCH   4  24
TORSDOF 2
ENDMDL
MODEL 6
REMARK VINA RESULT:      -9.8      4.842      8.862
REMARK  Name = 11840911
REMARK  2 active torsions:
REMARK  status: ('A' for Active; 'I' for Inactive)
REMARK    1  A    between atoms: C_2  and  C_13
REMARK    2  A    between atoms: C_4  and  C_24
REMARK                            x       y       z     vdW  Elec       q    Type
REMARK                         _______ _______ _______ _____ _____    ______ ____
ROOT
ATOM      1  N   UNL     1      36.002 -19.056 -21.404  0.00  0.00    -0.357 N 
ATOM      2  C   UNL     1      34.688 -18.893 -21.677  0.00  0.00    +0.053 A 
ATOM      3  C   UNL     1      33.945 -19.776 -20.980  0.00  0.00    -0.001 A 
ATOM      4  C   UNL     1      34.859 -20.544 -20.216  0.00  0.00    +0.062 A 
ATOM      5  C   UNL     1      36.124 -20.077 -20.498  0.00  0.00    +0.038 A 
ATOM      6  C   UNL     1      32.475 -19.927 -20.995  0.00  0.00    +0.033 C 
ATOM      7  C   UNL     1      37.449 -20.495 -19.999  0.00  0.00    +0.050 C 
ATOM      8  H   UNL     1      36.742 -18.532 -21.788  0.00  0.00    +0.166 HD
ENDROOT
BRANCH   2  13
ATOM      9 CL   UNL     1      32.879 -14.171 -26.945  0.00  0.00    -0.082 Cl
ATOM     10  O   UNL     1      35.012 -16.470 -20.081  0.00  0.00    -0.270 OA
ATOM     11  N   UNL     1      34.535 -14.526 -21.336  0.00  0.00    -0.280 N 
ATOM     12  C   UNL     1      34.335 -16.533 -22.418  0.00  0.00    +0.056 C 
ATOM     13  C   UNL     1      34.353 -17.852 -22.621  0.00  0.00    +0.021 C 
ATOM     14  C   UNL     1      33.999 -15.473 -23.362  0.00  0.00    +0.019 C 
ATOM     15  C   UNL     1      34.137 -14.275 -22.653  0.00  0.00    +0.051 C 
ATOM     16  C   UNL     1      34.682 -15.898 -21.103  0.00  0.00    +0.250 C 
ATOM     17  C   UNL     1      33.612 -15.466 -24.689  0.00  0.00    +0.013 C 
ATOM     18  C   UNL     1      33.897 -13.044 -23.229  0.00  0.00    +0.016 C 
ATOM     19  C   UNL     1      33.365 -14.229 -25.292  0.00  0.00    +0.058 C 
ATOM     20  C   UNL     1      33.505 -13.029 -24.570  0.00  0.00    +0.013 C 
ATOM     21  H   UNL     1      34.691 -13.828 -20.660  0.00  0.00    +0.155 HD
ENDBRANCH   2  13
BRANCH   4  24
ATOM     22  O   UNL     1      35.443 -22.416 -18.908  0.00  0.00    -0.270 OA
ATOM     23  N   UNL     1      33.246 -21.720 -18.850  0.00  0.00    -0.299 N 
ATOM     24  C   UNL     1      34.570 -21.618 -19.307  0.00  0.00    +0.247 C 
ATOM     25  C   UNL     1      32.805 -22.726 -17.911  0.00  0.00    +0.111 C 
ATOM     26  H   UNL     1      32.585 -21.072 -19.186  0.00  0.00    +0.150 HD
ENDBRANCH   4  24
TORSDOF 2
ENDMDL
MODEL 7
REMARK VINA RESULT:      -9.8      2.234      3.094
REMARK  Name = 11840911
REMARK  2 active torsions:
REMARK  status: ('A' for Active; 'I' for Inactive)
REMARK    1  A    between atoms: C_2  and  C_13
REMARK    2  A    between atoms: C_4  and  C_24
REMARK                            x       y       z     vdW  Elec       q    Type
REMARK                         _______ _______ _______ _____ _____    ______ ____
ROOT
ATOM      1  N   UNL     1      31.874 -12.972 -22.093  0.00  0.00    -0.357 N 
ATOM      2  C   UNL     1      32.836 -13.103 -23.035  0.00  0.00    +0.053 A 
ATOM      3  C   UNL     1      33.168 -11.899 -23.544  0.00  0.00    -0.001 A 
ATOM      4  C   UNL     1      32.357 -10.949 -22.873  0.00  0.00    +0.062 A 
ATOM      5  C   UNL     1      31.566 -11.641 -21.982  0.00  0.00    +0.038 A 
ATOM      6  C   UNL     1      34.171 -11.608 -24.590  0.00  0.00    +0.033 C 
ATOM      7  C   UNL     1      30.542 -11.176 -21.026  0.00  0.00    +0.050 C 
ATOM      8  H   UNL     1      31.466 -13.705 -21.578  0.00  0.00    +0.166 HD
ENDROOT
BRANCH   2  13
ATOM      9 CL   UNL     1      34.923 -19.800 -25.062  0.00  0.00    -0.082 Cl
ATOM     10  O   UNL     1      33.955 -13.899 -20.458  0.00  0.00    -0.270 OA
ATOM     11  N   UNL     1      34.824 -16.095 -20.524  0.00  0.00    -0.280 N 
ATOM     12  C   UNL     1      33.900 -15.288 -22.457  0.00  0.00    +0.056 C 
ATOM     13  C   UNL     1      33.298 -14.445 -23.299  0.00  0.00    +0.021 C 
ATOM     14  C   UNL     1      34.370 -16.645 -22.711  0.00  0.00    +0.019 C 
ATOM     15  C   UNL     1      34.923 -17.088 -21.505  0.00  0.00    +0.051 C 
ATOM     16  C   UNL     1      34.203 -14.946 -21.027  0.00  0.00    +0.250 C 
ATOM     17  C   UNL     1      34.359 -17.465 -23.824  0.00  0.00    +0.013 C 
ATOM     18  C   UNL     1      35.476 -18.345 -21.362  0.00  0.00    +0.016 C 
ATOM     19  C   UNL     1      34.914 -18.742 -23.701  0.00  0.00    +0.058 C 
ATOM     20  C   UNL     1      35.468 -19.179 -22.482  0.00  0.00    +0.013 C 
ATOM     21  H   UNL     1      35.149 -16.192 -19.600  0.00  0.00    +0.155 HD
ENDBRANCH   2  13
BRANCH   4  24
ATOM     22  O   UNL     1      31.720  -8.980 -23.999  0.00  0.00    -0.270 OA
ATOM     23  N   UNL     1      32.996  -8.751 -22.093  0.00  0.00    -0.299 N 
ATOM     24  C   UNL     1      32.327  -9.525 -23.055  0.00  0.00    +0.247 C 
ATOM     25  C   UNL     1      33.031  -7.306 -22.120  0.00  0.00    +0.111 C 
ATOM     26  H   UNL     1      33.463  -9.216 -21.362  0.00  0.00    +0.150 HD
ENDBRANCH   4  24
TORSDOF 2
ENDMDL
MODEL 8
REMARK VINA RESULT:      -9.5      3.544      7.703
REMARK  Name = 11840911
REMARK  2 active torsions:
REMARK  status: ('A' for Active; 'I' for Inactive)
REMARK    1  A    between atoms: C_2  and  C_13
REMARK    2  A    between atoms: C_4  and  C_24
REMARK                            x       y       z     vdW  Elec       q    Type
REMARK                         _______ _______ _______ _____ _____    ______ ____
ROOT
ATOM      1  N   UNL     1      34.229 -15.289 -24.413  0.00  0.00    -0.357 N 
ATOM      2  C   UNL     1      34.377 -14.542 -23.296  0.00  0.00    +0.053 A 
ATOM      3  C   UNL     1      34.649 -15.327 -22.233  0.00  0.00    -0.001 A 
ATOM      4  C   UNL     1      34.673 -16.658 -22.720  0.00  0.00    +0.062 A 
ATOM      5  C   UNL     1      34.409 -16.605 -24.072  0.00  0.00    +0.038 A 
ATOM      6  C   UNL     1      34.879 -14.903 -20.835  0.00  0.00    +0.033 C 
ATOM      7  C   UNL     1      34.310 -17.673 -25.086  0.00  0.00    +0.050 C 
ATOM      8  H   UNL     1      34.026 -14.949 -25.314  0.00  0.00    +0.166 HD
ENDROOT
BRANCH   2  13
ATOM      9 CL   UNL     1      34.243  -7.333 -24.444  0.00  0.00    -0.082 Cl
ATOM     10  O   UNL     1      31.817 -14.042 -21.984  0.00  0.00    -0.270 OA
ATOM     11  N   UNL     1      31.233 -11.754 -22.051  0.00  0.00    -0.280 N 
ATOM     12  C   UNL     1      33.215 -12.347 -23.033  0.00  0.00    +0.056 C 
ATOM     13  C   UNL     1      34.222 -13.115 -23.453  0.00  0.00    +0.021 C 
ATOM     14  C   UNL     1      33.046 -10.905 -23.184  0.00  0.00    +0.019 C 
ATOM     15  C   UNL     1      31.828 -10.599 -22.571  0.00  0.00    +0.051 C 
ATOM     16  C   UNL     1      32.024 -12.883 -22.293  0.00  0.00    +0.250 C 
ATOM     17  C   UNL     1      33.811  -9.913 -23.770  0.00  0.00    +0.013 C 
ATOM     18  C   UNL     1      31.330  -9.312 -22.518  0.00  0.00    +0.016 C 
ATOM     19  C   UNL     1      33.325  -8.603 -23.727  0.00  0.00    +0.058 C 
ATOM     20  C   UNL     1      32.097  -8.304 -23.107  0.00  0.00    +0.013 C 
ATOM     21  H   UNL     1      30.371 -11.770 -21.578  0.00  0.00    +0.155 HD
ENDBRANCH   2  13
BRANCH   4  24
ATOM     22  O   UNL     1      36.047 -18.167 -21.543  0.00  0.00    -0.270 OA
ATOM     23  N   UNL     1      33.813 -18.698 -21.746  0.00  0.00    -0.299 N 
ATOM     24  C   UNL     1      34.918 -17.865 -21.984  0.00  0.00    +0.247 C 
ATOM     25  C   UNL     1      33.892 -19.930 -20.994  0.00  0.00    +0.111 C 
ATOM     26  H   UNL     1      32.938 -18.427 -22.108  0.00  0.00    +0.150 HD
ENDBRANCH   4  24
TORSDOF 2
ENDMDL
MODEL 9
REMARK VINA RESULT:      -9.2      2.085      2.504
REMARK  Name = 11840911
REMARK  2 active torsions:
REMARK  status: ('A' for Active; 'I' for Inactive)
REMARK    1  A    between atoms: C_2  and  C_13
REMARK    2  A    between atoms: C_4  and  C_24
REMARK                            x       y       z     vdW  Elec       q    Type
REMARK                         _______ _______ _______ _____ _____    ______ ____
ROOT
ATOM      1  N   UNL     1      34.517 -12.049 -24.268  0.00  0.00    -0.357 N 
ATOM      2  C   UNL     1      33.654 -12.870 -23.630  0.00  0.00    +0.053 A 
ATOM      3  C   UNL     1      32.713 -12.157 -22.979  0.00  0.00    -0.001 A 
ATOM      4  C   UNL     1      33.009 -10.793 -23.229  0.00  0.00    +0.062 A 
ATOM      5  C   UNL     1      34.130 -10.756 -24.029  0.00  0.00    +0.038 A 
ATOM      6  C   UNL     1      31.592 -12.674 -22.166  0.00  0.00    +0.033 C 
ATOM      7  C   UNL     1      34.882  -9.620 -24.597  0.00  0.00    +0.050 C 
ATOM      8  H   UNL     1      35.290 -12.329 -24.811  0.00  0.00    +0.166 HD
ENDROOT
BRANCH   2  13
ATOM      9 CL   UNL     1      34.727 -19.957 -25.027  0.00  0.00    -0.082 Cl
ATOM     10  O   UNL     1      34.368 -13.644 -20.907  0.00  0.00    -0.270 OA
ATOM     11  N   UNL     1      34.843 -15.953 -20.751  0.00  0.00    -0.280 N 
ATOM     12  C   UNL     1      34.262 -15.152 -22.815  0.00  0.00    +0.056 C 
ATOM     13  C   UNL     1      33.899 -14.288 -23.764  0.00  0.00    +0.021 C 
ATOM     14  C   UNL     1      34.511 -16.585 -22.937  0.00  0.00    +0.019 C 
ATOM     15  C   UNL     1      34.861 -17.020 -21.655  0.00  0.00    +0.051 C 
ATOM     16  C   UNL     1      34.483 -14.758 -21.384  0.00  0.00    +0.250 C 
ATOM     17  C   UNL     1      34.463 -17.473 -23.995  0.00  0.00    +0.013 C 
ATOM     18  C   UNL     1      35.171 -18.338 -21.381  0.00  0.00    +0.016 C 
ATOM     19  C   UNL     1      34.773 -18.812 -23.739  0.00  0.00    +0.058 C 
ATOM     20  C   UNL     1      35.124 -19.241 -22.445  0.00  0.00    +0.013 C 
ATOM     21  H   UNL     1      35.058 -16.033 -19.794  0.00  0.00    +0.155 HD
ENDBRANCH   2  13
BRANCH   4  24
ATOM     22  O   UNL     1      32.284  -9.301 -21.554  0.00  0.00    -0.270 OA
ATOM     23  N   UNL     1      31.648  -8.856 -23.725  0.00  0.00    -0.299 N 
ATOM     24  C   UNL     1      32.303  -9.635 -22.758  0.00  0.00    +0.247 C 
ATOM     25  C   UNL     1      30.922  -7.646 -23.413  0.00  0.00    +0.111 C 
ATOM     26  H   UNL     1      31.685  -9.149 -24.664  0.00  0.00    +0.150 HD
ENDBRANCH   4  24
TORSDOF 2
ENDMDL
