MODEL 1
REMARK VINA RESULT:      -6.6      0.000      0.000
REMARK  Name = 62582
REMARK  14 active torsions:
REMARK  status: ('A' for Active; 'I' for Inactive)
REMARK    1  A    between atoms: N_1  and  C_4
REMARK    2  A    between atoms: N_1  and  C_12
REMARK    3  A    between atoms: C_4  and  C_5
REMARK    4  A    between atoms: C_5  and  C_6
REMARK    5  A    between atoms: C_6  and  C_7
REMARK    6  A    between atoms: C_7  and  C_8
REMARK    7  A    between atoms: C_8  and  C_9
REMARK    8  A    between atoms: C_9  and  C_10
REMARK    9  A    between atoms: C_12  and  C_13
REMARK   10  A    between atoms: C_13  and  C_14
REMARK   11  A    between atoms: C_14  and  C_15
REMARK   12  A    between atoms: C_15  and  C_16
REMARK   13  A    between atoms: C_16  and  C_17
REMARK   14  A    between atoms: C_17  and  C_18
REMARK                            x       y       z     vdW  Elec       q    Type
REMARK                         _______ _______ _______ _____ _____    ______ ____
ROOT
ATOM      1  N   UNL     1      34.763 -18.921 -21.442  0.00  0.00    +0.387 N 
ATOM      2  C   UNL     1      34.048 -19.950 -20.554  0.00  0.00    -0.096 C 
ATOM      3  C   UNL     1      36.187 -18.733 -20.896  0.00  0.00    -0.096 C 
ENDROOT
BRANCH   1   4
ATOM      4  C   UNL     1      34.794 -19.371 -22.853  0.00  0.00    -0.073 C 
BRANCH   4   5
ATOM      5  C   UNL     1      35.103 -18.205 -23.785  0.00  0.00    -0.022 C 
BRANCH   5   6
ATOM      6  C   UNL     1      34.282 -18.146 -25.078  0.00  0.00    -0.002 C 
BRANCH   6   7
ATOM      7  C   UNL     1      34.077 -16.725 -25.605  0.00  0.00    -0.000 C 
BRANCH   7   8
ATOM      8  C   UNL     1      33.986 -15.716 -24.456  0.00  0.00    -0.000 C 
BRANCH   8   9
ATOM      9  C   UNL     1      33.234 -14.455 -24.882  0.00  0.00    -0.000 C 
BRANCH   9  10
ATOM     10  C   UNL     1      32.843 -14.513 -26.359  0.00  0.00    +0.000 C 
ATOM     11  C   UNL     1      33.320 -13.279 -27.110  0.00  0.00    +0.000 C 
ENDBRANCH   9  10
ENDBRANCH   8   9
ENDBRANCH   7   8
ENDBRANCH   6   7
ENDBRANCH   5   6
ENDBRANCH   4   5
ENDBRANCH   1   4
BRANCH   1  12
ATOM     12  C   UNL     1      34.023 -17.582 -21.309  0.00  0.00    -0.073 C 
BRANCH  12  13
ATOM     13  C   UNL     1      34.964 -16.495 -20.803  0.00  0.00    -0.022 C 
BRANCH  13  14
ATOM     14  C   UNL     1      34.422 -15.062 -20.853  0.00  0.00    -0.002 C 
BRANCH  14  15
ATOM     15  C   UNL     1      32.894 -14.988 -20.803  0.00  0.00    -0.000 C 
BRANCH  15  16
ATOM     16  C   UNL     1      32.387 -13.650 -21.347  0.00  0.00    -0.000 C 
BRANCH  16  17
ATOM     17  C   UNL     1      32.007 -12.696 -20.214  0.00  0.00    -0.000 C 
BRANCH  17  18
ATOM     18  C   UNL     1      31.272 -11.467 -20.746  0.00  0.00    +0.000 C 
ATOM     19  C   UNL     1      31.275 -10.334 -19.731  0.00  0.00    +0.000 C 
ENDBRANCH  17  18
ENDBRANCH  16  17
ENDBRANCH  15  16
ENDBRANCH  14  15
ENDBRANCH  13  14
ENDBRANCH  12  13
ENDBRANCH   1  12
TORSDOF 14
ENDMDL
MODEL 2
REMARK VINA RESULT:      -6.5      6.970     11.138
REMARK  Name = 62582
REMARK  14 active torsions:
REMARK  status: ('A' for Active; 'I' for Inactive)
REMARK    1  A    between atoms: N_1  and  C_4
REMARK    2  A    between atoms: N_1  and  C_12
REMARK    3  A    between atoms: C_4  and  C_5
REMARK    4  A    between atoms: C_5  and  C_6
REMARK    5  A    between atoms: C_6  and  C_7
REMARK    6  A    between atoms: C_7  and  C_8
REMARK    7  A    between atoms: C_8  and  C_9
REMARK    8  A    between atoms: C_9  and  C_10
REMARK    9  A    between atoms: C_12  and  C_13
REMARK   10  A    between atoms: C_13  and  C_14
REMARK   11  A    between atoms: C_14  and  C_15
REMARK   12  A    between atoms: C_15  and  C_16
REMARK   13  A    between atoms: C_16  and  C_17
REMARK   14  A    between atoms: C_17  and  C_18
REMARK                            x       y       z     vdW  Elec       q    Type
REMARK                         _______ _______ _______ _____ _____    ______ ____
ROOT
ATOM      1  N   UNL     1      36.740 -24.674 -14.323  0.00  0.00    +0.387 N 
ATOM      2  C   UNL     1      36.449 -24.900 -12.833  0.00  0.00    -0.096 C 
ATOM      3  C   UNL     1      37.961 -25.528 -14.703  0.00  0.00    -0.096 C 
ENDROOT
BRANCH   1   4
ATOM      4  C   UNL     1      35.567 -25.034 -15.153  0.00  0.00    -0.073 C 
BRANCH   4   5
ATOM      5  C   UNL     1      34.349 -24.210 -14.751  0.00  0.00    -0.022 C 
BRANCH   5   6
ATOM      6  C   UNL     1      33.666 -23.432 -15.880  0.00  0.00    -0.002 C 
BRANCH   6   7
ATOM      7  C   UNL     1      32.140 -23.410 -15.768  0.00  0.00    -0.000 C 
BRANCH   7   8
ATOM      8  C   UNL     1      31.689 -22.739 -14.468  0.00  0.00    -0.000 C 
BRANCH   8   9
ATOM      9  C   UNL     1      30.769 -23.655 -13.660  0.00  0.00    -0.000 C 
BRANCH   9  10
ATOM     10  C   UNL     1      30.516 -24.974 -14.391  0.00  0.00    +0.000 C 
ATOM     11  C   UNL     1      29.052 -25.125 -14.775  0.00  0.00    +0.000 C 
ENDBRANCH   9  10
ENDBRANCH   8   9
ENDBRANCH   7   8
ENDBRANCH   6   7
ENDBRANCH   5   6
ENDBRANCH   4   5
ENDBRANCH   1   4
BRANCH   1  12
ATOM     12  C   UNL     1      37.117 -23.198 -14.516  0.00  0.00    -0.073 C 
BRANCH  12  13
ATOM     13  C   UNL     1      37.624 -22.952 -15.932  0.00  0.00    -0.022 C 
BRANCH  13  14
ATOM     14  C   UNL     1      37.137 -21.663 -16.604  0.00  0.00    -0.002 C 
BRANCH  14  15
ATOM     15  C   UNL     1      36.185 -21.910 -17.777  0.00  0.00    -0.000 C 
BRANCH  15  16
ATOM     16  C   UNL     1      36.707 -21.258 -19.059  0.00  0.00    -0.000 C 
BRANCH  16  17
ATOM     17  C   UNL     1      35.581 -21.039 -20.071  0.00  0.00    -0.000 C 
BRANCH  17  18
ATOM     18  C   UNL     1      34.251 -21.576 -19.545  0.00  0.00    +0.000 C 
ATOM     19  C   UNL     1      33.091 -20.676 -19.943  0.00  0.00    +0.000 C 
ENDBRANCH  17  18
ENDBRANCH  16  17
ENDBRANCH  15  16
ENDBRANCH  14  15
ENDBRANCH  13  14
ENDBRANCH  12  13
ENDBRANCH   1  12
TORSDOF 14
ENDMDL
MODEL 3
REMARK VINA RESULT:      -6.5      6.543     10.317
REMARK  Name = 62582
REMARK  14 active torsions:
REMARK  status: ('A' for Active; 'I' for Inactive)
REMARK    1  A    between atoms: N_1  and  C_4
REMARK    2  A    between atoms: N_1  and  C_12
REMARK    3  A    between atoms: C_4  and  C_5
REMARK    4  A    between atoms: C_5  and  C_6
REMARK    5  A    between atoms: C_6  and  C_7
REMARK    6  A    between atoms: C_7  and  C_8
REMARK    7  A    between atoms: C_8  and  C_9
REMARK    8  A    between atoms: C_9  and  C_10
REMARK    9  A    between atoms: C_12  and  C_13
REMARK   10  A    between atoms: C_13  and  C_14
REMARK   11  A    between atoms: C_14  and  C_15
REMARK   12  A    between atoms: C_15  and  C_16
REMARK   13  A    between atoms: C_16  and  C_17
REMARK   14  A    between atoms: C_17  and  C_18
REMARK                            x       y       z     vdW  Elec       q    Type
REMARK                         _______ _______ _______ _____ _____    ______ ____
ROOT
ATOM      1  N   UNL     1      36.243 -24.397 -14.204  0.00  0.00    +0.387 N 
ATOM      2  C   UNL     1      37.126 -25.646 -14.335  0.00  0.00    -0.096 C 
ATOM      3  C   UNL     1      35.886 -24.222 -12.719  0.00  0.00    -0.096 C 
ENDROOT
BRANCH   1   4
ATOM      4  C   UNL     1      36.942 -23.198 -14.723  0.00  0.00    -0.073 C 
BRANCH   4   5
ATOM      5  C   UNL     1      36.322 -22.739 -16.038  0.00  0.00    -0.022 C 
BRANCH   5   6
ATOM      6  C   UNL     1      37.155 -21.750 -16.861  0.00  0.00    -0.002 C 
BRANCH   6   7
ATOM      7  C   UNL     1      36.602 -21.511 -18.267  0.00  0.00    -0.000 C 
BRANCH   7   8
ATOM      8  C   UNL     1      35.193 -22.092 -18.414  0.00  0.00    -0.000 C 
BRANCH   8   9
ATOM      9  C   UNL     1      34.577 -21.720 -19.763  0.00  0.00    -0.000 C 
BRANCH   9  10
ATOM     10  C   UNL     1      33.162 -21.166 -19.594  0.00  0.00    +0.000 C 
ATOM     11  C   UNL     1      32.908 -19.992 -20.526  0.00  0.00    +0.000 C 
ENDBRANCH   9  10
ENDBRANCH   8   9
ENDBRANCH   7   8
ENDBRANCH   6   7
ENDBRANCH   5   6
ENDBRANCH   4   5
ENDBRANCH   1   4
BRANCH   1  12
ATOM     12  C   UNL     1      34.941 -24.651 -14.978  0.00  0.00    -0.073 C 
BRANCH  12  13
ATOM     13  C   UNL     1      33.730 -24.293 -14.124  0.00  0.00    -0.022 C 
BRANCH  13  14
ATOM     14  C   UNL     1      32.785 -23.238 -14.713  0.00  0.00    -0.002 C 
BRANCH  14  15
ATOM     15  C   UNL     1      32.585 -23.375 -16.223  0.00  0.00    -0.000 C 
BRANCH  15  16
ATOM     16  C   UNL     1      31.218 -22.836 -16.652  0.00  0.00    -0.000 C 
BRANCH  16  17
ATOM     17  C   UNL     1      30.173 -23.030 -15.552  0.00  0.00    -0.000 C 
BRANCH  17  18
ATOM     18  C   UNL     1      29.355 -24.300 -15.780  0.00  0.00    +0.000 C 
ATOM     19  C   UNL     1      29.761 -25.405 -14.817  0.00  0.00    +0.000 C 
ENDBRANCH  17  18
ENDBRANCH  16  17
ENDBRANCH  15  16
ENDBRANCH  14  15
ENDBRANCH  13  14
ENDBRANCH  12  13
ENDBRANCH   1  12
TORSDOF 14
ENDMDL
MODEL 4
REMARK VINA RESULT:      -6.5      0.809      5.102
REMARK  Name = 62582
REMARK  14 active torsions:
REMARK  status: ('A' for Active; 'I' for Inactive)
REMARK    1  A    between atoms: N_1  and  C_4
REMARK    2  A    between atoms: N_1  and  C_12
REMARK    3  A    between atoms: C_4  and  C_5
REMARK    4  A    between atoms: C_5  and  C_6
REMARK    5  A    between atoms: C_6  and  C_7
REMARK    6  A    between atoms: C_7  and  C_8
REMARK    7  A    between atoms: C_8  and  C_9
REMARK    8  A    between atoms: C_9  and  C_10
REMARK    9  A    between atoms: C_12  and  C_13
REMARK   10  A    between atoms: C_13  and  C_14
REMARK   11  A    between atoms: C_14  and  C_15
REMARK   12  A    between atoms: C_15  and  C_16
REMARK   13  A    between atoms: C_16  and  C_17
REMARK   14  A    between atoms: C_17  and  C_18
REMARK                            x       y       z     vdW  Elec       q    Type
REMARK                         _______ _______ _______ _____ _____    ______ ____
ROOT
ATOM      1  N   UNL     1      35.380 -18.446 -21.438  0.00  0.00    +0.387 N 
ATOM      2  C   UNL     1      36.547 -19.179 -20.762  0.00  0.00    -0.096 C 
ATOM      3  C   UNL     1      34.145 -19.358 -21.372  0.00  0.00    -0.096 C 
ENDROOT
BRANCH   1   4
ATOM      4  C   UNL     1      35.114 -17.149 -20.774  0.00  0.00    -0.073 C 
BRANCH   4   5
ATOM      5  C   UNL     1      34.642 -16.111 -21.786  0.00  0.00    -0.022 C 
BRANCH   5   6
ATOM      6  C   UNL     1      33.900 -14.902 -21.208  0.00  0.00    -0.002 C 
BRANCH   6   7
ATOM      7  C   UNL     1      32.553 -14.635 -21.882  0.00  0.00    -0.000 C 
BRANCH   7   8
ATOM      8  C   UNL     1      32.203 -13.145 -21.849  0.00  0.00    -0.000 C 
BRANCH   8   9
ATOM      9  C   UNL     1      31.968 -12.660 -20.418  0.00  0.00    -0.000 C 
BRANCH   9  10
ATOM     10  C   UNL     1      31.187 -11.346 -20.397  0.00  0.00    +0.000 C 
ATOM     11  C   UNL     1      31.555 -10.499 -19.189  0.00  0.00    +0.000 C 
ENDBRANCH   9  10
ENDBRANCH   8   9
ENDBRANCH   7   8
ENDBRANCH   6   7
ENDBRANCH   5   6
ENDBRANCH   4   5
ENDBRANCH   1   4
BRANCH   1  12
ATOM     12  C   UNL     1      35.739 -18.242 -22.918  0.00  0.00    -0.073 C 
BRANCH  12  13
ATOM     13  C   UNL     1      34.909 -19.162 -23.805  0.00  0.00    -0.022 C 
BRANCH  13  14
ATOM     14  C   UNL     1      34.167 -18.484 -24.963  0.00  0.00    -0.002 C 
BRANCH  14  15
ATOM     15  C   UNL     1      34.794 -17.156 -25.393  0.00  0.00    -0.000 C 
BRANCH  15  16
ATOM     16  C   UNL     1      33.888 -15.976 -25.034  0.00  0.00    -0.000 C 
BRANCH  16  17
ATOM     17  C   UNL     1      33.081 -15.505 -26.245  0.00  0.00    -0.000 C 
BRANCH  17  18
ATOM     18  C   UNL     1      32.772 -14.011 -26.160  0.00  0.00    +0.000 C 
ATOM     19  C   UNL     1      33.466 -13.235 -27.269  0.00  0.00    +0.000 C 
ENDBRANCH  17  18
ENDBRANCH  16  17
ENDBRANCH  15  16
ENDBRANCH  14  15
ENDBRANCH  13  14
ENDBRANCH  12  13
ENDBRANCH   1  12
TORSDOF 14
ENDMDL
MODEL 5
REMARK VINA RESULT:      -6.4      1.946      6.745
REMARK  Name = 62582
REMARK  14 active torsions:
REMARK  status: ('A' for Active; 'I' for Inactive)
REMARK    1  A    between atoms: N_1  and  C_4
REMARK    2  A    between atoms: N_1  and  C_12
REMARK    3  A    between atoms: C_4  and  C_5
REMARK    4  A    between atoms: C_5  and  C_6
REMARK    5  A    between atoms: C_6  and  C_7
REMARK    6  A    between atoms: C_7  and  C_8
REMARK    7  A    between atoms: C_8  and  C_9
REMARK    8  A    between atoms: C_9  and  C_10
REMARK    9  A    between atoms: C_12  and  C_13
REMARK   10  A    between atoms: C_13  and  C_14
REMARK   11  A    between atoms: C_14  and  C_15
REMARK   12  A    between atoms: C_15  and  C_16
REMARK   13  A    between atoms: C_16  and  C_17
REMARK   14  A    between atoms: C_17  and  C_18
REMARK                            x       y       z     vdW  Elec       q    Type
REMARK                         _______ _______ _______ _____ _____    ______ ____
ROOT
ATOM      1  N   UNL     1      33.353 -13.675 -23.829  0.00  0.00    +0.387 N 
ATOM      2  C   UNL     1      32.931 -14.424 -25.101  0.00  0.00    -0.096 C 
ATOM      3  C   UNL     1      33.969 -12.332 -24.252  0.00  0.00    -0.096 C 
ENDROOT
BRANCH   1   4
ATOM      4  C   UNL     1      32.195 -13.464 -22.930  0.00  0.00    -0.073 C 
BRANCH   4   5
ATOM      5  C   UNL     1      32.442 -14.108 -21.571  0.00  0.00    -0.022 C 
BRANCH   5   6
ATOM      6  C   UNL     1      32.374 -13.169 -20.363  0.00  0.00    -0.002 C 
BRANCH   6   7
ATOM      7  C   UNL     1      31.665 -11.846 -20.659  0.00  0.00    -0.000 C 
BRANCH   7   8
ATOM      8  C   UNL     1      31.527 -10.996 -19.393  0.00  0.00    -0.000 C 
BRANCH   8   9
ATOM      9  C   UNL     1      31.845  -9.526 -19.673  0.00  0.00    -0.000 C 
BRANCH   9  10
ATOM     10  C   UNL     1      31.877  -9.240 -21.174  0.00  0.00    +0.000 C 
ATOM     11  C   UNL     1      32.816  -8.090 -21.502  0.00  0.00    +0.000 C 
ENDBRANCH   9  10
ENDBRANCH   8   9
ENDBRANCH   7   8
ENDBRANCH   6   7
ENDBRANCH   5   6
ENDBRANCH   4   5
ENDBRANCH   1   4
BRANCH   1  12
ATOM     12  C   UNL     1      34.446 -14.500 -23.132  0.00  0.00    -0.073 C 
BRANCH  12  13
ATOM     13  C   UNL     1      34.495 -15.914 -23.697  0.00  0.00    -0.022 C 
BRANCH  13  14
ATOM     14  C   UNL     1      35.243 -16.949 -22.848  0.00  0.00    -0.002 C 
BRANCH  14  15
ATOM     15  C   UNL     1      35.158 -18.371 -23.408  0.00  0.00    -0.000 C 
BRANCH  15  16
ATOM     16  C   UNL     1      34.796 -19.376 -22.312  0.00  0.00    -0.000 C 
BRANCH  16  17
ATOM     17  C   UNL     1      33.887 -18.744 -21.256  0.00  0.00    -0.000 C 
BRANCH  17  18
ATOM     18  C   UNL     1      32.894 -19.762 -20.697  0.00  0.00    +0.000 C 
ATOM     19  C   UNL     1      33.606 -20.908 -19.996  0.00  0.00    +0.000 C 
ENDBRANCH  17  18
ENDBRANCH  16  17
ENDBRANCH  15  16
ENDBRANCH  14  15
ENDBRANCH  13  14
ENDBRANCH  12  13
ENDBRANCH   1  12
TORSDOF 14
ENDMDL
MODEL 6
REMARK VINA RESULT:      -6.4      2.436      6.909
REMARK  Name = 62582
REMARK  14 active torsions:
REMARK  status: ('A' for Active; 'I' for Inactive)
REMARK    1  A    between atoms: N_1  and  C_4
REMARK    2  A    between atoms: N_1  and  C_12
REMARK    3  A    between atoms: C_4  and  C_5
REMARK    4  A    between atoms: C_5  and  C_6
REMARK    5  A    between atoms: C_6  and  C_7
REMARK    6  A    between atoms: C_7  and  C_8
REMARK    7  A    between atoms: C_8  and  C_9
REMARK    8  A    between atoms: C_9  and  C_10
REMARK    9  A    between atoms: C_12  and  C_13
REMARK   10  A    between atoms: C_13  and  C_14
REMARK   11  A    between atoms: C_14  and  C_15
REMARK   12  A    between atoms: C_15  and  C_16
REMARK   13  A    between atoms: C_16  and  C_17
REMARK   14  A    between atoms: C_17  and  C_18
REMARK                            x       y       z     vdW  Elec       q    Type
REMARK                         _______ _______ _______ _____ _____    ______ ____
ROOT
ATOM      1  N   UNL     1      35.169 -18.598 -21.865  0.00  0.00    +0.387 N 
ATOM      2  C   UNL     1      34.536 -17.308 -21.325  0.00  0.00    -0.096 C 
ATOM      3  C   UNL     1      36.383 -18.935 -20.984  0.00  0.00    -0.096 C 
ENDROOT
BRANCH   1   4
ATOM      4  C   UNL     1      34.191 -19.710 -21.862  0.00  0.00    -0.073 C 
BRANCH   4   5
ATOM      5  C   UNL     1      33.385 -19.718 -20.568  0.00  0.00    -0.022 C 
BRANCH   5   6
ATOM      6  C   UNL     1      33.228 -21.080 -19.886  0.00  0.00    -0.002 C 
BRANCH   6   7
ATOM      7  C   UNL     1      34.541 -21.642 -19.337  0.00  0.00    -0.000 C 
BRANCH   7   8
ATOM      8  C   UNL     1      34.285 -22.700 -18.261  0.00  0.00    -0.000 C 
BRANCH   8   9
ATOM      9  C   UNL     1      32.823 -22.692 -17.811  0.00  0.00    -0.000 C 
BRANCH   9  10
ATOM     10  C   UNL     1      32.664 -23.327 -16.429  0.00  0.00    +0.000 C 
ATOM     11  C   UNL     1      33.981 -23.349 -15.671  0.00  0.00    +0.000 C 
ENDBRANCH   9  10
ENDBRANCH   8   9
ENDBRANCH   7   8
ENDBRANCH   6   7
ENDBRANCH   5   6
ENDBRANCH   4   5
ENDBRANCH   1   4
BRANCH   1  12
ATOM     12  C   UNL     1      35.679 -18.319 -23.287  0.00  0.00    -0.073 C 
BRANCH  12  13
ATOM     13  C   UNL     1      34.695 -18.848 -24.324  0.00  0.00    -0.022 C 
BRANCH  13  14
ATOM     14  C   UNL     1      34.183 -17.825 -25.344  0.00  0.00    -0.002 C 
BRANCH  14  15
ATOM     15  C   UNL     1      34.359 -16.374 -24.891  0.00  0.00    -0.000 C 
BRANCH  15  16
ATOM     16  C   UNL     1      33.448 -15.433 -25.684  0.00  0.00    -0.000 C 
BRANCH  16  17
ATOM     17  C   UNL     1      33.145 -14.158 -24.897  0.00  0.00    -0.000 C 
BRANCH  17  18
ATOM     18  C   UNL     1      33.758 -14.209 -23.499  0.00  0.00    +0.000 C 
ATOM     19  C   UNL     1      32.693 -14.098 -22.419  0.00  0.00    +0.000 C 
ENDBRANCH  17  18
ENDBRANCH  16  17
ENDBRANCH  15  16
ENDBRANCH  14  15
ENDBRANCH  13  14
ENDBRANCH  12  13
ENDBRANCH   1  12
TORSDOF 14
ENDMDL
MODEL 7
REMARK VINA RESULT:      -6.4      2.056      5.478
REMARK  Name = 62582
REMARK  14 active torsions:
REMARK  status: ('A' for Active; 'I' for Inactive)
REMARK    1  A    between atoms: N_1  and  C_4
REMARK    2  A    between atoms: N_1  and  C_12
REMARK    3  A    between atoms: C_4  and  C_5
REMARK    4  A    between atoms: C_5  and  C_6
REMARK    5  A    between atoms: C_6  and  C_7
REMARK    6  A    between atoms: C_7  and  C_8
REMARK    7  A    between atoms: C_8  and  C_9
REMARK    8  A    between atoms: C_9  and  C_10
REMARK    9  A    between atoms: C_12  and  C_13
REMARK   10  A    between atoms: C_13  and  C_14
REMARK   11  A    between atoms: C_14  and  C_15
REMARK   12  A    between atoms: C_15  and  C_16
REMARK   13  A    between atoms: C_16  and  C_17
REMARK   14  A    between atoms: C_17  and  C_18
REMARK                            x       y       z     vdW  Elec       q    Type
REMARK                         _______ _______ _______ _____ _____    ______ ____
ROOT
ATOM      1  N   UNL     1      33.417 -13.711 -23.617  0.00  0.00    +0.387 N 
ATOM      2  C   UNL     1      33.831 -12.254 -23.872  0.00  0.00    -0.096 C 
ATOM      3  C   UNL     1      32.897 -14.295 -24.940  0.00  0.00    -0.096 C 
ENDROOT
BRANCH   1   4
ATOM      4  C   UNL     1      34.559 -14.503 -23.104  0.00  0.00    -0.073 C 
BRANCH   4   5
ATOM      5  C   UNL     1      34.255 -15.052 -21.715  0.00  0.00    -0.022 C 
BRANCH   5   6
ATOM      6  C   UNL     1      34.812 -16.446 -21.410  0.00  0.00    -0.002 C 
BRANCH   6   7
ATOM      7  C   UNL     1      35.139 -17.260 -22.663  0.00  0.00    -0.000 C 
BRANCH   7   8
ATOM      8  C   UNL     1      34.922 -18.756 -22.425  0.00  0.00    -0.000 C 
BRANCH   8   9
ATOM      9  C   UNL     1      35.130 -19.121 -20.954  0.00  0.00    -0.000 C 
BRANCH   9  10
ATOM     10  C   UNL     1      34.261 -20.312 -20.549  0.00  0.00    +0.000 C 
ATOM     11  C   UNL     1      32.784 -19.953 -20.558  0.00  0.00    +0.000 C 
ENDBRANCH   9  10
ENDBRANCH   8   9
ENDBRANCH   7   8
ENDBRANCH   6   7
ENDBRANCH   5   6
ENDBRANCH   4   5
ENDBRANCH   1   4
BRANCH   1  12
ATOM     12  C   UNL     1      32.256 -13.707 -22.611  0.00  0.00    -0.073 C 
BRANCH  12  13
ATOM     13  C   UNL     1      32.004 -12.298 -22.087  0.00  0.00    -0.022 C 
BRANCH  13  14
ATOM     14  C   UNL     1      31.845 -12.168 -20.567  0.00  0.00    -0.002 C 
BRANCH  14  15
ATOM     15  C   UNL     1      31.065 -10.921 -20.142  0.00  0.00    -0.000 C 
BRANCH  15  16
ATOM     16  C   UNL     1      31.966  -9.934 -19.396  0.00  0.00    -0.000 C 
BRANCH  16  17
ATOM     17  C   UNL     1      31.903  -8.540 -20.024  0.00  0.00    -0.000 C 
BRANCH  17  18
ATOM     18  C   UNL     1      32.662  -8.492 -21.349  0.00  0.00    +0.000 C 
ATOM     19  C   UNL     1      31.718  -8.287 -22.524  0.00  0.00    +0.000 C 
ENDBRANCH  17  18
ENDBRANCH  16  17
ENDBRANCH  15  16
ENDBRANCH  14  15
ENDBRANCH  13  14
ENDBRANCH  12  13
ENDBRANCH   1  12
TORSDOF 14
ENDMDL
MODEL 8
REMARK VINA RESULT:      -6.4      2.327      6.789
REMARK  Name = 62582
REMARK  14 active torsions:
REMARK  status: ('A' for Active; 'I' for Inactive)
REMARK    1  A    between atoms: N_1  and  C_4
REMARK    2  A    between atoms: N_1  and  C_12
REMARK    3  A    between atoms: C_4  and  C_5
REMARK    4  A    between atoms: C_5  and  C_6
REMARK    5  A    between atoms: C_6  and  C_7
REMARK    6  A    between atoms: C_7  and  C_8
REMARK    7  A    between atoms: C_8  and  C_9
REMARK    8  A    between atoms: C_9  and  C_10
REMARK    9  A    between atoms: C_12  and  C_13
REMARK   10  A    between atoms: C_13  and  C_14
REMARK   11  A    between atoms: C_14  and  C_15
REMARK   12  A    between atoms: C_15  and  C_16
REMARK   13  A    between atoms: C_16  and  C_17
REMARK   14  A    between atoms: C_17  and  C_18
REMARK                            x       y       z     vdW  Elec       q    Type
REMARK                         _______ _______ _______ _____ _____    ______ ____
ROOT
ATOM      1  N   UNL     1      35.091 -18.197 -22.222  0.00  0.00    +0.387 N 
ATOM      2  C   UNL     1      35.256 -18.690 -23.666  0.00  0.00    -0.096 C 
ATOM      3  C   UNL     1      36.302 -18.686 -21.412  0.00  0.00    -0.096 C 
ENDROOT
BRANCH   1   4
ATOM      4  C   UNL     1      34.986 -16.721 -22.175  0.00  0.00    -0.073 C 
BRANCH   4   5
ATOM      5  C   UNL     1      34.854 -16.234 -20.737  0.00  0.00    -0.022 C 
BRANCH   5   6
ATOM      6  C   UNL     1      34.307 -14.814 -20.559  0.00  0.00    -0.002 C 
BRANCH   6   7
ATOM      7  C   UNL     1      32.778 -14.746 -20.555  0.00  0.00    -0.000 C 
BRANCH   7   8
ATOM      8  C   UNL     1      32.277 -13.497 -21.285  0.00  0.00    -0.000 C 
BRANCH   8   9
ATOM      9  C   UNL     1      31.874 -12.401 -20.298  0.00  0.00    -0.000 C 
BRANCH   9  10
ATOM     10  C   UNL     1      31.151 -11.255 -21.006  0.00  0.00    +0.000 C 
ATOM     11  C   UNL     1      31.666  -9.901 -20.544  0.00  0.00    +0.000 C 
ENDBRANCH   9  10
ENDBRANCH   8   9
ENDBRANCH   7   8
ENDBRANCH   6   7
ENDBRANCH   5   6
ENDBRANCH   4   5
ENDBRANCH   1   4
BRANCH   1  12
ATOM     12  C   UNL     1      33.833 -18.855 -21.635  0.00  0.00    -0.073 C 
BRANCH  12  13
ATOM     13  C   UNL     1      34.206 -20.054 -20.771  0.00  0.00    -0.022 C 
BRANCH  13  14
ATOM     14  C   UNL     1      33.037 -20.787 -20.101  0.00  0.00    -0.002 C 
BRANCH  14  15
ATOM     15  C   UNL     1      33.482 -21.845 -19.090  0.00  0.00    -0.000 C 
BRANCH  15  16
ATOM     16  C   UNL     1      35.007 -21.984 -19.069  0.00  0.00    -0.000 C 
BRANCH  16  17
ATOM     17  C   UNL     1      35.516 -22.323 -17.667  0.00  0.00    -0.000 C 
BRANCH  17  18
ATOM     18  C   UNL     1      36.886 -21.699 -17.408  0.00  0.00    +0.000 C 
ATOM     19  C   UNL     1      37.495 -22.210 -16.111  0.00  0.00    +0.000 C 
ENDBRANCH  17  18
ENDBRANCH  16  17
ENDBRANCH  15  16
ENDBRANCH  14  15
ENDBRANCH  13  14
ENDBRANCH  12  13
ENDBRANCH   1  12
TORSDOF 14
ENDMDL
MODEL 9
REMARK VINA RESULT:      -6.4      2.441      6.286
REMARK  Name = 62582
REMARK  14 active torsions:
REMARK  status: ('A' for Active; 'I' for Inactive)
REMARK    1  A    between atoms: N_1  and  C_4
REMARK    2  A    between atoms: N_1  and  C_12
REMARK    3  A    between atoms: C_4  and  C_5
REMARK    4  A    between atoms: C_5  and  C_6
REMARK    5  A    between atoms: C_6  and  C_7
REMARK    6  A    between atoms: C_7  and  C_8
REMARK    7  A    between atoms: C_8  and  C_9
REMARK    8  A    between atoms: C_9  and  C_10
REMARK    9  A    between atoms: C_12  and  C_13
REMARK   10  A    between atoms: C_13  and  C_14
REMARK   11  A    between atoms: C_14  and  C_15
REMARK   12  A    between atoms: C_15  and  C_16
REMARK   13  A    between atoms: C_16  and  C_17
REMARK   14  A    between atoms: C_17  and  C_18
REMARK                            x       y       z     vdW  Elec       q    Type
REMARK                         _______ _______ _______ _____ _____    ______ ____
ROOT
ATOM      1  N   UNL     1      35.037 -18.268 -22.353  0.00  0.00    +0.387 N 
ATOM      2  C   UNL     1      36.490 -18.550 -21.944  0.00  0.00    -0.096 C 
ATOM      3  C   UNL     1      34.847 -18.761 -23.796  0.00  0.00    -0.096 C 
ENDROOT
BRANCH   1   4
ATOM      4  C   UNL     1      34.089 -18.942 -21.436  0.00  0.00    -0.073 C 
BRANCH   4   5
ATOM      5  C   UNL     1      34.782 -20.063 -20.670  0.00  0.00    -0.022 C 
BRANCH   5   6
ATOM      6  C   UNL     1      33.865 -20.993 -19.869  0.00  0.00    -0.002 C 
BRANCH   6   7
ATOM      7  C   UNL     1      34.620 -22.084 -19.107  0.00  0.00    -0.000 C 
BRANCH   7   8
ATOM      8  C   UNL     1      36.074 -21.677 -18.853  0.00  0.00    -0.000 C 
BRANCH   8   9
ATOM      9  C   UNL     1      36.484 -21.952 -17.406  0.00  0.00    -0.000 C 
BRANCH   9  10
ATOM     10  C   UNL     1      35.435 -22.796 -16.682  0.00  0.00    +0.000 C 
ATOM     11  C   UNL     1      35.614 -22.734 -15.173  0.00  0.00    +0.000 C 
ENDBRANCH   9  10
ENDBRANCH   8   9
ENDBRANCH   7   8
ENDBRANCH   6   7
ENDBRANCH   5   6
ENDBRANCH   4   5
ENDBRANCH   1   4
BRANCH   1  12
ATOM     12  C   UNL     1      34.826 -16.747 -22.339  0.00  0.00    -0.073 C 
BRANCH  12  13
ATOM     13  C   UNL     1      34.815 -16.218 -20.910  0.00  0.00    -0.022 C 
BRANCH  13  14
ATOM     14  C   UNL     1      34.279 -14.793 -20.727  0.00  0.00    -0.002 C 
BRANCH  14  15
ATOM     15  C   UNL     1      32.751 -14.711 -20.736  0.00  0.00    -0.000 C 
BRANCH  15  16
ATOM     16  C   UNL     1      32.245 -13.952 -21.965  0.00  0.00    -0.000 C 
BRANCH  16  17
ATOM     17  C   UNL     1      32.073 -12.462 -21.666  0.00  0.00    -0.000 C 
BRANCH  17  18
ATOM     18  C   UNL     1      31.741 -12.225 -20.194  0.00  0.00    +0.000 C 
ATOM     19  C   UNL     1      31.325 -10.784 -19.942  0.00  0.00    +0.000 C 
ENDBRANCH  17  18
ENDBRANCH  16  17
ENDBRANCH  15  16
ENDBRANCH  14  15
ENDBRANCH  13  14
ENDBRANCH  12  13
ENDBRANCH   1  12
TORSDOF 14
ENDMDL
