MODEL 1
REMARK VINA RESULT:      -6.1      0.000      0.000
REMARK  Name = 52918385
REMARK  4 active torsions:
REMARK  status: ('A' for Active; 'I' for Inactive)
REMARK    1  A    between atoms: C_3  and  C_11
REMARK    2  A    between atoms: C_3  and  C_14
REMARK    3  A    between atoms: C_11  and  O_12
REMARK    4  A    between atoms: C_14  and  O_15
REMARK                            x       y       z     vdW  Elec       q    Type
REMARK                         _______ _______ _______ _____ _____    ______ ____
ROOT
ATOM      1  O   UNL     1      36.711 -23.071 -12.554  0.00  0.00    -0.298 OA
ATOM      2  N   UNL     1      37.486 -25.482 -15.130  0.00  0.00    +0.397 N 
ATOM      3  C   UNL     1      36.794 -24.223 -14.700  0.00  0.00    +0.066 C 
ATOM      4  C   UNL     1      38.016 -25.095 -12.619  0.00  0.00    +0.052 C 
ATOM      5  C   UNL     1      37.263 -26.414 -12.823  0.00  0.00    -0.016 C 
ATOM      6  C   UNL     1      39.296 -25.083 -13.457  0.00  0.00    -0.016 C 
ATOM      7  C   UNL     1      38.953 -25.385 -14.927  0.00  0.00    -0.076 C 
ATOM      8  C   UNL     1      37.029 -26.646 -14.328  0.00  0.00    -0.076 C 
ATOM      9  C   UNL     1      37.126 -24.019 -13.213  0.00  0.00    +0.137 C 
ATOM     10  H   UNL     1      37.260 -25.608 -16.117  0.00  0.00    -0.079 HD
ENDROOT
BRANCH   3  11
ATOM     11  C   UNL     1      37.283 -23.003 -15.500  0.00  0.00    +0.133 C 
BRANCH  11  12
ATOM     12  O   UNL     1      36.472 -22.880 -16.649  0.00  0.00    -0.353 OA
ATOM     13  C   UNL     1      36.853 -21.767 -17.453  0.00  0.00    +0.174 C 
ENDBRANCH  11  12
ENDBRANCH   3  11
BRANCH   3  14
ATOM     14  C   UNL     1      35.267 -24.324 -14.870  0.00  0.00    +0.128 C 
BRANCH  14  15
ATOM     15  O   UNL     1      34.699 -23.107 -14.440  0.00  0.00    -0.384 OA
ATOM     16  H   UNL     1      34.499 -22.553 -15.211  0.00  0.00    +0.210 HD
ENDBRANCH  14  15
ENDBRANCH   3  14
TORSDOF 4
ENDMDL
MODEL 2
REMARK VINA RESULT:      -6.1      2.192      3.992
REMARK  Name = 52918385
REMARK  4 active torsions:
REMARK  status: ('A' for Active; 'I' for Inactive)
REMARK    1  A    between atoms: C_3  and  C_11
REMARK    2  A    between atoms: C_3  and  C_14
REMARK    3  A    between atoms: C_11  and  O_12
REMARK    4  A    between atoms: C_14  and  O_15
REMARK                            x       y       z     vdW  Elec       q    Type
REMARK                         _______ _______ _______ _____ _____    ______ ____
ROOT
ATOM      1  O   UNL     1      36.085 -26.605 -15.742  0.00  0.00    -0.298 OA
ATOM      2  N   UNL     1      36.791 -23.858 -13.504  0.00  0.00    +0.397 N 
ATOM      3  C   UNL     1      37.156 -25.202 -14.062  0.00  0.00    +0.066 C 
ATOM      4  C   UNL     1      34.996 -24.510 -15.262  0.00  0.00    +0.052 C 
ATOM      5  C   UNL     1      34.369 -24.342 -13.875  0.00  0.00    -0.016 C 
ATOM      6  C   UNL     1      35.723 -23.226 -15.672  0.00  0.00    -0.016 C 
ATOM      7  C   UNL     1      36.729 -22.831 -14.575  0.00  0.00    -0.076 C 
ATOM      8  C   UNL     1      35.447 -23.886 -12.874  0.00  0.00    -0.076 C 
ATOM      9  C   UNL     1      36.079 -25.560 -15.098  0.00  0.00    +0.137 C 
ATOM     10  H   UNL     1      37.512 -23.629 -12.819  0.00  0.00    -0.079 HD
ENDROOT
BRANCH   3  11
ATOM     11  C   UNL     1      38.533 -25.178 -14.750  0.00  0.00    +0.133 C 
BRANCH  11  12
ATOM     12  O   UNL     1      39.175 -26.407 -14.484  0.00  0.00    -0.353 OA
ATOM     13  C   UNL     1      40.591 -26.264 -14.418  0.00  0.00    +0.174 C 
ENDBRANCH  11  12
ENDBRANCH   3  11
BRANCH   3  14
ATOM     14  C   UNL     1      37.188 -26.283 -12.967  0.00  0.00    +0.128 C 
BRANCH  14  15
ATOM     15  O   UNL     1      38.023 -25.826 -11.926  0.00  0.00    -0.384 OA
ATOM     16  H   UNL     1      38.248 -26.567 -11.343  0.00  0.00    +0.210 HD
ENDBRANCH  14  15
ENDBRANCH   3  14
TORSDOF 4
ENDMDL
MODEL 3
REMARK VINA RESULT:      -6.0      1.555      2.170
REMARK  Name = 52918385
REMARK  4 active torsions:
REMARK  status: ('A' for Active; 'I' for Inactive)
REMARK    1  A    between atoms: C_3  and  C_11
REMARK    2  A    between atoms: C_3  and  C_14
REMARK    3  A    between atoms: C_11  and  O_12
REMARK    4  A    between atoms: C_14  and  O_15
REMARK                            x       y       z     vdW  Elec       q    Type
REMARK                         _______ _______ _______ _____ _____    ______ ____
ROOT
ATOM      1  O   UNL     1      37.467 -22.803 -14.621  0.00  0.00    -0.298 OA
ATOM      2  N   UNL     1      36.431 -26.082 -13.512  0.00  0.00    +0.397 N 
ATOM      3  C   UNL     1      36.079 -24.701 -13.982  0.00  0.00    +0.066 C 
ATOM      4  C   UNL     1      38.644 -24.792 -13.938  0.00  0.00    +0.052 C 
ATOM      5  C   UNL     1      38.528 -25.211 -12.470  0.00  0.00    -0.016 C 
ATOM      6  C   UNL     1      38.540 -26.020 -14.848  0.00  0.00    -0.016 C 
ATOM      7  C   UNL     1      37.254 -26.798 -14.519  0.00  0.00    -0.076 C 
ATOM      8  C   UNL     1      37.242 -26.034 -12.268  0.00  0.00    -0.076 C 
ATOM      9  C   UNL     1      37.405 -23.964 -14.227  0.00  0.00    +0.137 C 
ATOM     10  H   UNL     1      35.546 -26.563 -13.353  0.00  0.00    -0.079 HD
ENDROOT
BRANCH   3  11
ATOM     11  C   UNL     1      35.269 -24.735 -15.289  0.00  0.00    +0.133 C 
BRANCH  11  12
ATOM     12  O   UNL     1      34.337 -23.674 -15.253  0.00  0.00    -0.353 OA
ATOM     13  C   UNL     1      33.913 -23.294 -16.559  0.00  0.00    +0.174 C 
ENDBRANCH  11  12
ENDBRANCH   3  11
BRANCH   3  14
ATOM     14  C   UNL     1      35.258 -23.934 -12.930  0.00  0.00    +0.128 C 
BRANCH  14  15
ATOM     15  O   UNL     1      34.106 -24.693 -12.637  0.00  0.00    -0.384 OA
ATOM     16  H   UNL     1      34.300 -25.309 -11.912  0.00  0.00    +0.210 HD
ENDBRANCH  14  15
ENDBRANCH   3  14
TORSDOF 4
ENDMDL
MODEL 4
REMARK VINA RESULT:      -5.7      2.032      3.090
REMARK  Name = 52918385
REMARK  4 active torsions:
REMARK  status: ('A' for Active; 'I' for Inactive)
REMARK    1  A    between atoms: C_3  and  C_11
REMARK    2  A    between atoms: C_3  and  C_14
REMARK    3  A    between atoms: C_11  and  O_12
REMARK    4  A    between atoms: C_14  and  O_15
REMARK                            x       y       z     vdW  Elec       q    Type
REMARK                         _______ _______ _______ _____ _____    ______ ____
ROOT
ATOM      1  O   UNL     1      37.519 -22.501 -12.392  0.00  0.00    -0.298 OA
ATOM      2  N   UNL     1      36.163 -25.687 -13.423  0.00  0.00    +0.397 N 
ATOM      3  C   UNL     1      35.998 -24.378 -12.708  0.00  0.00    +0.066 C 
ATOM      4  C   UNL     1      38.381 -24.360 -13.660  0.00  0.00    +0.052 C 
ATOM      5  C   UNL     1      38.608 -25.678 -12.913  0.00  0.00    -0.016 C 
ATOM      6  C   UNL     1      37.755 -24.630 -15.030  0.00  0.00    -0.016 C 
ATOM      7  C   UNL     1      36.482 -25.477 -14.858  0.00  0.00    -0.076 C 
ATOM      8  C   UNL     1      37.289 -26.471 -12.855  0.00  0.00    -0.076 C 
ATOM      9  C   UNL     1      37.323 -23.616 -12.865  0.00  0.00    +0.137 C 
ATOM     10  H   UNL     1      35.279 -26.184 -13.313  0.00  0.00    -0.079 HD
ENDROOT
BRANCH   3  11
ATOM     11  C   UNL     1      34.857 -23.540 -13.309  0.00  0.00    +0.133 C 
BRANCH  11  12
ATOM     12  O   UNL     1      33.633 -24.077 -12.853  0.00  0.00    -0.353 OA
ATOM     13  C   UNL     1      32.771 -24.427 -13.932  0.00  0.00    +0.174 C 
ENDBRANCH  11  12
ENDBRANCH   3  11
BRANCH   3  14
ATOM     14  C   UNL     1      35.703 -24.581 -11.210  0.00  0.00    +0.128 C 
BRANCH  14  15
ATOM     15  O   UNL     1      36.760 -24.003 -10.476  0.00  0.00    -0.384 OA
ATOM     16  H   UNL     1      36.398 -23.491  -9.736  0.00  0.00    +0.210 HD
ENDBRANCH  14  15
ENDBRANCH   3  14
TORSDOF 4
ENDMDL
MODEL 5
REMARK VINA RESULT:      -5.6      1.837      3.018
REMARK  Name = 52918385
REMARK  4 active torsions:
REMARK  status: ('A' for Active; 'I' for Inactive)
REMARK    1  A    between atoms: C_3  and  C_11
REMARK    2  A    between atoms: C_3  and  C_14
REMARK    3  A    between atoms: C_11  and  O_12
REMARK    4  A    between atoms: C_14  and  O_15
REMARK                            x       y       z     vdW  Elec       q    Type
REMARK                         _______ _______ _______ _____ _____    ______ ____
ROOT
ATOM      1  O   UNL     1      38.393 -26.030 -15.091  0.00  0.00    -0.298 OA
ATOM      2  N   UNL     1      36.379 -23.697 -13.205  0.00  0.00    +0.397 N 
ATOM      3  C   UNL     1      36.805 -24.270 -14.524  0.00  0.00    +0.066 C 
ATOM      4  C   UNL     1      38.138 -25.549 -12.743  0.00  0.00    +0.052 C 
ATOM      5  C   UNL     1      38.631 -24.188 -12.244  0.00  0.00    -0.016 C 
ATOM      6  C   UNL     1      36.795 -25.895 -12.094  0.00  0.00    -0.016 C 
ATOM      7  C   UNL     1      35.799 -24.745 -12.327  0.00  0.00    -0.076 C 
ATOM      8  C   UNL     1      37.536 -23.129 -12.468  0.00  0.00    -0.076 C 
ATOM      9  C   UNL     1      37.843 -25.361 -14.220  0.00  0.00    +0.137 C 
ATOM     10  H   UNL     1      35.690 -22.975 -13.417  0.00  0.00    -0.079 HD
ENDROOT
BRANCH   3  11
ATOM     11  C   UNL     1      35.621 -24.894 -15.283  0.00  0.00    +0.133 C 
BRANCH  11  12
ATOM     12  O   UNL     1      35.157 -23.948 -16.223  0.00  0.00    -0.353 OA
ATOM     13  C   UNL     1      33.827 -23.524 -15.940  0.00  0.00    +0.174 C 
ENDBRANCH  11  12
ENDBRANCH   3  11
BRANCH   3  14
ATOM     14  C   UNL     1      37.443 -23.201 -15.430  0.00  0.00    +0.128 C 
BRANCH  14  15
ATOM     15  O   UNL     1      38.751 -23.622 -15.748  0.00  0.00    -0.384 OA
ATOM     16  H   UNL     1      39.257 -23.751 -14.930  0.00  0.00    +0.210 HD
ENDBRANCH  14  15
ENDBRANCH   3  14
TORSDOF 4
ENDMDL
MODEL 6
REMARK VINA RESULT:      -5.4      2.125      3.533
REMARK  Name = 52918385
REMARK  4 active torsions:
REMARK  status: ('A' for Active; 'I' for Inactive)
REMARK    1  A    between atoms: C_3  and  C_11
REMARK    2  A    between atoms: C_3  and  C_14
REMARK    3  A    between atoms: C_11  and  O_12
REMARK    4  A    between atoms: C_14  and  O_15
REMARK                            x       y       z     vdW  Elec       q    Type
REMARK                         _______ _______ _______ _____ _____    ______ ____
ROOT
ATOM      1  O   UNL     1      35.723 -26.148 -15.623  0.00  0.00    -0.298 OA
ATOM      2  N   UNL     1      35.722 -23.261 -13.451  0.00  0.00    +0.397 N 
ATOM      3  C   UNL     1      35.136 -24.011 -14.611  0.00  0.00    +0.066 C 
ATOM      4  C   UNL     1      37.067 -25.462 -13.744  0.00  0.00    +0.052 C 
ATOM      5  C   UNL     1      37.969 -24.238 -13.931  0.00  0.00    -0.016 C 
ATOM      6  C   UNL     1      36.388 -25.412 -12.372  0.00  0.00    -0.016 C 
ATOM      7  C   UNL     1      35.660 -24.066 -12.205  0.00  0.00    -0.076 C 
ATOM      8  C   UNL     1      37.157 -22.955 -13.680  0.00  0.00    -0.076 C 
ATOM      9  C   UNL     1      35.949 -25.306 -14.759  0.00  0.00    +0.137 C 
ATOM     10  H   UNL     1      35.175 -22.404 -13.361  0.00  0.00    -0.079 HD
ENDROOT
BRANCH   3  11
ATOM     11  C   UNL     1      33.658 -24.365 -14.372  0.00  0.00    +0.133 C 
BRANCH  11  12
ATOM     12  O   UNL     1      32.898 -23.182 -14.505  0.00  0.00    -0.353 OA
ATOM     13  C   UNL     1      31.498 -23.439 -14.442  0.00  0.00    +0.174 C 
ENDBRANCH  11  12
ENDBRANCH   3  11
BRANCH   3  14
ATOM     14  C   UNL     1      35.227 -23.201 -15.917  0.00  0.00    +0.128 C 
BRANCH  14  15
ATOM     15  O   UNL     1      34.408 -23.829 -16.878  0.00  0.00    -0.384 OA
ATOM     16  H   UNL     1      33.503 -23.487 -16.806  0.00  0.00    +0.210 HD
ENDBRANCH  14  15
ENDBRANCH   3  14
TORSDOF 4
ENDMDL
MODEL 7
REMARK VINA RESULT:      -5.2      1.663      2.303
REMARK  Name = 52918385
REMARK  4 active torsions:
REMARK  status: ('A' for Active; 'I' for Inactive)
REMARK    1  A    between atoms: C_3  and  C_11
REMARK    2  A    between atoms: C_3  and  C_14
REMARK    3  A    between atoms: C_11  and  O_12
REMARK    4  A    between atoms: C_14  and  O_15
REMARK                            x       y       z     vdW  Elec       q    Type
REMARK                         _______ _______ _______ _____ _____    ______ ____
ROOT
ATOM      1  O   UNL     1      33.899 -24.317 -12.905  0.00  0.00    -0.298 OA
ATOM      2  N   UNL     1      37.419 -24.303 -13.720  0.00  0.00    +0.397 N 
ATOM      3  C   UNL     1      35.986 -24.301 -14.163  0.00  0.00    +0.066 C 
ATOM      4  C   UNL     1      35.923 -24.330 -11.598  0.00  0.00    +0.052 C 
ATOM      5  C   UNL     1      36.800 -25.584 -11.667  0.00  0.00    -0.016 C 
ATOM      6  C   UNL     1      36.796 -23.073 -11.637  0.00  0.00    -0.016 C 
ATOM      7  C   UNL     1      37.718 -23.124 -12.869  0.00  0.00    -0.076 C 
ATOM      8  C   UNL     1      37.723 -25.501 -12.896  0.00  0.00    -0.076 C 
ATOM      9  C   UNL     1      35.126 -24.316 -12.890  0.00  0.00    +0.137 C 
ATOM     10  H   UNL     1      37.980 -24.292 -14.571  0.00  0.00    -0.079 HD
ENDROOT
BRANCH   3  11
ATOM     11  C   UNL     1      35.647 -23.047 -14.989  0.00  0.00    +0.133 C 
BRANCH  11  12
ATOM     12  O   UNL     1      36.236 -23.191 -16.264  0.00  0.00    -0.353 OA
ATOM     13  C   UNL     1      37.060 -22.079 -16.599  0.00  0.00    +0.174 C 
ENDBRANCH  11  12
ENDBRANCH   3  11
BRANCH   3  14
ATOM     14  C   UNL     1      35.652 -25.538 -15.016  0.00  0.00    +0.128 C 
BRANCH  14  15
ATOM     15  O   UNL     1      36.802 -25.880 -15.758  0.00  0.00    -0.384 OA
ATOM     16  H   UNL     1      36.541 -26.373 -16.551  0.00  0.00    +0.210 HD
ENDBRANCH  14  15
ENDBRANCH   3  14
TORSDOF 4
ENDMDL
MODEL 8
REMARK VINA RESULT:      -5.2      1.897      2.820
REMARK  Name = 52918385
REMARK  4 active torsions:
REMARK  status: ('A' for Active; 'I' for Inactive)
REMARK    1  A    between atoms: C_3  and  C_11
REMARK    2  A    between atoms: C_3  and  C_14
REMARK    3  A    between atoms: C_11  and  O_12
REMARK    4  A    between atoms: C_14  and  O_15
REMARK                            x       y       z     vdW  Elec       q    Type
REMARK                         _______ _______ _______ _____ _____    ______ ____
ROOT
ATOM      1  O   UNL     1      37.488 -22.430 -14.445  0.00  0.00    -0.298 OA
ATOM      2  N   UNL     1      36.055 -25.369 -12.906  0.00  0.00    +0.397 N 
ATOM      3  C   UNL     1      36.247 -24.502 -14.116  0.00  0.00    +0.066 C 
ATOM      4  C   UNL     1      37.557 -23.365 -12.225  0.00  0.00    +0.052 C 
ATOM      5  C   UNL     1      36.254 -23.371 -11.421  0.00  0.00    -0.016 C 
ATOM      6  C   UNL     1      38.298 -24.692 -12.041  0.00  0.00    -0.016 C 
ATOM      7  C   UNL     1      37.356 -25.860 -12.386  0.00  0.00    -0.076 C 
ATOM      8  C   UNL     1      35.421 -24.610 -11.798  0.00  0.00    -0.076 C 
ATOM      9  C   UNL     1      37.139 -23.327 -13.683  0.00  0.00    +0.137 C 
ATOM     10  H   UNL     1      35.463 -26.145 -13.204  0.00  0.00    -0.079 HD
ENDROOT
BRANCH   3  11
ATOM     11  C   UNL     1      36.935 -25.266 -15.260  0.00  0.00    +0.133 C 
BRANCH  11  12
ATOM     12  O   UNL     1      36.069 -26.301 -15.677  0.00  0.00    -0.353 OA
ATOM     13  C   UNL     1      36.760 -27.536 -15.846  0.00  0.00    +0.174 C 
ENDBRANCH  11  12
ENDBRANCH   3  11
BRANCH   3  14
ATOM     14  C   UNL     1      34.908 -23.955 -14.643  0.00  0.00    +0.128 C 
BRANCH  14  15
ATOM     15  O   UNL     1      35.065 -23.666 -16.015  0.00  0.00    -0.384 OA
ATOM     16  H   UNL     1      34.495 -22.919 -16.255  0.00  0.00    +0.210 HD
ENDBRANCH  14  15
ENDBRANCH   3  14
TORSDOF 4
ENDMDL
MODEL 9
REMARK VINA RESULT:      -5.1      2.059      3.183
REMARK  Name = 52918385
REMARK  4 active torsions:
REMARK  status: ('A' for Active; 'I' for Inactive)
REMARK    1  A    between atoms: C_3  and  C_11
REMARK    2  A    between atoms: C_3  and  C_14
REMARK    3  A    between atoms: C_11  and  O_12
REMARK    4  A    between atoms: C_14  and  O_15
REMARK                            x       y       z     vdW  Elec       q    Type
REMARK                         _______ _______ _______ _____ _____    ______ ____
ROOT
ATOM      1  O   UNL     1      36.853 -26.991 -12.726  0.00  0.00    -0.298 OA
ATOM      2  N   UNL     1      37.192 -23.758 -14.303  0.00  0.00    +0.397 N 
ATOM      3  C   UNL     1      36.386 -24.996 -14.046  0.00  0.00    +0.066 C 
ATOM      4  C   UNL     1      38.580 -25.311 -12.753  0.00  0.00    +0.052 C 
ATOM      5  C   UNL     1      39.307 -25.068 -14.080  0.00  0.00    -0.016 C 
ATOM      6  C   UNL     1      38.278 -23.977 -12.065  0.00  0.00    -0.016 C 
ATOM      7  C   UNL     1      37.517 -23.057 -13.035  0.00  0.00    -0.076 C 
ATOM      8  C   UNL     1      38.492 -24.087 -14.943  0.00  0.00    -0.076 C 
ATOM      9  C   UNL     1      37.230 -25.894 -13.128  0.00  0.00    +0.137 C 
ATOM     10  H   UNL     1      36.623 -23.169 -14.912  0.00  0.00    -0.079 HD
ENDROOT
BRANCH   3  11
ATOM     11  C   UNL     1      35.051 -24.673 -13.351  0.00  0.00    +0.133 C 
BRANCH  11  12
ATOM     12  O   UNL     1      34.048 -24.605 -14.342  0.00  0.00    -0.353 OA
ATOM     13  C   UNL     1      32.740 -24.614 -13.776  0.00  0.00    +0.174 C 
ENDBRANCH  11  12
ENDBRANCH   3  11
BRANCH   3  14
ATOM     14  C   UNL     1      36.074 -25.754 -15.349  0.00  0.00    +0.128 C 
BRANCH  14  15
ATOM     15  O   UNL     1      35.846 -27.107 -15.024  0.00  0.00    -0.384 OA
ATOM     16  H   UNL     1      35.722 -27.619 -15.838  0.00  0.00    +0.210 HD
ENDBRANCH  14  15
ENDBRANCH   3  14
TORSDOF 4
ENDMDL
