MODEL 1
REMARK VINA RESULT:     -11.3      0.000      0.000
REMARK  Name = 25113125
REMARK  7 active torsions:
REMARK  status: ('A' for Active; 'I' for Inactive)
REMARK    1  A    between atoms: C_3  and  C_10
REMARK    2  A    between atoms: C_7  and  C_19
REMARK    3  A    between atoms: N_9  and  C_12
REMARK    4  A    between atoms: C_12  and  C_13
REMARK    5  A    between atoms: C_19  and  N_20
REMARK    6  A    between atoms: C_19  and  C_24
REMARK    7  A    between atoms: C_24  and  C_25
REMARK                            x       y       z     vdW  Elec       q    Type
REMARK                         _______ _______ _______ _____ _____    ______ ____
ROOT
ATOM      1  O   UNL     1      35.093 -15.767 -20.451  0.00  0.00    -0.277 OA
ATOM      2  N   UNL     1      34.542 -15.972 -22.689  0.00  0.00    -0.275 N 
ATOM      3  C   UNL     1      34.278 -14.559 -22.926  0.00  0.00    +0.152 C 
ATOM      4  C   UNL     1      34.254 -14.418 -24.443  0.00  0.00    +0.031 C 
ATOM      5  C   UNL     1      33.782 -15.789 -24.920  0.00  0.00    +0.024 C 
ATOM      6  C   UNL     1      34.419 -16.744 -23.923  0.00  0.00    +0.094 C 
ATOM      7  C   UNL     1      35.003 -16.450 -21.472  0.00  0.00    +0.206 C 
ENDROOT
BRANCH   3  10
ATOM      8  O   UNL     1      32.241 -15.127 -21.819  0.00  0.00    -0.273 OA
ATOM      9  N   UNL     1      32.619 -12.909 -22.413  0.00  0.00    -0.299 N 
ATOM     10  C   UNL     1      32.942 -14.251 -22.317  0.00  0.00    +0.241 C 
ATOM     11  H   UNL     1      33.267 -12.300 -22.836  0.00  0.00    +0.150 HD
BRANCH   9  12
ATOM     12  C   UNL     1      31.376 -12.358 -21.923  0.00  0.00    +0.116 C 
BRANCH  12  13
ATOM     13  C   UNL     1      31.586 -11.073 -21.176  0.00  0.00    -0.003 C 
ATOM     14  C   UNL     1      31.499 -11.054 -19.784  0.00  0.00    -0.003 C 
ATOM     15  C   UNL     1      31.871  -9.899 -21.874  0.00  0.00    -0.003 C 
ATOM     16  C   UNL     1      31.696  -9.860 -19.089  0.00  0.00    -0.000 C 
ATOM     17  C   UNL     1      32.068  -8.706 -21.179  0.00  0.00    -0.000 C 
ATOM     18  C   UNL     1      31.980  -8.686 -19.787  0.00  0.00    -0.000 C 
ENDBRANCH  12  13
ENDBRANCH   9  12
ENDBRANCH   3  10
BRANCH   7  19
ATOM     19  C   UNL     1      35.393 -17.906 -21.452  0.00  0.00    +0.018 C 
BRANCH  19  20
ATOM     20  N   UNL     1      36.239 -18.094 -22.623  0.00  0.00    +0.388 N 
ATOM     21  H   UNL     1      36.867 -18.882 -22.465  0.00  0.00    -0.089 HD
ATOM     22  H   UNL     1      36.787 -17.249 -22.785  0.00  0.00    -0.089 HD
ATOM     23  H   UNL     1      35.655 -18.283 -23.438  0.00  0.00    -0.089 HD
ENDBRANCH  19  20
BRANCH  19  24
ATOM     24  C   UNL     1      34.160 -18.808 -21.508  0.00  0.00    +0.013 C 
BRANCH  24  25
ATOM     25  C   UNL     1      34.276 -20.013 -20.604  0.00  0.00    -0.024 C 
ATOM     26  C   UNL     1      33.127 -20.601 -20.073  0.00  0.00    -0.004 C 
ATOM     27  C   UNL     1      35.532 -20.539 -20.300  0.00  0.00    -0.004 C 
ATOM     28  C   UNL     1      33.233 -21.714 -19.240  0.00  0.00    -0.000 C 
ATOM     29  C   UNL     1      35.638 -21.653 -19.467  0.00  0.00    -0.000 C 
ATOM     30  C   UNL     1      34.489 -22.240 -18.936  0.00  0.00    -0.000 C 
ENDBRANCH  24  25
ENDBRANCH  19  24
ENDBRANCH   7  19
TORSDOF 7
ENDMDL
MODEL 2
REMARK VINA RESULT:     -11.2      1.908      2.756
REMARK  Name = 25113125
REMARK  7 active torsions:
REMARK  status: ('A' for Active; 'I' for Inactive)
REMARK    1  A    between atoms: C_3  and  C_10
REMARK    2  A    between atoms: C_7  and  C_19
REMARK    3  A    between atoms: N_9  and  C_12
REMARK    4  A    between atoms: C_12  and  C_13
REMARK    5  A    between atoms: C_19  and  N_20
REMARK    6  A    between atoms: C_19  and  C_24
REMARK    7  A    between atoms: C_24  and  C_25
REMARK                            x       y       z     vdW  Elec       q    Type
REMARK                         _______ _______ _______ _____ _____    ______ ____
ROOT
ATOM      1  O   UNL     1      34.156 -17.048 -24.146  0.00  0.00    -0.277 OA
ATOM      2  N   UNL     1      33.835 -15.792 -22.229  0.00  0.00    -0.275 N 
ATOM      3  C   UNL     1      32.984 -14.777 -22.835  0.00  0.00    +0.152 C 
ATOM      4  C   UNL     1      32.353 -14.047 -21.655  0.00  0.00    +0.031 C 
ATOM      5  C   UNL     1      33.397 -14.186 -20.551  0.00  0.00    +0.024 C 
ATOM      6  C   UNL     1      33.978 -15.570 -20.793  0.00  0.00    +0.094 C 
ATOM      7  C   UNL     1      34.296 -16.895 -22.932  0.00  0.00    +0.206 C 
ENDROOT
BRANCH   3  10
ATOM      8  O   UNL     1      35.013 -14.206 -23.955  0.00  0.00    -0.273 OA
ATOM      9  N   UNL     1      33.267 -12.666 -23.930  0.00  0.00    -0.299 N 
ATOM     10  C   UNL     1      33.874 -13.875 -23.637  0.00  0.00    +0.241 C 
ATOM     11  H   UNL     1      32.345 -12.517 -23.619  0.00  0.00    +0.150 HD
BRANCH   9  12
ATOM     12  C   UNL     1      33.922 -11.613 -24.673  0.00  0.00    +0.116 C 
BRANCH  12  13
ATOM     13  C   UNL     1      33.808 -10.285 -23.984  0.00  0.00    -0.003 C 
ATOM     14  C   UNL     1      34.770  -9.299 -24.206  0.00  0.00    -0.003 C 
ATOM     15  C   UNL     1      32.740 -10.034 -23.123  0.00  0.00    -0.003 C 
ATOM     16  C   UNL     1      34.664  -8.064 -23.567  0.00  0.00    -0.000 C 
ATOM     17  C   UNL     1      32.634  -8.799 -22.483  0.00  0.00    -0.000 C 
ATOM     18  C   UNL     1      33.596  -7.814 -22.705  0.00  0.00    -0.000 C 
ENDBRANCH  12  13
ENDBRANCH   9  12
ENDBRANCH   3  10
BRANCH   7  19
ATOM     19  C   UNL     1      35.015 -17.934 -22.111  0.00  0.00    +0.018 C 
BRANCH  19  20
ATOM     20  N   UNL     1      36.412 -17.846 -22.515  0.00  0.00    +0.388 N 
ATOM     21  H   UNL     1      36.512 -18.192 -23.470  0.00  0.00    -0.089 HD
ATOM     22  H   UNL     1      36.984 -18.410 -21.887  0.00  0.00    -0.089 HD
ATOM     23  H   UNL     1      36.717 -16.873 -22.473  0.00  0.00    -0.089 HD
ENDBRANCH  19  20
BRANCH  19  24
ATOM     24  C   UNL     1      34.450 -19.330 -22.371  0.00  0.00    +0.013 C 
BRANCH  24  25
ATOM     25  C   UNL     1      34.424 -20.191 -21.129  0.00  0.00    -0.024 C 
ATOM     26  C   UNL     1      33.209 -20.487 -20.510  0.00  0.00    -0.004 C 
ATOM     27  C   UNL     1      35.615 -20.692 -20.602  0.00  0.00    -0.004 C 
ATOM     28  C   UNL     1      33.185 -21.283 -19.365  0.00  0.00    -0.000 C 
ATOM     29  C   UNL     1      35.590 -21.488 -19.457  0.00  0.00    -0.000 C 
ATOM     30  C   UNL     1      34.375 -21.783 -18.838  0.00  0.00    -0.000 C 
ENDBRANCH  24  25
ENDBRANCH  19  24
ENDBRANCH   7  19
TORSDOF 7
ENDMDL
MODEL 3
REMARK VINA RESULT:     -10.9      1.872      8.771
REMARK  Name = 25113125
REMARK  7 active torsions:
REMARK  status: ('A' for Active; 'I' for Inactive)
REMARK    1  A    between atoms: C_3  and  C_10
REMARK    2  A    between atoms: C_7  and  C_19
REMARK    3  A    between atoms: N_9  and  C_12
REMARK    4  A    between atoms: C_12  and  C_13
REMARK    5  A    between atoms: C_19  and  N_20
REMARK    6  A    between atoms: C_19  and  C_24
REMARK    7  A    between atoms: C_24  and  C_25
REMARK                            x       y       z     vdW  Elec       q    Type
REMARK                         _______ _______ _______ _____ _____    ______ ____
ROOT
ATOM      1  O   UNL     1      35.297 -14.614 -23.997  0.00  0.00    -0.277 OA
ATOM      2  N   UNL     1      33.733 -14.940 -22.323  0.00  0.00    -0.275 N 
ATOM      3  C   UNL     1      34.615 -15.651 -21.407  0.00  0.00    +0.152 C 
ATOM      4  C   UNL     1      33.880 -15.638 -20.072  0.00  0.00    +0.031 C 
ATOM      5  C   UNL     1      32.409 -15.595 -20.477  0.00  0.00    +0.024 C 
ATOM      6  C   UNL     1      32.416 -14.729 -21.727  0.00  0.00    +0.094 C 
ATOM      7  C   UNL     1      34.176 -14.413 -23.525  0.00  0.00    +0.206 C 
ENDROOT
BRANCH   3  10
ATOM      8  O   UNL     1      34.216 -17.411 -22.969  0.00  0.00    -0.273 OA
ATOM      9  N   UNL     1      35.586 -17.823 -21.133  0.00  0.00    -0.299 N 
ATOM     10  C   UNL     1      34.776 -17.044 -21.940  0.00  0.00    +0.241 C 
ATOM     11  H   UNL     1      35.980 -17.414 -20.329  0.00  0.00    +0.150 HD
BRANCH   9  12
ATOM     12  C   UNL     1      35.882 -19.210 -21.414  0.00  0.00    +0.116 C 
BRANCH  12  13
ATOM     13  C   UNL     1      35.046 -20.142 -20.586  0.00  0.00    -0.003 C 
ATOM     14  C   UNL     1      33.658 -20.002 -20.565  0.00  0.00    -0.003 C 
ATOM     15  C   UNL     1      35.656 -21.150 -19.839  0.00  0.00    -0.003 C 
ATOM     16  C   UNL     1      32.881 -20.868 -19.797  0.00  0.00    -0.000 C 
ATOM     17  C   UNL     1      34.879 -22.017 -19.071  0.00  0.00    -0.000 C 
ATOM     18  C   UNL     1      33.491 -21.875 -19.049  0.00  0.00    -0.000 C 
ENDBRANCH  12  13
ENDBRANCH   9  12
ENDBRANCH   3  10
BRANCH   7  19
ATOM     19  C   UNL     1      33.180 -13.558 -24.266  0.00  0.00    +0.018 C 
BRANCH  19  20
ATOM     20  N   UNL     1      32.739 -14.369 -25.393  0.00  0.00    +0.388 N 
ATOM     21  H   UNL     1      32.808 -15.357 -25.148  0.00  0.00    -0.089 HD
ATOM     22  H   UNL     1      33.330 -14.177 -26.202  0.00  0.00    -0.089 HD
ATOM     23  H   UNL     1      31.770 -14.141 -25.618  0.00  0.00    -0.089 HD
ENDBRANCH  19  20
BRANCH  19  24
ATOM     24  C   UNL     1      33.818 -12.252 -24.739  0.00  0.00    +0.013 C 
BRANCH  24  25
ATOM     25  C   UNL     1      33.426 -11.067 -23.887  0.00  0.00    -0.024 C 
ATOM     26  C   UNL     1      34.087  -9.848 -24.039  0.00  0.00    -0.004 C 
ATOM     27  C   UNL     1      32.402 -11.192 -22.948  0.00  0.00    -0.004 C 
ATOM     28  C   UNL     1      33.725  -8.754 -23.254  0.00  0.00    -0.000 C 
ATOM     29  C   UNL     1      32.038 -10.097 -22.163  0.00  0.00    -0.000 C 
ATOM     30  C   UNL     1      32.700  -8.879 -22.316  0.00  0.00    -0.000 C 
ENDBRANCH  24  25
ENDBRANCH  19  24
ENDBRANCH   7  19
TORSDOF 7
ENDMDL
MODEL 4
REMARK VINA RESULT:     -10.5      3.602     10.559
REMARK  Name = 25113125
REMARK  7 active torsions:
REMARK  status: ('A' for Active; 'I' for Inactive)
REMARK    1  A    between atoms: C_3  and  C_10
REMARK    2  A    between atoms: C_7  and  C_19
REMARK    3  A    between atoms: N_9  and  C_12
REMARK    4  A    between atoms: C_12  and  C_13
REMARK    5  A    between atoms: C_19  and  N_20
REMARK    6  A    between atoms: C_19  and  C_24
REMARK    7  A    between atoms: C_24  and  C_25
REMARK                            x       y       z     vdW  Elec       q    Type
REMARK                         _______ _______ _______ _____ _____    ______ ____
ROOT
ATOM      1  O   UNL     1      31.180  -9.689 -22.667  0.00  0.00    -0.277 OA
ATOM      2  N   UNL     1      33.245  -9.880 -23.695  0.00  0.00    -0.275 N 
ATOM      3  C   UNL     1      32.997 -11.168 -24.330  0.00  0.00    +0.152 C 
ATOM      4  C   UNL     1      34.105 -11.308 -25.366  0.00  0.00    +0.031 C 
ATOM      5  C   UNL     1      35.257 -10.506 -24.765  0.00  0.00    +0.024 C 
ATOM      6  C   UNL     1      34.553  -9.351 -24.071  0.00  0.00    +0.094 C 
ATOM      7  C   UNL     1      32.274  -9.210 -22.966  0.00  0.00    +0.206 C 
ENDROOT
BRANCH   3  10
ATOM      8  O   UNL     1      32.359 -12.211 -22.280  0.00  0.00    -0.273 OA
ATOM      9  N   UNL     1      34.109 -13.125 -23.513  0.00  0.00    -0.299 N 
ATOM     10  C   UNL     1      33.098 -12.214 -23.260  0.00  0.00    +0.241 C 
ATOM     11  H   UNL     1      34.636 -13.023 -24.338  0.00  0.00    +0.150 HD
BRANCH   9  12
ATOM     12  C   UNL     1      34.428 -14.219 -22.624  0.00  0.00    +0.116 C 
BRANCH  12  13
ATOM     13  C   UNL     1      34.527 -15.526 -23.354  0.00  0.00    -0.003 C 
ATOM     14  C   UNL     1      35.135 -16.623 -22.741  0.00  0.00    -0.003 C 
ATOM     15  C   UNL     1      34.009 -15.647 -24.643  0.00  0.00    -0.003 C 
ATOM     16  C   UNL     1      35.226 -17.838 -23.419  0.00  0.00    -0.000 C 
ATOM     17  C   UNL     1      34.100 -16.863 -25.321  0.00  0.00    -0.000 C 
ATOM     18  C   UNL     1      34.709 -17.958 -24.709  0.00  0.00    -0.000 C 
ENDBRANCH  12  13
ENDBRANCH   9  12
ENDBRANCH   3  10
BRANCH   7  19
ATOM     19  C   UNL     1      32.640  -7.814 -22.529  0.00  0.00    +0.018 C 
BRANCH  19  20
ATOM     20  N   UNL     1      32.853  -7.905 -21.090  0.00  0.00    +0.388 N 
ATOM     21  H   UNL     1      32.520  -8.808 -20.754  0.00  0.00    -0.089 HD
ATOM     22  H   UNL     1      32.339  -7.157 -20.623  0.00  0.00    -0.089 HD
ATOM     23  H   UNL     1      33.848  -7.812 -20.887  0.00  0.00    -0.089 HD
ENDBRANCH  19  20
BRANCH  19  24
ATOM     24  C   UNL     1      31.526  -6.822 -22.863  0.00  0.00    +0.013 C 
BRANCH  24  25
ATOM     25  C   UNL     1      31.877  -5.918 -24.022  0.00  0.00    -0.024 C 
ATOM     26  C   UNL     1      33.042  -6.145 -24.756  0.00  0.00    -0.004 C 
ATOM     27  C   UNL     1      31.037  -4.857 -24.359  0.00  0.00    -0.004 C 
ATOM     28  C   UNL     1      33.366  -5.312 -25.826  0.00  0.00    -0.000 C 
ATOM     29  C   UNL     1      31.360  -4.024 -25.430  0.00  0.00    -0.000 C 
ATOM     30  C   UNL     1      32.525  -4.251 -26.164  0.00  0.00    -0.000 C 
ENDBRANCH  24  25
ENDBRANCH  19  24
ENDBRANCH   7  19
TORSDOF 7
ENDMDL
MODEL 5
REMARK VINA RESULT:     -10.5      6.789     11.957
REMARK  Name = 25113125
REMARK  7 active torsions:
REMARK  status: ('A' for Active; 'I' for Inactive)
REMARK    1  A    between atoms: C_3  and  C_10
REMARK    2  A    between atoms: C_7  and  C_19
REMARK    3  A    between atoms: N_9  and  C_12
REMARK    4  A    between atoms: C_12  and  C_13
REMARK    5  A    between atoms: C_19  and  N_20
REMARK    6  A    between atoms: C_19  and  C_24
REMARK    7  A    between atoms: C_24  and  C_25
REMARK                            x       y       z     vdW  Elec       q    Type
REMARK                         _______ _______ _______ _____ _____    ______ ____
ROOT
ATOM      1  O   UNL     1      34.833 -22.638 -16.068  0.00  0.00    -0.277 OA
ATOM      2  N   UNL     1      32.573 -23.117 -15.929  0.00  0.00    -0.275 N 
ATOM      3  C   UNL     1      32.441 -22.883 -14.497  0.00  0.00    +0.152 C 
ATOM      4  C   UNL     1      30.939 -22.785 -14.258  0.00  0.00    +0.031 C 
ATOM      5  C   UNL     1      30.346 -23.664 -15.356  0.00  0.00    +0.024 C 
ATOM      6  C   UNL     1      31.281 -23.430 -16.532  0.00  0.00    +0.094 C 
ATOM      7  C   UNL     1      33.759 -22.901 -16.612  0.00  0.00    +0.206 C 
ENDROOT
BRANCH   3  10
ATOM      8  O   UNL     1      32.460 -25.148 -13.744  0.00  0.00    -0.273 OA
ATOM      9  N   UNL     1      34.269 -23.774 -13.232  0.00  0.00    -0.299 N 
ATOM     10  C   UNL     1      33.040 -24.067 -13.799  0.00  0.00    +0.241 C 
ATOM     11  H   UNL     1      34.632 -22.867 -13.345  0.00  0.00    +0.150 HD
BRANCH   9  12
ATOM     12  C   UNL     1      35.044 -24.738 -12.484  0.00  0.00    +0.116 C 
BRANCH  12  13
ATOM     13  C   UNL     1      36.348 -25.054 -13.156  0.00  0.00    -0.003 C 
ATOM     14  C   UNL     1      37.546 -24.907 -12.456  0.00  0.00    -0.003 C 
ATOM     15  C   UNL     1      36.363 -25.496 -14.478  0.00  0.00    -0.003 C 
ATOM     16  C   UNL     1      38.759 -25.202 -13.079  0.00  0.00    -0.000 C 
ATOM     17  C   UNL     1      37.575 -25.791 -15.102  0.00  0.00    -0.000 C 
ATOM     18  C   UNL     1      38.773 -25.644 -14.402  0.00  0.00    -0.000 C 
ENDBRANCH  12  13
ENDBRANCH   9  12
ENDBRANCH   3  10
BRANCH   7  19
ATOM     19  C   UNL     1      33.676 -23.021 -18.113  0.00  0.00    +0.018 C 
BRANCH  19  20
ATOM     20  N   UNL     1      33.609 -24.451 -18.382  0.00  0.00    +0.388 N 
ATOM     21  H   UNL     1      33.429 -24.603 -19.374  0.00  0.00    -0.089 HD
ATOM     22  H   UNL     1      32.857 -24.866 -17.832  0.00  0.00    -0.089 HD
ATOM     23  H   UNL     1      34.496 -24.887 -18.127  0.00  0.00    -0.089 HD
ENDBRANCH  19  20
BRANCH  19  24
ATOM     24  C   UNL     1      34.892 -22.386 -18.786  0.00  0.00    +0.013 C 
BRANCH  24  25
ATOM     25  C   UNL     1      34.525 -21.226 -19.682  0.00  0.00    -0.024 C 
ATOM     26  C   UNL     1      33.187 -20.860 -19.838  0.00  0.00    -0.004 C 
ATOM     27  C   UNL     1      35.523 -20.518 -20.352  0.00  0.00    -0.004 C 
ATOM     28  C   UNL     1      32.848 -19.789 -20.663  0.00  0.00    -0.000 C 
ATOM     29  C   UNL     1      35.184 -19.446 -21.177  0.00  0.00    -0.000 C 
ATOM     30  C   UNL     1      33.846 -19.082 -21.333  0.00  0.00    -0.000 C 
ENDBRANCH  24  25
ENDBRANCH  19  24
ENDBRANCH   7  19
TORSDOF 7
ENDMDL
MODEL 6
REMARK VINA RESULT:     -10.5      6.536     10.953
REMARK  Name = 25113125
REMARK  7 active torsions:
REMARK  status: ('A' for Active; 'I' for Inactive)
REMARK    1  A    between atoms: C_3  and  C_10
REMARK    2  A    between atoms: C_7  and  C_19
REMARK    3  A    between atoms: N_9  and  C_12
REMARK    4  A    between atoms: C_12  and  C_13
REMARK    5  A    between atoms: C_19  and  N_20
REMARK    6  A    between atoms: C_19  and  C_24
REMARK    7  A    between atoms: C_24  and  C_25
REMARK                            x       y       z     vdW  Elec       q    Type
REMARK                         _______ _______ _______ _____ _____    ______ ____
ROOT
ATOM      1  O   UNL     1      33.420 -24.071 -17.337  0.00  0.00    -0.277 OA
ATOM      2  N   UNL     1      35.329 -23.029 -16.545  0.00  0.00    -0.275 N 
ATOM      3  C   UNL     1      35.738 -24.095 -15.640  0.00  0.00    +0.152 C 
ATOM      4  C   UNL     1      37.184 -23.768 -15.286  0.00  0.00    +0.031 C 
ATOM      5  C   UNL     1      37.242 -22.247 -15.399  0.00  0.00    +0.024 C 
ATOM      6  C   UNL     1      36.310 -21.947 -16.562  0.00  0.00    +0.094 C 
ATOM      7  C   UNL     1      34.228 -23.142 -17.380  0.00  0.00    +0.206 C 
ENDROOT
BRANCH   3  10
ATOM      8  O   UNL     1      35.218 -23.541 -13.377  0.00  0.00    -0.273 OA
ATOM      9  N   UNL     1      33.595 -24.575 -14.686  0.00  0.00    -0.299 N 
ATOM     10  C   UNL     1      34.840 -24.023 -14.441  0.00  0.00    +0.241 C 
ATOM     11  H   UNL     1      33.409 -24.932 -15.584  0.00  0.00    +0.150 HD
BRANCH   9  12
ATOM     12  C   UNL     1      32.553 -24.651 -13.686  0.00  0.00    +0.116 C 
BRANCH  12  13
ATOM     13  C   UNL     1      31.206 -24.306 -14.251  0.00  0.00    -0.003 C 
ATOM     14  C   UNL     1      30.912 -22.987 -14.597  0.00  0.00    -0.003 C 
ATOM     15  C   UNL     1      30.249 -25.304 -14.432  0.00  0.00    -0.003 C 
ATOM     16  C   UNL     1      29.661 -22.666 -15.123  0.00  0.00    -0.000 C 
ATOM     17  C   UNL     1      28.997 -24.983 -14.958  0.00  0.00    -0.000 C 
ATOM     18  C   UNL     1      28.703 -23.664 -15.302  0.00  0.00    -0.000 C 
ENDBRANCH  12  13
ENDBRANCH   9  12
ENDBRANCH   3  10
BRANCH   7  19
ATOM     19  C   UNL     1      34.051 -22.024 -18.376  0.00  0.00    +0.018 C 
BRANCH  19  20
ATOM     20  N   UNL     1      32.654 -22.090 -18.783  0.00  0.00    +0.388 N 
ATOM     21  H   UNL     1      32.561 -22.719 -19.581  0.00  0.00    -0.089 HD
ATOM     22  H   UNL     1      32.332 -21.158 -19.046  0.00  0.00    -0.089 HD
ATOM     23  H   UNL     1      32.089 -22.439 -18.008  0.00  0.00    -0.089 HD
ENDBRANCH  19  20
BRANCH  19  24
ATOM     24  C   UNL     1      34.986 -22.198 -19.573  0.00  0.00    +0.013 C 
BRANCH  24  25
ATOM     25  C   UNL     1      35.361 -20.883 -20.216  0.00  0.00    -0.024 C 
ATOM     26  C   UNL     1      36.689 -20.452 -20.201  0.00  0.00    -0.004 C 
ATOM     27  C   UNL     1      34.382 -20.100 -20.828  0.00  0.00    -0.004 C 
ATOM     28  C   UNL     1      37.036 -19.241 -20.797  0.00  0.00    -0.000 C 
ATOM     29  C   UNL     1      34.730 -18.888 -21.424  0.00  0.00    -0.000 C 
ATOM     30  C   UNL     1      36.056 -18.458 -21.408  0.00  0.00    -0.000 C 
ENDBRANCH  24  25
ENDBRANCH  19  24
ENDBRANCH   7  19
TORSDOF 7
ENDMDL
MODEL 7
REMARK VINA RESULT:     -10.4      2.686      9.708
REMARK  Name = 25113125
REMARK  7 active torsions:
REMARK  status: ('A' for Active; 'I' for Inactive)
REMARK    1  A    between atoms: C_3  and  C_10
REMARK    2  A    between atoms: C_7  and  C_19
REMARK    3  A    between atoms: N_9  and  C_12
REMARK    4  A    between atoms: C_12  and  C_13
REMARK    5  A    between atoms: C_19  and  N_20
REMARK    6  A    between atoms: C_19  and  C_24
REMARK    7  A    between atoms: C_24  and  C_25
REMARK                            x       y       z     vdW  Elec       q    Type
REMARK                         _______ _______ _______ _____ _____    ______ ____
ROOT
ATOM      1  O   UNL     1      31.114 -11.131 -21.070  0.00  0.00    -0.277 OA
ATOM      2  N   UNL     1      32.554 -11.610 -22.817  0.00  0.00    -0.275 N 
ATOM      3  C   UNL     1      32.140 -12.995 -23.001  0.00  0.00    +0.152 C 
ATOM      4  C   UNL     1      32.709 -13.393 -24.357  0.00  0.00    +0.031 C 
ATOM      5  C   UNL     1      33.955 -12.521 -24.489  0.00  0.00    +0.024 C 
ATOM      6  C   UNL     1      33.542 -11.220 -23.819  0.00  0.00    +0.094 C 
ATOM      7  C   UNL     1      31.945 -10.766 -21.902  0.00  0.00    +0.206 C 
ENDROOT
BRANCH   3  10
ATOM      8  O   UNL     1      32.335 -13.711 -20.732  0.00  0.00    -0.273 OA
ATOM      9  N   UNL     1      33.812 -14.566 -22.315  0.00  0.00    -0.299 N 
ATOM     10  C   UNL     1      32.750 -13.789 -21.884  0.00  0.00    +0.241 C 
ATOM     11  H   UNL     1      34.052 -14.544 -23.269  0.00  0.00    +0.150 HD
BRANCH   9  12
ATOM     12  C   UNL     1      34.586 -15.407 -21.430  0.00  0.00    +0.116 C 
BRANCH  12  13
ATOM     13  C   UNL     1      34.737 -16.800 -21.968  0.00  0.00    -0.003 C 
ATOM     14  C   UNL     1      34.613 -17.895 -21.113  0.00  0.00    -0.003 C 
ATOM     15  C   UNL     1      35.000 -16.999 -23.324  0.00  0.00    -0.003 C 
ATOM     16  C   UNL     1      34.753 -19.190 -21.614  0.00  0.00    -0.000 C 
ATOM     17  C   UNL     1      35.139 -18.294 -23.824  0.00  0.00    -0.000 C 
ATOM     18  C   UNL     1      35.016 -19.389 -22.969  0.00  0.00    -0.000 C 
ENDBRANCH  12  13
ENDBRANCH   9  12
ENDBRANCH   3  10
BRANCH   7  19
ATOM     19  C   UNL     1      32.375  -9.322 -21.965  0.00  0.00    +0.018 C 
BRANCH  19  20
ATOM     20  N   UNL     1      32.305  -8.839 -20.593  0.00  0.00    +0.388 N 
ATOM     21  H   UNL     1      31.810  -9.520 -20.017  0.00  0.00    -0.089 HD
ATOM     22  H   UNL     1      31.808  -7.948 -20.570  0.00  0.00    -0.089 HD
ATOM     23  H   UNL     1      33.250  -8.710 -20.229  0.00  0.00    -0.089 HD
ENDBRANCH  19  20
BRANCH  19  24
ATOM     24  C   UNL     1      31.459  -8.514 -22.884  0.00  0.00    +0.013 C 
BRANCH  24  25
ATOM     25  C   UNL     1      32.216  -7.525 -23.741  0.00  0.00    -0.024 C 
ATOM     26  C   UNL     1      33.598  -7.645 -23.890  0.00  0.00    -0.004 C 
ATOM     27  C   UNL     1      31.533  -6.493 -24.385  0.00  0.00    -0.004 C 
ATOM     28  C   UNL     1      34.296  -6.735 -24.682  0.00  0.00    -0.000 C 
ATOM     29  C   UNL     1      32.231  -5.582 -25.177  0.00  0.00    -0.000 C 
ATOM     30  C   UNL     1      33.613  -5.703 -25.325  0.00  0.00    -0.000 C 
ENDBRANCH  24  25
ENDBRANCH  19  24
ENDBRANCH   7  19
TORSDOF 7
ENDMDL
MODEL 8
REMARK VINA RESULT:     -10.2      1.442      8.997
REMARK  Name = 25113125
REMARK  7 active torsions:
REMARK  status: ('A' for Active; 'I' for Inactive)
REMARK    1  A    between atoms: C_3  and  C_10
REMARK    2  A    between atoms: C_7  and  C_19
REMARK    3  A    between atoms: N_9  and  C_12
REMARK    4  A    between atoms: C_12  and  C_13
REMARK    5  A    between atoms: C_19  and  N_20
REMARK    6  A    between atoms: C_19  and  C_24
REMARK    7  A    between atoms: C_24  and  C_25
REMARK                            x       y       z     vdW  Elec       q    Type
REMARK                         _______ _______ _______ _____ _____    ______ ____
ROOT
ATOM      1  O   UNL     1      32.074 -13.985 -20.436  0.00  0.00    -0.277 OA
ATOM      2  N   UNL     1      32.916 -13.298 -22.479  0.00  0.00    -0.275 N 
ATOM      3  C   UNL     1      33.031 -14.625 -23.068  0.00  0.00    +0.152 C 
ATOM      4  C   UNL     1      33.223 -14.373 -24.559  0.00  0.00    +0.031 C 
ATOM      5  C   UNL     1      33.916 -13.013 -24.602  0.00  0.00    +0.024 C 
ATOM      6  C   UNL     1      33.284 -12.262 -23.441  0.00  0.00    +0.094 C 
ATOM      7  C   UNL     1      32.373 -13.085 -21.222  0.00  0.00    +0.206 C 
ENDROOT
BRANCH   3  10
ATOM      8  O   UNL     1      35.046 -14.643 -21.789  0.00  0.00    -0.273 OA
ATOM      9  N   UNL     1      34.304 -16.628 -22.751  0.00  0.00    -0.299 N 
ATOM     10  C   UNL     1      34.233 -15.278 -22.454  0.00  0.00    +0.241 C 
ATOM     11  H   UNL     1      33.588 -17.027 -23.296  0.00  0.00    +0.150 HD
BRANCH   9  12
ATOM     12  C   UNL     1      35.379 -17.482 -22.297  0.00  0.00    +0.116 C 
BRANCH  12  13
ATOM     13  C   UNL     1      34.874 -18.645 -21.496  0.00  0.00    -0.003 C 
ATOM     14  C   UNL     1      35.775 -19.561 -20.951  0.00  0.00    -0.003 C 
ATOM     15  C   UNL     1      33.504 -18.810 -21.292  0.00  0.00    -0.003 C 
ATOM     16  C   UNL     1      35.305 -20.642 -20.205  0.00  0.00    -0.000 C 
ATOM     17  C   UNL     1      33.034 -19.891 -20.546  0.00  0.00    -0.000 C 
ATOM     18  C   UNL     1      33.935 -20.807 -20.003  0.00  0.00    -0.000 C 
ENDBRANCH  12  13
ENDBRANCH   9  12
ENDBRANCH   3  10
BRANCH   7  19
ATOM     19  C   UNL     1      32.167 -11.641 -20.840  0.00  0.00    +0.018 C 
BRANCH  19  20
ATOM     20  N   UNL     1      31.650 -11.674 -19.478  0.00  0.00    +0.388 N 
ATOM     21  H   UNL     1      31.099 -10.833 -19.303  0.00  0.00    -0.089 HD
ATOM     22  H   UNL     1      32.428 -11.714 -18.820  0.00  0.00    -0.089 HD
ATOM     23  H   UNL     1      31.059 -12.497 -19.358  0.00  0.00    -0.089 HD
ENDBRANCH  19  20
BRANCH  19  24
ATOM     24  C   UNL     1      31.186 -10.953 -21.789  0.00  0.00    +0.013 C 
BRANCH  24  25
ATOM     25  C   UNL     1      31.543  -9.509 -22.052  0.00  0.00    -0.024 C 
ATOM     26  C   UNL     1      32.129  -8.740 -21.046  0.00  0.00    -0.004 C 
ATOM     27  C   UNL     1      31.288  -8.943 -23.301  0.00  0.00    -0.004 C 
ATOM     28  C   UNL     1      32.460  -7.408 -21.288  0.00  0.00    -0.000 C 
ATOM     29  C   UNL     1      31.619  -7.610 -23.544  0.00  0.00    -0.000 C 
ATOM     30  C   UNL     1      32.205  -6.842 -22.537  0.00  0.00    -0.000 C 
ENDBRANCH  24  25
ENDBRANCH  19  24
ENDBRANCH   7  19
TORSDOF 7
ENDMDL
MODEL 9
REMARK VINA RESULT:     -10.2      5.973      9.308
REMARK  Name = 25113125
REMARK  7 active torsions:
REMARK  status: ('A' for Active; 'I' for Inactive)
REMARK    1  A    between atoms: C_3  and  C_10
REMARK    2  A    between atoms: C_7  and  C_19
REMARK    3  A    between atoms: N_9  and  C_12
REMARK    4  A    between atoms: C_12  and  C_13
REMARK    5  A    between atoms: C_19  and  N_20
REMARK    6  A    between atoms: C_19  and  C_24
REMARK    7  A    between atoms: C_24  and  C_25
REMARK                            x       y       z     vdW  Elec       q    Type
REMARK                         _______ _______ _______ _____ _____    ______ ____
ROOT
ATOM      1  O   UNL     1      35.883 -22.646 -18.227  0.00  0.00    -0.277 OA
ATOM      2  N   UNL     1      34.468 -22.940 -16.419  0.00  0.00    -0.275 N 
ATOM      3  C   UNL     1      33.395 -23.599 -17.153  0.00  0.00    +0.152 C 
ATOM      4  C   UNL     1      32.511 -24.214 -16.075  0.00  0.00    +0.031 C 
ATOM      5  C   UNL     1      32.707 -23.284 -14.880  0.00  0.00    +0.024 C 
ATOM      6  C   UNL     1      34.168 -22.877 -14.991  0.00  0.00    +0.094 C 
ATOM      7  C   UNL     1      35.666 -22.579 -17.016  0.00  0.00    +0.206 C 
ENDROOT
BRANCH   3  10
ATOM      8  O   UNL     1      31.566 -22.128 -17.589  0.00  0.00    -0.273 OA
ATOM      9  N   UNL     1      33.387 -22.124 -19.039  0.00  0.00    -0.299 N 
ATOM     10  C   UNL     1      32.673 -22.537 -17.928  0.00  0.00    +0.241 C 
ATOM     11  H   UNL     1      34.268 -22.528 -19.207  0.00  0.00    +0.150 HD
BRANCH   9  12
ATOM     12  C   UNL     1      32.900 -21.126 -19.965  0.00  0.00    +0.116 C 
BRANCH  12  13
ATOM     13  C   UNL     1      33.995 -20.216 -20.437  0.00  0.00    -0.003 C 
ATOM     14  C   UNL     1      33.679 -19.011 -21.067  0.00  0.00    -0.003 C 
ATOM     15  C   UNL     1      35.330 -20.572 -20.245  0.00  0.00    -0.003 C 
ATOM     16  C   UNL     1      34.697 -18.164 -21.505  0.00  0.00    -0.000 C 
ATOM     17  C   UNL     1      36.348 -19.725 -20.684  0.00  0.00    -0.000 C 
ATOM     18  C   UNL     1      36.031 -18.521 -21.314  0.00  0.00    -0.000 C 
ENDBRANCH  12  13
ENDBRANCH   9  12
ENDBRANCH   3  10
BRANCH   7  19
ATOM     19  C   UNL     1      36.731 -22.070 -16.078  0.00  0.00    +0.018 C 
BRANCH  19  20
ATOM     20  N   UNL     1      37.266 -20.875 -16.716  0.00  0.00    +0.388 N 
ATOM     21  H   UNL     1      38.190 -20.670 -16.335  0.00  0.00    -0.089 HD
ATOM     22  H   UNL     1      36.642 -20.087 -16.538  0.00  0.00    -0.089 HD
ATOM     23  H   UNL     1      37.340 -21.030 -17.722  0.00  0.00    -0.089 HD
ENDBRANCH  19  20
BRANCH  19  24
ATOM     24  C   UNL     1      37.822 -23.118 -15.861  0.00  0.00    +0.013 C 
BRANCH  24  25
ATOM     25  C   UNL     1      37.538 -24.023 -14.684  0.00  0.00    -0.024 C 
ATOM     26  C   UNL     1      37.409 -25.399 -14.877  0.00  0.00    -0.004 C 
ATOM     27  C   UNL     1      37.406 -23.483 -13.405  0.00  0.00    -0.004 C 
ATOM     28  C   UNL     1      37.149 -26.234 -13.791  0.00  0.00    -0.000 C 
ATOM     29  C   UNL     1      37.146 -24.319 -12.319  0.00  0.00    -0.000 C 
ATOM     30  C   UNL     1      37.017 -25.694 -12.512  0.00  0.00    -0.000 C 
ENDBRANCH  24  25
ENDBRANCH  19  24
ENDBRANCH   7  19
TORSDOF 7
ENDMDL
