MODEL 1
REMARK VINA RESULT:      -9.7      0.000      0.000
REMARK  Name = 270278
REMARK  5 active torsions:
REMARK  status: ('A' for Active; 'I' for Inactive)
REMARK    1  A    between atoms: C_4  and  C_17
REMARK    2  A    between atoms: C_5  and  C_9
REMARK    3  A    between atoms: C_7  and  S_15
REMARK    4  A    between atoms: C_17  and  C_18
REMARK    5  A    between atoms: C_21  and  O_28
REMARK                            x       y       z     vdW  Elec       q    Type
REMARK                         _______ _______ _______ _____ _____    ______ ____
ROOT
ATOM      1  O   UNL     1      30.488 -11.803 -20.764  0.00  0.00    -0.210 OA
ATOM      2  N   UNL     1      33.006  -9.203 -22.417  0.00  0.00    -0.282 N 
ATOM      3  N   UNL     1      31.446  -9.720 -20.721  0.00  0.00    -0.311 NA
ATOM      4  C   UNL     1      32.037 -11.359 -22.511  0.00  0.00    +0.090 C 
ATOM      5  C   UNL     1      32.877 -10.431 -23.016  0.00  0.00    +0.059 C 
ATOM      6  C   UNL     1      31.257 -10.984 -21.261  0.00  0.00    +0.204 C 
ATOM      7  C   UNL     1      32.280  -8.910 -21.298  0.00  0.00    +0.220 C 
ATOM      8  H   UNL     1      33.620  -8.532 -22.795  0.00  0.00    +0.155 HD
ENDROOT
BRANCH   5   9
ATOM      9  C   UNL     1      33.693 -10.662 -24.216  0.00  0.00    +0.014 C 
ATOM     10  C   UNL     1      34.905  -9.989 -24.375  0.00  0.00    +0.001 C 
ATOM     11  C   UNL     1      33.256 -11.552 -25.197  0.00  0.00    +0.001 C 
ATOM     12  C   UNL     1      35.681 -10.208 -25.514  0.00  0.00    +0.000 C 
ATOM     13  C   UNL     1      34.032 -11.770 -26.336  0.00  0.00    +0.000 C 
ATOM     14  C   UNL     1      35.244 -11.098 -26.495  0.00  0.00    +0.000 C 
ENDBRANCH   5   9
BRANCH   7  15
ATOM     15  S   UNL     1      32.512  -7.314 -20.609  0.00  0.00    -0.094 S 
ATOM     16  H   UNL     1      33.781  -6.893 -20.860  0.00  0.00    +0.111 HD
ENDBRANCH   7  15
BRANCH   4  17
ATOM     17  C   UNL     1      31.781 -12.732 -23.057  0.00  0.00    +0.070 C 
BRANCH  17  18
ATOM     18  C   UNL     1      32.789 -13.742 -22.596  0.00  0.00    +0.017 C 
ATOM     19  C   UNL     1      33.379 -14.646 -23.495  0.00  0.00    -0.001 C 
ATOM     20  C   UNL     1      34.324 -15.582 -23.015  0.00  0.00    -0.000 C 
ATOM     21  C   UNL     1      33.128 -13.761 -21.243  0.00  0.00    +0.130 C 
ATOM     22  C   UNL     1      33.049 -14.642 -24.860  0.00  0.00    -0.000 C 
ATOM     23  C   UNL     1      34.654 -15.587 -21.649  0.00  0.00    +0.003 C 
ATOM     24  C   UNL     1      34.059 -14.681 -20.771  0.00  0.00    +0.036 C 
ATOM     25  C   UNL     1      34.914 -16.487 -23.913  0.00  0.00    -0.000 C 
ATOM     26  C   UNL     1      33.645 -15.548 -25.739  0.00  0.00    -0.000 C 
ATOM     27  C   UNL     1      34.575 -16.468 -25.266  0.00  0.00    -0.000 C 
BRANCH  21  28
ATOM     28  O   UNL     1      32.559 -12.886 -20.366  0.00  0.00    -0.506 OA
ATOM     29  H   UNL     1      32.390 -12.003 -20.629  0.00  0.00    +0.292 HD
ENDBRANCH  21  28
ENDBRANCH  17  18
ENDBRANCH   4  17
TORSDOF 5
ENDMDL
MODEL 2
REMARK VINA RESULT:      -9.5      2.666      5.249
REMARK  Name = 270278
REMARK  5 active torsions:
REMARK  status: ('A' for Active; 'I' for Inactive)
REMARK    1  A    between atoms: C_4  and  C_17
REMARK    2  A    between atoms: C_5  and  C_9
REMARK    3  A    between atoms: C_7  and  S_15
REMARK    4  A    between atoms: C_17  and  C_18
REMARK    5  A    between atoms: C_21  and  O_28
REMARK                            x       y       z     vdW  Elec       q    Type
REMARK                         _______ _______ _______ _____ _____    ______ ____
ROOT
ATOM      1  O   UNL     1      31.812 -12.632 -20.091  0.00  0.00    -0.210 OA
ATOM      2  N   UNL     1      33.959 -14.734 -22.701  0.00  0.00    -0.282 N 
ATOM      3  N   UNL     1      33.291 -14.344 -20.468  0.00  0.00    -0.311 NA
ATOM      4  C   UNL     1      32.441 -12.952 -22.360  0.00  0.00    +0.090 C 
ATOM      5  C   UNL     1      33.190 -13.708 -23.191  0.00  0.00    +0.059 C 
ATOM      6  C   UNL     1      32.485 -13.292 -20.880  0.00  0.00    +0.204 C 
ATOM      7  C   UNL     1      33.970 -14.999 -21.361  0.00  0.00    +0.220 C 
ATOM      8  H   UNL     1      34.503 -15.279 -23.314  0.00  0.00    +0.155 HD
ENDROOT
BRANCH   5   9
ATOM      9  C   UNL     1      33.238 -13.492 -24.643  0.00  0.00    +0.014 C 
ATOM     10  C   UNL     1      32.674 -14.431 -25.507  0.00  0.00    +0.001 C 
ATOM     11  C   UNL     1      33.847 -12.349 -25.159  0.00  0.00    +0.001 C 
ATOM     12  C   UNL     1      32.718 -14.227 -26.886  0.00  0.00    +0.000 C 
ATOM     13  C   UNL     1      33.892 -12.144 -26.539  0.00  0.00    +0.000 C 
ATOM     14  C   UNL     1      33.328 -13.084 -27.402  0.00  0.00    +0.000 C 
ENDBRANCH   5   9
BRANCH   7  15
ATOM     15  S   UNL     1      34.985 -16.327 -20.833  0.00  0.00    -0.094 S 
ATOM     16  H   UNL     1      36.032 -16.465 -21.690  0.00  0.00    +0.111 HD
ENDBRANCH   7  15
BRANCH   4  17
ATOM     17  C   UNL     1      31.565 -11.796 -22.743  0.00  0.00    +0.070 C 
BRANCH  17  18
ATOM     18  C   UNL     1      31.947 -10.519 -22.057  0.00  0.00    +0.017 C 
ATOM     19  C   UNL     1      32.923  -9.665 -22.598  0.00  0.00    -0.001 C 
ATOM     20  C   UNL     1      33.252  -8.470 -21.916  0.00  0.00    -0.000 C 
ATOM     21  C   UNL     1      31.305 -10.198 -20.862  0.00  0.00    +0.130 C 
ATOM     22  C   UNL     1      33.580  -9.972 -23.801  0.00  0.00    -0.000 C 
ATOM     23  C   UNL     1      32.595  -8.163 -20.713  0.00  0.00    +0.003 C 
ATOM     24  C   UNL     1      31.629  -9.023 -20.191  0.00  0.00    +0.036 C 
ATOM     25  C   UNL     1      34.228  -7.617 -22.456  0.00  0.00    -0.000 C 
ATOM     26  C   UNL     1      34.547  -9.112 -24.324  0.00  0.00    -0.000 C 
ATOM     27  C   UNL     1      34.870  -7.938 -23.653  0.00  0.00    -0.000 C 
BRANCH  21  28
ATOM     28  O   UNL     1      30.358 -11.022 -20.332  0.00  0.00    -0.506 OA
ATOM     29  H   UNL     1      30.244 -11.886 -20.676  0.00  0.00    +0.292 HD
ENDBRANCH  21  28
ENDBRANCH  17  18
ENDBRANCH   4  17
TORSDOF 5
ENDMDL
MODEL 3
REMARK VINA RESULT:      -9.4      4.018      5.940
REMARK  Name = 270278
REMARK  5 active torsions:
REMARK  status: ('A' for Active; 'I' for Inactive)
REMARK    1  A    between atoms: C_4  and  C_17
REMARK    2  A    between atoms: C_5  and  C_9
REMARK    3  A    between atoms: C_7  and  S_15
REMARK    4  A    between atoms: C_17  and  C_18
REMARK    5  A    between atoms: C_21  and  O_28
REMARK                            x       y       z     vdW  Elec       q    Type
REMARK                         _______ _______ _______ _____ _____    ______ ____
ROOT
ATOM      1  O   UNL     1      35.090 -17.494 -23.691  0.00  0.00    -0.210 OA
ATOM      2  N   UNL     1      32.916 -14.232 -24.380  0.00  0.00    -0.282 N 
ATOM      3  N   UNL     1      34.084 -16.107 -25.216  0.00  0.00    -0.311 NA
ATOM      4  C   UNL     1      33.946 -15.625 -22.769  0.00  0.00    +0.090 C 
ATOM      5  C   UNL     1      33.209 -14.536 -23.074  0.00  0.00    +0.059 C 
ATOM      6  C   UNL     1      34.423 -16.488 -23.925  0.00  0.00    +0.204 C 
ATOM      7  C   UNL     1      33.372 -15.036 -25.386  0.00  0.00    +0.220 C 
ATOM      8  H   UNL     1      32.379 -13.434 -24.591  0.00  0.00    +0.155 HD
ENDROOT
BRANCH   5   9
ATOM      9  C   UNL     1      32.681 -13.618 -22.055  0.00  0.00    +0.014 C 
ATOM     10  C   UNL     1      32.051 -12.436 -22.441  0.00  0.00    +0.001 C 
ATOM     11  C   UNL     1      32.810 -13.929 -20.701  0.00  0.00    +0.001 C 
ATOM     12  C   UNL     1      31.548 -11.564 -21.475  0.00  0.00    +0.000 C 
ATOM     13  C   UNL     1      32.309 -13.056 -19.734  0.00  0.00    +0.000 C 
ATOM     14  C   UNL     1      31.678 -11.874 -20.121  0.00  0.00    +0.000 C 
ENDBRANCH   5   9
BRANCH   7  15
ATOM     15  S   UNL     1      32.948 -14.561 -27.020  0.00  0.00    -0.094 S 
ATOM     16  H   UNL     1      33.934 -14.948 -27.873  0.00  0.00    +0.111 HD
ENDBRANCH   7  15
BRANCH   4  17
ATOM     17  C   UNL     1      34.355 -16.079 -21.398  0.00  0.00    +0.070 C 
BRANCH  17  18
ATOM     18  C   UNL     1      33.887 -17.467 -21.077  0.00  0.00    +0.017 C 
ATOM     19  C   UNL     1      34.799 -18.521 -20.905  0.00  0.00    -0.001 C 
ATOM     20  C   UNL     1      34.311 -19.815 -20.603  0.00  0.00    -0.000 C 
ATOM     21  C   UNL     1      32.515 -17.684 -20.952  0.00  0.00    +0.130 C 
ATOM     22  C   UNL     1      36.183 -18.320 -21.028  0.00  0.00    -0.000 C 
ATOM     23  C   UNL     1      32.926 -20.016 -20.481  0.00  0.00    +0.003 C 
ATOM     24  C   UNL     1      32.036 -18.956 -20.655  0.00  0.00    +0.036 C 
ATOM     25  C   UNL     1      35.222 -20.869 -20.431  0.00  0.00    -0.000 C 
ATOM     26  C   UNL     1      37.075 -19.380 -20.853  0.00  0.00    -0.000 C 
ATOM     27  C   UNL     1      36.595 -20.652 -20.556  0.00  0.00    -0.000 C 
BRANCH  21  28
ATOM     28  O   UNL     1      31.626 -16.665 -21.118  0.00  0.00    -0.506 OA
ATOM     29  H   UNL     1      31.600 -16.192 -21.926  0.00  0.00    +0.292 HD
ENDBRANCH  21  28
ENDBRANCH  17  18
ENDBRANCH   4  17
TORSDOF 5
ENDMDL
MODEL 4
REMARK VINA RESULT:      -9.4     12.229     15.112
REMARK  Name = 270278
REMARK  5 active torsions:
REMARK  status: ('A' for Active; 'I' for Inactive)
REMARK    1  A    between atoms: C_4  and  C_17
REMARK    2  A    between atoms: C_5  and  C_9
REMARK    3  A    between atoms: C_7  and  S_15
REMARK    4  A    between atoms: C_17  and  C_18
REMARK    5  A    between atoms: C_21  and  O_28
REMARK                            x       y       z     vdW  Elec       q    Type
REMARK                         _______ _______ _______ _____ _____    ______ ____
ROOT
ATOM      1  O   UNL     1      37.376 -22.180 -15.346  0.00  0.00    -0.210 OA
ATOM      2  N   UNL     1      33.873 -22.910 -17.087  0.00  0.00    -0.282 N 
ATOM      3  N   UNL     1      36.127 -22.227 -17.269  0.00  0.00    -0.311 NA
ATOM      4  C   UNL     1      35.117 -22.867 -15.076  0.00  0.00    +0.090 C 
ATOM      5  C   UNL     1      33.960 -23.100 -15.730  0.00  0.00    +0.059 C 
ATOM      6  C   UNL     1      36.302 -22.396 -15.903  0.00  0.00    +0.204 C 
ATOM      7  C   UNL     1      34.964 -22.481 -17.787  0.00  0.00    +0.220 C 
ATOM      8  H   UNL     1      33.023 -23.081 -17.555  0.00  0.00    +0.155 HD
ENDROOT
BRANCH   5   9
ATOM      9  C   UNL     1      32.739 -23.561 -15.055  0.00  0.00    +0.014 C 
ATOM     10  C   UNL     1      31.540 -22.872 -15.236  0.00  0.00    +0.001 C 
ATOM     11  C   UNL     1      32.779 -24.687 -14.233  0.00  0.00    +0.001 C 
ATOM     12  C   UNL     1      30.380 -23.310 -14.596  0.00  0.00    +0.000 C 
ATOM     13  C   UNL     1      31.619 -25.124 -13.592  0.00  0.00    +0.000 C 
ATOM     14  C   UNL     1      30.420 -24.436 -13.773  0.00  0.00    +0.000 C 
ENDBRANCH   5   9
BRANCH   7  15
ATOM     15  S   UNL     1      34.751 -22.266 -19.515  0.00  0.00    -0.094 S 
ATOM     16  H   UNL     1      34.160 -23.372 -20.039  0.00  0.00    +0.111 HD
ENDBRANCH   7  15
BRANCH   4  17
ATOM     17  C   UNL     1      35.362 -23.017 -13.603  0.00  0.00    +0.070 C 
BRANCH  17  18
ATOM     18  C   UNL     1      36.574 -23.843 -13.293  0.00  0.00    +0.017 C 
ATOM     19  C   UNL     1      36.829 -25.046 -13.973  0.00  0.00    -0.001 C 
ATOM     20  C   UNL     1      37.986 -25.793 -13.646  0.00  0.00    -0.000 C 
ATOM     21  C   UNL     1      37.446 -23.385 -12.306  0.00  0.00    +0.130 C 
ATOM     22  C   UNL     1      35.962 -25.522 -14.969  0.00  0.00    -0.000 C 
ATOM     23  C   UNL     1      38.853 -25.316 -12.650  0.00  0.00    +0.003 C 
ATOM     24  C   UNL     1      38.583 -24.120 -11.985  0.00  0.00    +0.036 C 
ATOM     25  C   UNL     1      38.241 -26.995 -14.326  0.00  0.00    -0.000 C 
ATOM     26  C   UNL     1      36.232 -26.719 -15.635  0.00  0.00    -0.000 C 
ATOM     27  C   UNL     1      37.369 -27.454 -15.314  0.00  0.00    -0.000 C 
BRANCH  21  28
ATOM     28  O   UNL     1      37.203 -22.219 -11.643  0.00  0.00    -0.506 OA
ATOM     29  H   UNL     1      36.471 -21.687 -11.884  0.00  0.00    +0.292 HD
ENDBRANCH  21  28
ENDBRANCH  17  18
ENDBRANCH   4  17
TORSDOF 5
ENDMDL
MODEL 5
REMARK VINA RESULT:      -9.3     12.233     14.796
REMARK  Name = 270278
REMARK  5 active torsions:
REMARK  status: ('A' for Active; 'I' for Inactive)
REMARK    1  A    between atoms: C_4  and  C_17
REMARK    2  A    between atoms: C_5  and  C_9
REMARK    3  A    between atoms: C_7  and  S_15
REMARK    4  A    between atoms: C_17  and  C_18
REMARK    5  A    between atoms: C_21  and  O_28
REMARK                            x       y       z     vdW  Elec       q    Type
REMARK                         _______ _______ _______ _____ _____    ______ ____
ROOT
ATOM      1  O   UNL     1      34.291 -23.814 -12.066  0.00  0.00    -0.210 OA
ATOM      2  N   UNL     1      32.490 -23.947 -15.613  0.00  0.00    -0.282 N 
ATOM      3  N   UNL     1      32.458 -24.428 -13.300  0.00  0.00    -0.311 NA
ATOM      4  C   UNL     1      34.407 -23.304 -14.385  0.00  0.00    +0.090 C 
ATOM      5  C   UNL     1      33.738 -23.378 -15.555  0.00  0.00    +0.059 C 
ATOM      6  C   UNL     1      33.719 -23.868 -13.153  0.00  0.00    +0.204 C 
ATOM      7  C   UNL     1      31.914 -24.445 -14.479  0.00  0.00    +0.220 C 
ATOM      8  H   UNL     1      32.010 -23.997 -16.471  0.00  0.00    +0.155 HD
ENDROOT
BRANCH   5   9
ATOM      9  C   UNL     1      34.283 -22.869 -16.821  0.00  0.00    +0.014 C 
ATOM     10  C   UNL     1      33.489 -22.856 -17.967  0.00  0.00    +0.001 C 
ATOM     11  C   UNL     1      35.595 -22.400 -16.877  0.00  0.00    +0.001 C 
ATOM     12  C   UNL     1      34.005 -22.373 -19.169  0.00  0.00    +0.000 C 
ATOM     13  C   UNL     1      36.112 -21.917 -18.080  0.00  0.00    +0.000 C 
ATOM     14  C   UNL     1      35.317 -21.904 -19.226  0.00  0.00    +0.000 C 
ENDBRANCH   5   9
BRANCH   7  15
ATOM     15  S   UNL     1      30.320 -25.154 -14.656  0.00  0.00    -0.094 S 
ATOM     16  H   UNL     1      29.434 -24.190 -15.026  0.00  0.00    +0.111 HD
ENDBRANCH   7  15
BRANCH   4  17
ATOM     17  C   UNL     1      35.774 -22.726 -14.167  0.00  0.00    +0.070 C 
BRANCH  17  18
ATOM     18  C   UNL     1      36.738 -23.709 -13.575  0.00  0.00    +0.017 C 
ATOM     19  C   UNL     1      36.912 -24.986 -14.135  0.00  0.00    -0.001 C 
ATOM     20  C   UNL     1      37.833 -25.881 -13.542  0.00  0.00    -0.000 C 
ATOM     21  C   UNL     1      37.464 -23.321 -12.449  0.00  0.00    +0.130 C 
ATOM     22  C   UNL     1      36.190 -25.394 -15.268  0.00  0.00    -0.000 C 
ATOM     23  C   UNL     1      38.555 -25.474 -12.408  0.00  0.00    +0.003 C 
ATOM     24  C   UNL     1      38.370 -24.202 -11.866  0.00  0.00    +0.036 C 
ATOM     25  C   UNL     1      38.007 -27.158 -14.100  0.00  0.00    -0.000 C 
ATOM     26  C   UNL     1      36.376 -26.667 -15.810  0.00  0.00    -0.000 C 
ATOM     27  C   UNL     1      37.282 -27.547 -15.227  0.00  0.00    -0.000 C 
BRANCH  21  28
ATOM     28  O   UNL     1      37.299 -22.084 -11.902  0.00  0.00    -0.506 OA
ATOM     29  H   UNL     1      37.739 -21.862 -11.105  0.00  0.00    +0.292 HD
ENDBRANCH  21  28
ENDBRANCH  17  18
ENDBRANCH   4  17
TORSDOF 5
ENDMDL
MODEL 6
REMARK VINA RESULT:      -9.2      2.760      6.004
REMARK  Name = 270278
REMARK  5 active torsions:
REMARK  status: ('A' for Active; 'I' for Inactive)
REMARK    1  A    between atoms: C_4  and  C_17
REMARK    2  A    between atoms: C_5  and  C_9
REMARK    3  A    between atoms: C_7  and  S_15
REMARK    4  A    between atoms: C_17  and  C_18
REMARK    5  A    between atoms: C_21  and  O_28
REMARK                            x       y       z     vdW  Elec       q    Type
REMARK                         _______ _______ _______ _____ _____    ______ ____
ROOT
ATOM      1  O   UNL     1      30.028 -11.393 -20.924  0.00  0.00    -0.210 OA
ATOM      2  N   UNL     1      33.434 -12.881 -22.347  0.00  0.00    -0.282 N 
ATOM      3  N   UNL     1      31.622 -13.040 -20.840  0.00  0.00    -0.311 NA
ATOM      4  C   UNL     1      31.822 -11.153 -22.465  0.00  0.00    +0.090 C 
ATOM      5  C   UNL     1      32.969 -11.715 -22.903  0.00  0.00    +0.059 C 
ATOM      6  C   UNL     1      31.080 -11.867 -21.347  0.00  0.00    +0.204 C 
ATOM      7  C   UNL     1      32.734 -13.484 -21.340  0.00  0.00    +0.220 C 
ATOM      8  H   UNL     1      34.272 -13.282 -22.672  0.00  0.00    +0.155 HD
ENDROOT
BRANCH   5   9
ATOM      9  C   UNL     1      33.783 -11.134 -23.979  0.00  0.00    +0.014 C 
ATOM     10  C   UNL     1      33.947 -11.824 -25.179  0.00  0.00    +0.001 C 
ATOM     11  C   UNL     1      34.393  -9.893 -23.799  0.00  0.00    +0.001 C 
ATOM     12  C   UNL     1      34.720 -11.273 -26.202  0.00  0.00    +0.000 C 
ATOM     13  C   UNL     1      35.167  -9.341 -24.822  0.00  0.00    +0.000 C 
ATOM     14  C   UNL     1      35.330 -10.032 -26.023  0.00  0.00    +0.000 C 
ENDBRANCH   5   9
BRANCH   7  15
ATOM     15  S   UNL     1      33.412 -14.966 -20.694  0.00  0.00    -0.094 S 
ATOM     16  H   UNL     1      34.662 -15.149 -21.196  0.00  0.00    +0.111 HD
ENDBRANCH   7  15
BRANCH   4  17
ATOM     17  C   UNL     1      31.197  -9.884 -22.962  0.00  0.00    +0.070 C 
BRANCH  17  18
ATOM     18  C   UNL     1      31.685  -8.667 -22.235  0.00  0.00    +0.017 C 
ATOM     19  C   UNL     1      31.623  -7.393 -22.823  0.00  0.00    -0.001 C 
ATOM     20  C   UNL     1      32.095  -6.273 -22.099  0.00  0.00    -0.000 C 
ATOM     21  C   UNL     1      32.204  -8.833 -20.951  0.00  0.00    +0.130 C 
ATOM     22  C   UNL     1      31.103  -7.206 -24.114  0.00  0.00    -0.000 C 
ATOM     23  C   UNL     1      32.615  -6.459 -20.808  0.00  0.00    +0.003 C 
ATOM     24  C   UNL     1      32.669  -7.732 -20.239  0.00  0.00    +0.036 C 
ATOM     25  C   UNL     1      32.034  -4.999 -22.687  0.00  0.00    -0.000 C 
ATOM     26  C   UNL     1      31.049  -5.933 -24.683  0.00  0.00    -0.000 C 
ATOM     27  C   UNL     1      31.514  -4.832 -23.971  0.00  0.00    -0.000 C 
BRANCH  21  28
ATOM     28  O   UNL     1      32.267 -10.067 -20.376  0.00  0.00    -0.506 OA
ATOM     29  H   UNL     1      31.485 -10.479 -20.065  0.00  0.00    +0.292 HD
ENDBRANCH  21  28
ENDBRANCH  17  18
ENDBRANCH   4  17
TORSDOF 5
ENDMDL
MODEL 7
REMARK VINA RESULT:      -9.1     11.748     14.375
REMARK  Name = 270278
REMARK  5 active torsions:
REMARK  status: ('A' for Active; 'I' for Inactive)
REMARK    1  A    between atoms: C_4  and  C_17
REMARK    2  A    between atoms: C_5  and  C_9
REMARK    3  A    between atoms: C_7  and  S_15
REMARK    4  A    between atoms: C_17  and  C_18
REMARK    5  A    between atoms: C_21  and  O_28
REMARK                            x       y       z     vdW  Elec       q    Type
REMARK                         _______ _______ _______ _____ _____    ______ ____
ROOT
ATOM      1  O   UNL     1      33.420 -24.218 -13.183  0.00  0.00    -0.210 OA
ATOM      2  N   UNL     1      31.565 -23.492 -16.628  0.00  0.00    -0.282 N 
ATOM      3  N   UNL     1      31.498 -24.348 -14.428  0.00  0.00    -0.311 NA
ATOM      4  C   UNL     1      33.575 -23.345 -15.389  0.00  0.00    +0.090 C 
ATOM      5  C   UNL     1      32.884 -23.124 -16.527  0.00  0.00    +0.059 C 
ATOM      6  C   UNL     1      32.830 -24.006 -14.240  0.00  0.00    +0.204 C 
ATOM      7  C   UNL     1      30.940 -24.087 -15.570  0.00  0.00    +0.220 C 
ATOM      8  H   UNL     1      31.071 -23.327 -17.464  0.00  0.00    +0.155 HD
ENDROOT
BRANCH   5   9
ATOM      9  C   UNL     1      33.479 -22.491 -17.712  0.00  0.00    +0.014 C 
ATOM     10  C   UNL     1      34.860 -22.528 -17.904  0.00  0.00    +0.001 C 
ATOM     11  C   UNL     1      32.663 -21.852 -18.646  0.00  0.00    +0.001 C 
ATOM     12  C   UNL     1      35.425 -21.928 -19.029  0.00  0.00    +0.000 C 
ATOM     13  C   UNL     1      33.229 -21.251 -19.771  0.00  0.00    +0.000 C 
ATOM     14  C   UNL     1      34.610 -21.289 -19.962  0.00  0.00    +0.000 C 
ENDBRANCH   5   9
BRANCH   7  15
ATOM     15  S   UNL     1      29.256 -24.522 -15.799  0.00  0.00    -0.094 S 
ATOM     16  H   UNL     1      29.153 -25.870 -15.943  0.00  0.00    +0.111 HD
ENDBRANCH   7  15
BRANCH   4  17
ATOM     17  C   UNL     1      35.015 -23.013 -15.133  0.00  0.00    +0.070 C 
BRANCH  17  18
ATOM     18  C   UNL     1      35.832 -24.208 -14.742  0.00  0.00    +0.017 C 
ATOM     19  C   UNL     1      36.708 -24.164 -13.645  0.00  0.00    -0.001 C 
ATOM     20  C   UNL     1      37.458 -25.317 -13.313  0.00  0.00    -0.000 C 
ATOM     21  C   UNL     1      35.697 -25.371 -15.500  0.00  0.00    +0.130 C 
ATOM     22  C   UNL     1      36.856 -23.002 -12.871  0.00  0.00    -0.000 C 
ATOM     23  C   UNL     1      37.311 -26.479 -14.087  0.00  0.00    +0.003 C 
ATOM     24  C   UNL     1      36.435 -26.504 -15.173  0.00  0.00    +0.036 C 
ATOM     25  C   UNL     1      38.335 -25.274 -12.217  0.00  0.00    -0.000 C 
ATOM     26  C   UNL     1      37.732 -22.977 -11.784  0.00  0.00    -0.000 C 
ATOM     27  C   UNL     1      38.469 -24.110 -11.458  0.00  0.00    -0.000 C 
BRANCH  21  28
ATOM     28  O   UNL     1      34.848 -25.419 -16.565  0.00  0.00    -0.506 OA
ATOM     29  H   UNL     1      35.192 -25.454 -17.436  0.00  0.00    +0.292 HD
ENDBRANCH  21  28
ENDBRANCH  17  18
ENDBRANCH   4  17
TORSDOF 5
ENDMDL
MODEL 8
REMARK VINA RESULT:      -9.0     12.027     15.016
REMARK  Name = 270278
REMARK  5 active torsions:
REMARK  status: ('A' for Active; 'I' for Inactive)
REMARK    1  A    between atoms: C_4  and  C_17
REMARK    2  A    between atoms: C_5  and  C_9
REMARK    3  A    between atoms: C_7  and  S_15
REMARK    4  A    between atoms: C_17  and  C_18
REMARK    5  A    between atoms: C_21  and  O_28
REMARK                            x       y       z     vdW  Elec       q    Type
REMARK                         _______ _______ _______ _____ _____    ______ ____
ROOT
ATOM      1  O   UNL     1      36.501 -22.842 -16.014  0.00  0.00    -0.210 OA
ATOM      2  N   UNL     1      32.911 -22.753 -17.728  0.00  0.00    -0.282 N 
ATOM      3  N   UNL     1      35.227 -22.303 -17.842  0.00  0.00    -0.311 NA
ATOM      4  C   UNL     1      34.181 -23.317 -15.814  0.00  0.00    +0.090 C 
ATOM      5  C   UNL     1      32.995 -23.261 -16.456  0.00  0.00    +0.059 C 
ATOM      6  C   UNL     1      35.401 -22.802 -16.560  0.00  0.00    +0.204 C 
ATOM      7  C   UNL     1      34.035 -22.298 -18.357  0.00  0.00    +0.220 C 
ATOM      8  H   UNL     1      32.041 -22.716 -18.188  0.00  0.00    +0.155 HD
ENDROOT
BRANCH   5   9
ATOM      9  C   UNL     1      31.738 -23.727 -15.854  0.00  0.00    +0.014 C 
ATOM     10  C   UNL     1      30.531 -23.125 -16.207  0.00  0.00    +0.001 C 
ATOM     11  C   UNL     1      31.752 -24.771 -14.929  0.00  0.00    +0.001 C 
ATOM     12  C   UNL     1      29.337 -23.567 -15.637  0.00  0.00    +0.000 C 
ATOM     13  C   UNL     1      30.558 -25.214 -14.358  0.00  0.00    +0.000 C 
ATOM     14  C   UNL     1      29.351 -24.611 -14.712  0.00  0.00    +0.000 C 
ENDBRANCH   5   9
BRANCH   7  15
ATOM     15  S   UNL     1      33.824 -21.666 -19.978  0.00  0.00    -0.094 S 
ATOM     16  H   UNL     1      32.945 -22.449 -20.659  0.00  0.00    +0.111 HD
ENDBRANCH   7  15
BRANCH   4  17
ATOM     17  C   UNL     1      34.428 -23.831 -14.426  0.00  0.00    +0.070 C 
BRANCH  17  18
ATOM     18  C   UNL     1      35.671 -24.663 -14.323  0.00  0.00    +0.017 C 
ATOM     19  C   UNL     1      36.711 -24.312 -13.446  0.00  0.00    -0.001 C 
ATOM     20  C   UNL     1      37.866 -25.127 -13.382  0.00  0.00    -0.000 C 
ATOM     21  C   UNL     1      35.768 -25.800 -15.123  0.00  0.00    +0.130 C 
ATOM     22  C   UNL     1      36.631 -23.171 -12.633  0.00  0.00    -0.000 C 
ATOM     23  C   UNL     1      37.947 -26.269 -14.196  0.00  0.00    +0.003 C 
ATOM     24  C   UNL     1      36.904 -26.602 -15.060  0.00  0.00    +0.036 C 
ATOM     25  C   UNL     1      38.907 -24.777 -12.506  0.00  0.00    -0.000 C 
ATOM     26  C   UNL     1      37.675 -22.838 -11.767  0.00  0.00    -0.000 C 
ATOM     27  C   UNL     1      38.810 -23.640 -11.705  0.00  0.00    -0.000 C 
BRANCH  21  28
ATOM     28  O   UNL     1      34.762 -26.145 -15.975  0.00  0.00    -0.506 OA
ATOM     29  H   UNL     1      33.889 -25.841 -15.818  0.00  0.00    +0.292 HD
ENDBRANCH  21  28
ENDBRANCH  17  18
ENDBRANCH   4  17
TORSDOF 5
ENDMDL
MODEL 9
REMARK VINA RESULT:      -8.9      3.519      6.133
REMARK  Name = 270278
REMARK  5 active torsions:
REMARK  status: ('A' for Active; 'I' for Inactive)
REMARK    1  A    between atoms: C_4  and  C_17
REMARK    2  A    between atoms: C_5  and  C_9
REMARK    3  A    between atoms: C_7  and  S_15
REMARK    4  A    between atoms: C_17  and  C_18
REMARK    5  A    between atoms: C_21  and  O_28
REMARK                            x       y       z     vdW  Elec       q    Type
REMARK                         _______ _______ _______ _____ _____    ______ ____
ROOT
ATOM      1  O   UNL     1      33.997 -15.950 -25.601  0.00  0.00    -0.210 OA
ATOM      2  N   UNL     1      33.744 -15.306 -21.682  0.00  0.00    -0.282 N 
ATOM      3  N   UNL     1      34.551 -16.613 -23.477  0.00  0.00    -0.311 NA
ATOM      4  C   UNL     1      33.137 -14.588 -23.853  0.00  0.00    +0.090 C 
ATOM      5  C   UNL     1      33.096 -14.427 -22.513  0.00  0.00    +0.059 C 
ATOM      6  C   UNL     1      33.928 -15.771 -24.387  0.00  0.00    +0.204 C 
ATOM      7  C   UNL     1      34.439 -16.357 -22.209  0.00  0.00    +0.220 C 
ATOM      8  H   UNL     1      33.708 -15.180 -20.706  0.00  0.00    +0.155 HD
ENDROOT
BRANCH   5   9
ATOM      9  C   UNL     1      32.372 -13.326 -21.863  0.00  0.00    +0.014 C 
ATOM     10  C   UNL     1      32.553 -13.080 -20.502  0.00  0.00    +0.001 C 
ATOM     11  C   UNL     1      31.503 -12.527 -22.606  0.00  0.00    +0.001 C 
ATOM     12  C   UNL     1      31.866 -12.034 -19.884  0.00  0.00    +0.000 C 
ATOM     13  C   UNL     1      30.816 -11.481 -21.988  0.00  0.00    +0.000 C 
ATOM     14  C   UNL     1      30.997 -11.235 -20.627  0.00  0.00    +0.000 C 
ENDBRANCH   5   9
BRANCH   7  15
ATOM     15  S   UNL     1      35.230 -17.425 -21.066  0.00  0.00    -0.094 S 
ATOM     16  H   UNL     1      36.447 -17.788 -21.552  0.00  0.00    +0.111 HD
ENDBRANCH   7  15
BRANCH   4  17
ATOM     17  C   UNL     1      32.473 -13.722 -24.883  0.00  0.00    +0.070 C 
BRANCH  17  18
ATOM     18  C   UNL     1      33.450 -12.922 -25.691  0.00  0.00    +0.017 C 
ATOM     19  C   UNL     1      33.970 -11.708 -25.211  0.00  0.00    -0.001 C 
ATOM     20  C   UNL     1      34.889 -10.986 -26.009  0.00  0.00    -0.000 C 
ATOM     21  C   UNL     1      33.831 -13.416 -26.938  0.00  0.00    +0.130 C 
ATOM     22  C   UNL     1      33.598 -11.195 -23.959  0.00  0.00    -0.000 C 
ATOM     23  C   UNL     1      35.261 -11.499 -27.263  0.00  0.00    +0.003 C 
ATOM     24  C   UNL     1      34.734 -12.706 -27.723  0.00  0.00    +0.036 C 
ATOM     25  C   UNL     1      35.409  -9.773 -25.530  0.00  0.00    -0.000 C 
ATOM     26  C   UNL     1      34.125  -9.988 -23.498  0.00  0.00    -0.000 C 
ATOM     27  C   UNL     1      35.029  -9.278 -24.282  0.00  0.00    -0.000 C 
BRANCH  21  28
ATOM     28  O   UNL     1      33.329 -14.592 -27.409  0.00  0.00    -0.506 OA
ATOM     29  H   UNL     1      32.967 -15.219 -26.813  0.00  0.00    +0.292 HD
ENDBRANCH  21  28
ENDBRANCH  17  18
ENDBRANCH   4  17
TORSDOF 5
ENDMDL
