MODEL 1
REMARK VINA RESULT:      -4.9      0.000      0.000
REMARK  Name = 5918
REMARK  2 active torsions:
REMARK  status: ('A' for Active; 'I' for Inactive)
REMARK    1  A    between atoms: C_2  and  N_7
REMARK    2  A    between atoms: C_3  and  N_10
REMARK                            x       y       z     vdW  Elec       q    Type
REMARK                         _______ _______ _______ _____ _____    ______ ____
ROOT
ATOM      1  N   UNL     1      36.180 -20.100 -20.306  0.00  0.00    -0.241 NA
ATOM      2  C   UNL     1      34.024 -21.619 -19.377  0.00  0.00    +0.058 C 
ATOM      3  C   UNL     1      33.807 -20.560 -20.252  0.00  0.00    +0.074 C 
ATOM      4  C   UNL     1      35.319 -21.918 -18.965  0.00  0.00    +0.036 C 
ATOM      5  C   UNL     1      34.908 -19.838 -20.684  0.00  0.00    +0.114 C 
ATOM      6  C   UNL     1      36.353 -21.136 -19.454  0.00  0.00    +0.100 C 
ENDROOT
BRANCH   2   7
ATOM      7  N   UNL     1      32.950 -22.396 -18.894  0.00  0.00    -0.356 N 
ATOM      8  H   UNL     1      33.057 -23.368 -18.780  0.00  0.00    +0.142 HD
ATOM      9  H   UNL     1      32.093 -21.966 -18.670  0.00  0.00    +0.142 HD
ENDBRANCH   2   7
BRANCH   3  10
ATOM     10  N   UNL     1      32.518 -20.215 -20.697  0.00  0.00    -0.355 N 
ATOM     11  H   UNL     1      32.047 -20.795 -21.339  0.00  0.00    +0.142 HD
ATOM     12  H   UNL     1      32.087 -19.394 -20.367  0.00  0.00    +0.142 HD
ENDBRANCH   3  10
TORSDOF 2
ENDMDL
MODEL 2
REMARK VINA RESULT:      -4.8      1.350      2.460
REMARK  Name = 5918
REMARK  2 active torsions:
REMARK  status: ('A' for Active; 'I' for Inactive)
REMARK    1  A    between atoms: C_2  and  N_7
REMARK    2  A    between atoms: C_3  and  N_10
REMARK                            x       y       z     vdW  Elec       q    Type
REMARK                         _______ _______ _______ _____ _____    ______ ____
ROOT
ATOM      1  N   UNL     1      35.152 -19.211 -21.339  0.00  0.00    -0.241 NA
ATOM      2  C   UNL     1      33.620 -21.019 -19.854  0.00  0.00    +0.058 C 
ATOM      3  C   UNL     1      35.008 -21.048 -19.773  0.00  0.00    +0.074 C 
ATOM      4  C   UNL     1      32.997 -20.086 -20.677  0.00  0.00    +0.036 C 
ATOM      5  C   UNL     1      35.722 -20.132 -20.529  0.00  0.00    +0.114 C 
ATOM      6  C   UNL     1      33.801 -19.213 -21.392  0.00  0.00    +0.100 C 
ENDROOT
BRANCH   2   7
ATOM      7  N   UNL     1      32.829 -21.924 -19.115  0.00  0.00    -0.356 N 
ATOM      8  H   UNL     1      31.848 -21.853 -19.138  0.00  0.00    +0.142 HD
ATOM      9  H   UNL     1      33.258 -22.628 -18.578  0.00  0.00    +0.142 HD
ENDBRANCH   2   7
BRANCH   3  10
ATOM     10  N   UNL     1      35.687 -21.973 -18.959  0.00  0.00    -0.355 N 
ATOM     11  H   UNL     1      35.199 -22.734 -18.566  0.00  0.00    +0.142 HD
ATOM     12  H   UNL     1      36.647 -21.859 -18.780  0.00  0.00    +0.142 HD
ENDBRANCH   3  10
TORSDOF 2
ENDMDL
MODEL 3
REMARK VINA RESULT:      -4.7      0.683      2.204
REMARK  Name = 5918
REMARK  2 active torsions:
REMARK  status: ('A' for Active; 'I' for Inactive)
REMARK    1  A    between atoms: C_2  and  N_7
REMARK    2  A    between atoms: C_3  and  N_10
REMARK                            x       y       z     vdW  Elec       q    Type
REMARK                         _______ _______ _______ _____ _____    ______ ____
ROOT
ATOM      1  N   UNL     1      36.438 -21.256 -19.495  0.00  0.00    -0.241 NA
ATOM      2  C   UNL     1      33.830 -20.591 -20.250  0.00  0.00    +0.058 C 
ATOM      3  C   UNL     1      34.054 -21.632 -19.356  0.00  0.00    +0.074 C 
ATOM      4  C   UNL     1      34.910 -19.882 -20.767  0.00  0.00    +0.036 C 
ATOM      5  C   UNL     1      35.365 -21.923 -19.014  0.00  0.00    +0.114 C 
ATOM      6  C   UNL     1      36.182 -20.250 -20.361  0.00  0.00    +0.100 C 
ENDROOT
BRANCH   2   7
ATOM      7  N   UNL     1      32.521 -20.240 -20.646  0.00  0.00    -0.356 N 
ATOM      8  H   UNL     1      32.150 -19.364 -20.396  0.00  0.00    +0.142 HD
ATOM      9  H   UNL     1      31.982 -20.871 -21.174  0.00  0.00    +0.142 HD
ENDBRANCH   2   7
BRANCH   3  10
ATOM     10  N   UNL     1      32.998 -22.381 -18.807  0.00  0.00    -0.355 N 
ATOM     11  H   UNL     1      33.189 -23.110 -18.172  0.00  0.00    +0.142 HD
ATOM     12  H   UNL     1      32.068 -22.179 -19.058  0.00  0.00    +0.142 HD
ENDBRANCH   3  10
TORSDOF 2
ENDMDL
MODEL 4
REMARK VINA RESULT:      -4.7      1.112      2.659
REMARK  Name = 5918
REMARK  2 active torsions:
REMARK  status: ('A' for Active; 'I' for Inactive)
REMARK    1  A    between atoms: C_2  and  N_7
REMARK    2  A    between atoms: C_3  and  N_10
REMARK                            x       y       z     vdW  Elec       q    Type
REMARK                         _______ _______ _______ _____ _____    ______ ____
ROOT
ATOM      1  N   UNL     1      32.924 -21.771 -19.744  0.00  0.00    -0.241 NA
ATOM      2  C   UNL     1      35.395 -20.512 -20.097  0.00  0.00    +0.058 C 
ATOM      3  C   UNL     1      34.236 -19.929 -20.598  0.00  0.00    +0.074 C 
ATOM      4  C   UNL     1      35.319 -21.725 -19.420  0.00  0.00    +0.036 C 
ATOM      5  C   UNL     1      33.036 -20.592 -20.397  0.00  0.00    +0.114 C 
ATOM      6  C   UNL     1      34.071 -22.308 -19.271  0.00  0.00    +0.100 C 
ENDROOT
BRANCH   2   7
ATOM      7  N   UNL     1      36.653 -19.894 -20.267  0.00  0.00    -0.356 N 
ATOM      8  H   UNL     1      36.831 -19.020 -19.852  0.00  0.00    +0.142 HD
ATOM      9  H   UNL     1      37.352 -20.339 -20.798  0.00  0.00    +0.142 HD
ENDBRANCH   2   7
BRANCH   3  10
ATOM     10  N   UNL     1      34.259 -18.705 -21.292  0.00  0.00    -0.355 N 
ATOM     11  H   UNL     1      34.868 -18.585 -22.057  0.00  0.00    +0.142 HD
ATOM     12  H   UNL     1      33.669 -17.970 -21.012  0.00  0.00    +0.142 HD
ENDBRANCH   3  10
TORSDOF 2
ENDMDL
MODEL 5
REMARK VINA RESULT:      -4.7      1.125      3.499
REMARK  Name = 5918
REMARK  2 active torsions:
REMARK  status: ('A' for Active; 'I' for Inactive)
REMARK    1  A    between atoms: C_2  and  N_7
REMARK    2  A    between atoms: C_3  and  N_10
REMARK                            x       y       z     vdW  Elec       q    Type
REMARK                         _______ _______ _______ _____ _____    ______ ____
ROOT
ATOM      1  N   UNL     1      32.838 -21.268 -19.886  0.00  0.00    -0.241 NA
ATOM      2  C   UNL     1      35.241 -19.956 -20.450  0.00  0.00    +0.058 C 
ATOM      3  C   UNL     1      35.239 -21.103 -19.664  0.00  0.00    +0.074 C 
ATOM      4  C   UNL     1      34.041 -19.464 -20.954  0.00  0.00    +0.036 C 
ATOM      5  C   UNL     1      34.023 -21.717 -19.413  0.00  0.00    +0.114 C 
ATOM      6  C   UNL     1      32.878 -20.151 -20.646  0.00  0.00    +0.100 C 
ENDROOT
BRANCH   2   7
ATOM      7  N   UNL     1      36.443 -19.276 -20.745  0.00  0.00    -0.356 N 
ATOM      8  H   UNL     1      36.533 -18.320 -20.530  0.00  0.00    +0.142 HD
ATOM      9  H   UNL     1      37.190 -19.759 -21.164  0.00  0.00    +0.142 HD
ENDBRANCH   2   7
BRANCH   3  10
ATOM     10  N   UNL     1      36.425 -21.639 -19.129  0.00  0.00    -0.355 N 
ATOM     11  H   UNL     1      36.579 -22.612 -19.152  0.00  0.00    +0.142 HD
ATOM     12  H   UNL     1      37.098 -21.043 -18.730  0.00  0.00    +0.142 HD
ENDBRANCH   3  10
TORSDOF 2
ENDMDL
MODEL 6
REMARK VINA RESULT:      -4.7      1.334      2.217
REMARK  Name = 5918
REMARK  2 active torsions:
REMARK  status: ('A' for Active; 'I' for Inactive)
REMARK    1  A    between atoms: C_2  and  N_7
REMARK    2  A    between atoms: C_3  and  N_10
REMARK                            x       y       z     vdW  Elec       q    Type
REMARK                         _______ _______ _______ _____ _____    ______ ____
ROOT
ATOM      1  N   UNL     1      33.672 -19.439 -21.364  0.00  0.00    -0.241 NA
ATOM      2  C   UNL     1      34.918 -21.214 -19.598  0.00  0.00    +0.058 C 
ATOM      3  C   UNL     1      33.531 -21.175 -19.687  0.00  0.00    +0.074 C 
ATOM      4  C   UNL     1      35.683 -20.365 -20.392  0.00  0.00    +0.036 C 
ATOM      5  C   UNL     1      32.961 -20.278 -20.576  0.00  0.00    +0.114 C 
ATOM      6  C   UNL     1      35.018 -19.505 -21.250  0.00  0.00    +0.100 C 
ENDROOT
BRANCH   2   7
ATOM      7  N   UNL     1      35.567 -22.100 -18.712  0.00  0.00    -0.356 N 
ATOM      8  H   UNL     1      36.018 -22.902 -19.061  0.00  0.00    +0.142 HD
ATOM      9  H   UNL     1      35.569 -21.916 -17.745  0.00  0.00    +0.142 HD
ENDBRANCH   2   7
BRANCH   3  10
ATOM     10  N   UNL     1      32.712 -22.010 -18.905  0.00  0.00    -0.355 N 
ATOM     11  H   UNL     1      31.736 -21.879 -18.903  0.00  0.00    +0.142 HD
ATOM     12  H   UNL     1      33.114 -22.723 -18.360  0.00  0.00    +0.142 HD
ENDBRANCH   3  10
TORSDOF 2
ENDMDL
MODEL 7
REMARK VINA RESULT:      -4.7      6.259      7.630
REMARK  Name = 5918
REMARK  2 active torsions:
REMARK  status: ('A' for Active; 'I' for Inactive)
REMARK    1  A    between atoms: C_2  and  N_7
REMARK    2  A    between atoms: C_3  and  N_10
REMARK                            x       y       z     vdW  Elec       q    Type
REMARK                         _______ _______ _______ _____ _____    ______ ____
ROOT
ATOM      1  N   UNL     1      33.739 -16.091 -26.126  0.00  0.00    -0.241 NA
ATOM      2  C   UNL     1      34.211 -14.999 -23.596  0.00  0.00    +0.058 C 
ATOM      3  C   UNL     1      34.808 -16.202 -23.960  0.00  0.00    +0.074 C 
ATOM      4  C   UNL     1      33.378 -14.342 -24.496  0.00  0.00    +0.036 C 
ATOM      5  C   UNL     1      34.542 -16.701 -25.225  0.00  0.00    +0.114 C 
ATOM      6  C   UNL     1      33.177 -14.924 -25.737  0.00  0.00    +0.100 C 
ENDROOT
BRANCH   2   7
ATOM      7  N   UNL     1      34.434 -14.433 -22.322  0.00  0.00    -0.356 N 
ATOM      8  H   UNL     1      33.929 -13.636 -22.043  0.00  0.00    +0.142 HD
ATOM      9  H   UNL     1      35.095 -14.835 -21.714  0.00  0.00    +0.142 HD
ENDBRANCH   2   7
BRANCH   3  10
ATOM     10  N   UNL     1      35.655 -16.907 -23.087  0.00  0.00    -0.355 N 
ATOM     11  H   UNL     1      35.580 -17.886 -23.012  0.00  0.00    +0.142 HD
ATOM     12  H   UNL     1      36.322 -16.422 -22.549  0.00  0.00    +0.142 HD
ENDBRANCH   3  10
TORSDOF 2
ENDMDL
MODEL 8
REMARK VINA RESULT:      -4.7      9.337     10.728
REMARK  Name = 5918
REMARK  2 active torsions:
REMARK  status: ('A' for Active; 'I' for Inactive)
REMARK    1  A    between atoms: C_2  and  N_7
REMARK    2  A    between atoms: C_3  and  N_10
REMARK                            x       y       z     vdW  Elec       q    Type
REMARK                         _______ _______ _______ _____ _____    ______ ____
ROOT
ATOM      1  N   UNL     1      41.180 -16.335 -16.339  0.00  0.00    -0.241 NA
ATOM      2  C   UNL     1      41.957 -13.651 -16.268  0.00  0.00    +0.058 C 
ATOM      3  C   UNL     1      41.191 -14.184 -15.237  0.00  0.00    +0.074 C 
ATOM      4  C   UNL     1      42.335 -14.459 -17.335  0.00  0.00    +0.036 C 
ATOM      5  C   UNL     1      40.831 -15.519 -15.319  0.00  0.00    +0.114 C 
ATOM      6  C   UNL     1      41.924 -15.782 -17.324  0.00  0.00    +0.100 C 
ENDROOT
BRANCH   2   7
ATOM      7  N   UNL     1      42.358 -12.297 -16.253  0.00  0.00    -0.356 N 
ATOM      8  H   UNL     1      41.697 -11.586 -16.414  0.00  0.00    +0.142 HD
ATOM      9  H   UNL     1      43.298 -12.064 -16.078  0.00  0.00    +0.142 HD
ENDBRANCH   2   7
BRANCH   3  10
ATOM     10  N   UNL     1      40.781 -13.408 -14.138  0.00  0.00    -0.355 N 
ATOM     11  H   UNL     1      41.196 -13.547 -13.255  0.00  0.00    +0.142 HD
ATOM     12  H   UNL     1      40.078 -12.728 -14.249  0.00  0.00    +0.142 HD
ENDBRANCH   3  10
TORSDOF 2
ENDMDL
MODEL 9
REMARK VINA RESULT:      -4.7      4.369      5.661
REMARK  Name = 5918
REMARK  2 active torsions:
REMARK  status: ('A' for Active; 'I' for Inactive)
REMARK    1  A    between atoms: C_2  and  N_7
REMARK    2  A    between atoms: C_3  and  N_10
REMARK                            x       y       z     vdW  Elec       q    Type
REMARK                         _______ _______ _______ _____ _____    ______ ____
ROOT
ATOM      1  N   UNL     1      34.271 -14.535 -22.600  0.00  0.00    -0.241 NA
ATOM      2  C   UNL     1      35.091 -16.927 -21.409  0.00  0.00    +0.058 C 
ATOM      3  C   UNL     1      35.175 -16.769 -22.788  0.00  0.00    +0.074 C 
ATOM      4  C   UNL     1      34.597 -15.890 -20.625  0.00  0.00    +0.036 C 
ATOM      5  C   UNL     1      34.756 -15.565 -23.330  0.00  0.00    +0.114 C 
ATOM      6  C   UNL     1      34.204 -14.725 -21.263  0.00  0.00    +0.100 C 
ENDROOT
BRANCH   2   7
ATOM      7  N   UNL     1      35.498 -18.128 -20.788  0.00  0.00    -0.356 N 
ATOM      8  H   UNL     1      35.072 -18.417 -19.949  0.00  0.00    +0.142 HD
ATOM      9  H   UNL     1      36.207 -18.677 -21.194  0.00  0.00    +0.142 HD
ENDBRANCH   2   7
BRANCH   3  10
ATOM     10  N   UNL     1      35.665 -17.788 -23.625  0.00  0.00    -0.355 N 
ATOM     11  H   UNL     1      35.662 -17.666 -24.603  0.00  0.00    +0.142 HD
ATOM     12  H   UNL     1      36.009 -18.623 -23.235  0.00  0.00    +0.142 HD
ENDBRANCH   3  10
TORSDOF 2
ENDMDL
