MODEL 1
REMARK VINA RESULT:      -8.1      0.000      0.000
REMARK  Name = 2466
REMARK  7 active torsions:
REMARK  status: ('A' for Active; 'I' for Inactive)
REMARK    1  A    between atoms: C_1  and  C_12
REMARK    2  A    between atoms: C_2  and  O_7
REMARK    3  A    between atoms: O_7  and  C_8
REMARK    4  A    between atoms: C_8  and  C_9
REMARK    5  A    between atoms: C_9  and  C_10
REMARK    6  A    between atoms: C_12  and  C_15
REMARK    7  A    between atoms: N_14  and  O_17
REMARK                            x       y       z     vdW  Elec       q    Type
REMARK                         _______ _______ _______ _____ _____    ______ ____
ROOT
ATOM      1  C   UNL     1      35.145 -19.564 -20.982  0.00  0.00    -0.013 C 
ATOM      2  C   UNL     1      33.567 -21.344 -19.544  0.00  0.00    +0.139 C 
ATOM      3  C   UNL     1      35.740 -20.609 -20.274  0.00  0.00    -0.001 C 
ATOM      4  C   UNL     1      33.759 -19.412 -20.968  0.00  0.00    -0.001 C 
ATOM      5  C   UNL     1      34.948 -21.502 -19.553  0.00  0.00    +0.037 C 
ATOM      6  C   UNL     1      32.967 -20.305 -20.246  0.00  0.00    +0.037 C 
ENDROOT
BRANCH   2   7
ATOM      7  O   UNL     1      32.790 -22.221 -18.833  0.00  0.00    -0.475 OA
BRANCH   7   8
ATOM      8  C   UNL     1      33.469 -23.243 -18.115  0.00  0.00    +0.205 C 
BRANCH   8   9
ATOM      9  C   UNL     1      32.976 -23.242 -16.675  0.00  0.00    +0.047 C 
BRANCH   9  10
ATOM     10  C   UNL     1      31.475 -22.983 -16.593  0.00  0.00    +0.004 C 
ATOM     11  C   UNL     1      31.007 -22.870 -15.150  0.00  0.00    +0.000 C 
ENDBRANCH   9  10
ENDBRANCH   8   9
ENDBRANCH   7   8
ENDBRANCH   2   7
BRANCH   1  12
ATOM     12  C   UNL     1      35.991 -18.609 -21.754  0.00  0.00    +0.113 C 
BRANCH  12  15
ATOM     13  O   UNL     1      35.116 -19.304 -23.901  0.00  0.00    -0.273 OA
ATOM     14  N   UNL     1      35.616 -17.074 -23.564  0.00  0.00    -0.197 N 
ATOM     15  C   UNL     1      35.525 -18.392 -23.186  0.00  0.00    +0.249 C 
ATOM     16  H   UNL     1      35.949 -16.377 -22.955  0.00  0.00    +0.182 HD
BRANCH  14  17
ATOM     17  O   UNL     1      35.205 -16.783 -24.872  0.00  0.00    -0.295 OA
ATOM     18  H   UNL     1      35.603 -15.946 -25.158  0.00  0.00    +0.241 HD
ENDBRANCH  14  17
ENDBRANCH  12  15
ENDBRANCH   1  12
TORSDOF 7
ENDMDL
MODEL 2
REMARK VINA RESULT:      -8.1      0.087      1.211
REMARK  Name = 2466
REMARK  7 active torsions:
REMARK  status: ('A' for Active; 'I' for Inactive)
REMARK    1  A    between atoms: C_1  and  C_12
REMARK    2  A    between atoms: C_2  and  O_7
REMARK    3  A    between atoms: O_7  and  C_8
REMARK    4  A    between atoms: C_8  and  C_9
REMARK    5  A    between atoms: C_9  and  C_10
REMARK    6  A    between atoms: C_12  and  C_15
REMARK    7  A    between atoms: N_14  and  O_17
REMARK                            x       y       z     vdW  Elec       q    Type
REMARK                         _______ _______ _______ _____ _____    ______ ____
ROOT
ATOM      1  C   UNL     1      35.141 -19.577 -20.944  0.00  0.00    -0.013 C 
ATOM      2  C   UNL     1      33.566 -21.370 -19.519  0.00  0.00    +0.139 C 
ATOM      3  C   UNL     1      33.753 -19.439 -20.946  0.00  0.00    -0.001 C 
ATOM      4  C   UNL     1      35.739 -20.614 -20.227  0.00  0.00    -0.001 C 
ATOM      5  C   UNL     1      32.963 -20.339 -20.231  0.00  0.00    +0.037 C 
ATOM      6  C   UNL     1      34.948 -21.513 -19.512  0.00  0.00    +0.037 C 
ENDROOT
BRANCH   2   7
ATOM      7  O   UNL     1      32.787 -22.254 -18.818  0.00  0.00    -0.475 OA
BRANCH   7   8
ATOM      8  C   UNL     1      33.465 -23.283 -18.110  0.00  0.00    +0.205 C 
BRANCH   8   9
ATOM      9  C   UNL     1      33.062 -23.220 -16.644  0.00  0.00    +0.047 C 
BRANCH   9  10
ATOM     10  C   UNL     1      31.546 -23.177 -16.477  0.00  0.00    +0.004 C 
ATOM     11  C   UNL     1      31.152 -22.865 -15.042  0.00  0.00    +0.000 C 
ENDBRANCH   9  10
ENDBRANCH   8   9
ENDBRANCH   7   8
ENDBRANCH   2   7
BRANCH   1  12
ATOM     12  C   UNL     1      35.988 -18.616 -21.708  0.00  0.00    +0.113 C 
BRANCH  12  15
ATOM     13  O   UNL     1      35.163 -19.327 -23.870  0.00  0.00    -0.273 OA
ATOM     14  N   UNL     1      35.601 -17.086 -23.521  0.00  0.00    -0.197 N 
ATOM     15  C   UNL     1      35.538 -18.407 -23.146  0.00  0.00    +0.249 C 
ATOM     16  H   UNL     1      35.908 -16.383 -22.904  0.00  0.00    +0.182 HD
BRANCH  14  17
ATOM     17  O   UNL     1      35.203 -16.802 -24.834  0.00  0.00    -0.295 OA
ATOM     18  H   UNL     1      35.922 -16.346 -25.299  0.00  0.00    +0.241 HD
ENDBRANCH  14  17
ENDBRANCH  12  15
ENDBRANCH   1  12
TORSDOF 7
ENDMDL
MODEL 3
REMARK VINA RESULT:      -8.0      1.272      1.305
REMARK  Name = 2466
REMARK  7 active torsions:
REMARK  status: ('A' for Active; 'I' for Inactive)
REMARK    1  A    between atoms: C_1  and  C_12
REMARK    2  A    between atoms: C_2  and  O_7
REMARK    3  A    between atoms: O_7  and  C_8
REMARK    4  A    between atoms: C_8  and  C_9
REMARK    5  A    between atoms: C_9  and  C_10
REMARK    6  A    between atoms: C_12  and  C_15
REMARK    7  A    between atoms: N_14  and  O_17
REMARK                            x       y       z     vdW  Elec       q    Type
REMARK                         _______ _______ _______ _____ _____    ______ ____
ROOT
ATOM      1  C   UNL     1      34.985 -19.737 -21.021  0.00  0.00    -0.013 C 
ATOM      2  C   UNL     1      33.459 -21.423 -19.425  0.00  0.00    +0.139 C 
ATOM      3  C   UNL     1      35.608 -20.710 -20.240  0.00  0.00    -0.001 C 
ATOM      4  C   UNL     1      33.596 -19.609 -21.002  0.00  0.00    -0.001 C 
ATOM      5  C   UNL     1      34.842 -21.556 -19.439  0.00  0.00    +0.037 C 
ATOM      6  C   UNL     1      32.831 -20.456 -20.200  0.00  0.00    +0.037 C 
ENDROOT
BRANCH   2   7
ATOM      7  O   UNL     1      32.707 -22.255 -18.636  0.00  0.00    -0.475 OA
BRANCH   7   8
ATOM      8  C   UNL     1      33.410 -23.237 -17.887  0.00  0.00    +0.205 C 
BRANCH   8   9
ATOM      9  C   UNL     1      32.840 -23.282 -16.476  0.00  0.00    +0.047 C 
BRANCH   9  10
ATOM     10  C   UNL     1      31.340 -23.000 -16.466  0.00  0.00    +0.004 C 
ATOM     11  C   UNL     1      30.814 -22.838 -15.048  0.00  0.00    +0.000 C 
ENDBRANCH   9  10
ENDBRANCH   8   9
ENDBRANCH   7   8
ENDBRANCH   2   7
BRANCH   1  12
ATOM     12  C   UNL     1      35.803 -18.831 -21.879  0.00  0.00    +0.113 C 
BRANCH  12  15
ATOM     13  O   UNL     1      35.260 -16.828 -20.633  0.00  0.00    -0.273 OA
ATOM     14  N   UNL     1      35.399 -16.711 -22.935  0.00  0.00    -0.197 N 
ATOM     15  C   UNL     1      35.457 -17.357 -21.724  0.00  0.00    +0.249 C 
ATOM     16  H   UNL     1      35.566 -17.178 -23.785  0.00  0.00    +0.182 HD
BRANCH  14  17
ATOM     17  O   UNL     1      35.086 -15.346 -22.886  0.00  0.00    -0.295 OA
ATOM     18  H   UNL     1      34.941 -15.014 -23.786  0.00  0.00    +0.241 HD
ENDBRANCH  14  17
ENDBRANCH  12  15
ENDBRANCH   1  12
TORSDOF 7
ENDMDL
MODEL 4
REMARK VINA RESULT:      -7.6      5.594      7.759
REMARK  Name = 2466
REMARK  7 active torsions:
REMARK  status: ('A' for Active; 'I' for Inactive)
REMARK    1  A    between atoms: C_1  and  C_12
REMARK    2  A    between atoms: C_2  and  O_7
REMARK    3  A    between atoms: O_7  and  C_8
REMARK    4  A    between atoms: C_8  and  C_9
REMARK    5  A    between atoms: C_9  and  C_10
REMARK    6  A    between atoms: C_12  and  C_15
REMARK    7  A    between atoms: N_14  and  O_17
REMARK                            x       y       z     vdW  Elec       q    Type
REMARK                         _______ _______ _______ _____ _____    ______ ____
ROOT
ATOM      1  C   UNL     1      31.299 -23.000 -15.456  0.00  0.00    -0.013 C 
ATOM      2  C   UNL     1      33.947 -23.625 -16.024  0.00  0.00    +0.139 C 
ATOM      3  C   UNL     1      32.162 -23.376 -14.427  0.00  0.00    -0.001 C 
ATOM      4  C   UNL     1      31.763 -22.937 -16.770  0.00  0.00    -0.001 C 
ATOM      5  C   UNL     1      33.491 -23.690 -14.713  0.00  0.00    +0.037 C 
ATOM      6  C   UNL     1      33.092 -23.250 -17.054  0.00  0.00    +0.037 C 
ENDROOT
BRANCH   2   7
ATOM      7  O   UNL     1      35.253 -23.934 -16.303  0.00  0.00    -0.475 OA
BRANCH   7   8
ATOM      8  C   UNL     1      36.236 -23.433 -15.407  0.00  0.00    +0.205 C 
BRANCH   8   9
ATOM      9  C   UNL     1      37.340 -22.762 -16.212  0.00  0.00    +0.047 C 
BRANCH   9  10
ATOM     10  C   UNL     1      36.851 -21.479 -16.877  0.00  0.00    +0.004 C 
ATOM     11  C   UNL     1      36.630 -21.674 -18.368  0.00  0.00    +0.000 C 
ENDBRANCH   9  10
ENDBRANCH   8   9
ENDBRANCH   7   8
ENDBRANCH   2   7
BRANCH   1  12
ATOM     12  C   UNL     1      29.878 -22.664 -15.152  0.00  0.00    +0.113 C 
BRANCH  12  15
ATOM     13  O   UNL     1      28.554 -21.964 -17.054  0.00  0.00    -0.273 OA
ATOM     14  N   UNL     1      28.562 -24.195 -16.457  0.00  0.00    -0.197 N 
ATOM     15  C   UNL     1      28.931 -22.877 -16.324  0.00  0.00    +0.249 C 
ATOM     16  H   UNL     1      28.890 -24.893 -15.847  0.00  0.00    +0.182 HD
BRANCH  14  17
ATOM     17  O   UNL     1      27.688 -24.482 -17.515  0.00  0.00    -0.295 OA
ATOM     18  H   UNL     1      26.991 -25.081 -17.205  0.00  0.00    +0.241 HD
ENDBRANCH  14  17
ENDBRANCH  12  15
ENDBRANCH   1  12
TORSDOF 7
ENDMDL
MODEL 5
REMARK VINA RESULT:      -7.6      3.194      7.081
REMARK  Name = 2466
REMARK  7 active torsions:
REMARK  status: ('A' for Active; 'I' for Inactive)
REMARK    1  A    between atoms: C_1  and  C_12
REMARK    2  A    between atoms: C_2  and  O_7
REMARK    3  A    between atoms: O_7  and  C_8
REMARK    4  A    between atoms: C_8  and  C_9
REMARK    5  A    between atoms: C_9  and  C_10
REMARK    6  A    between atoms: C_12  and  C_15
REMARK    7  A    between atoms: N_14  and  O_17
REMARK                            x       y       z     vdW  Elec       q    Type
REMARK                         _______ _______ _______ _____ _____    ______ ____
ROOT
ATOM      1  C   UNL     1      34.974 -19.199 -21.469  0.00  0.00    -0.013 C 
ATOM      2  C   UNL     1      34.956 -17.006 -23.177  0.00  0.00    +0.139 C 
ATOM      3  C   UNL     1      35.160 -17.915 -20.957  0.00  0.00    -0.001 C 
ATOM      4  C   UNL     1      34.779 -19.383 -22.838  0.00  0.00    -0.001 C 
ATOM      5  C   UNL     1      35.151 -16.814 -21.814  0.00  0.00    +0.037 C 
ATOM      6  C   UNL     1      34.770 -18.282 -23.694  0.00  0.00    +0.037 C 
ENDROOT
BRANCH   2   7
ATOM      7  O   UNL     1      34.948 -15.923 -24.018  0.00  0.00    -0.475 OA
BRANCH   7   8
ATOM      8  C   UNL     1      33.707 -15.251 -24.186  0.00  0.00    +0.205 C 
BRANCH   8   9
ATOM      9  C   UNL     1      33.757 -13.930 -23.430  0.00  0.00    +0.047 C 
BRANCH   9  10
ATOM     10  C   UNL     1      32.500 -13.711 -22.593  0.00  0.00    +0.004 C 
ATOM     11  C   UNL     1      32.689 -14.201 -21.166  0.00  0.00    +0.000 C 
ENDBRANCH   9  10
ENDBRANCH   8   9
ENDBRANCH   7   8
ENDBRANCH   2   7
BRANCH   1  12
ATOM     12  C   UNL     1      34.983 -20.376 -20.554  0.00  0.00    +0.113 C 
BRANCH  12  15
ATOM     13  O   UNL     1      32.577 -20.183 -20.370  0.00  0.00    -0.273 OA
ATOM     14  N   UNL     1      33.669 -21.795 -19.128  0.00  0.00    -0.197 N 
ATOM     15  C   UNL     1      33.608 -20.754 -20.023  0.00  0.00    +0.249 C 
ATOM     16  H   UNL     1      34.520 -22.223 -18.881  0.00  0.00    +0.182 HD
BRANCH  14  17
ATOM     17  O   UNL     1      32.444 -22.211 -18.588  0.00  0.00    -0.295 OA
ATOM     18  H   UNL     1      32.065 -22.909 -19.144  0.00  0.00    +0.241 HD
ENDBRANCH  14  17
ENDBRANCH  12  15
ENDBRANCH   1  12
TORSDOF 7
ENDMDL
MODEL 6
REMARK VINA RESULT:      -7.6      3.363      7.821
REMARK  Name = 2466
REMARK  7 active torsions:
REMARK  status: ('A' for Active; 'I' for Inactive)
REMARK    1  A    between atoms: C_1  and  C_12
REMARK    2  A    between atoms: C_2  and  O_7
REMARK    3  A    between atoms: O_7  and  C_8
REMARK    4  A    between atoms: C_8  and  C_9
REMARK    5  A    between atoms: C_9  and  C_10
REMARK    6  A    between atoms: C_12  and  C_15
REMARK    7  A    between atoms: N_14  and  O_17
REMARK                            x       y       z     vdW  Elec       q    Type
REMARK                         _______ _______ _______ _____ _____    ______ ____
ROOT
ATOM      1  C   UNL     1      34.900 -19.004 -21.626  0.00  0.00    -0.013 C 
ATOM      2  C   UNL     1      34.747 -16.814 -23.331  0.00  0.00    +0.139 C 
ATOM      3  C   UNL     1      34.832 -19.198 -23.006  0.00  0.00    -0.001 C 
ATOM      4  C   UNL     1      34.891 -17.712 -21.101  0.00  0.00    -0.001 C 
ATOM      5  C   UNL     1      34.755 -18.099 -23.861  0.00  0.00    +0.037 C 
ATOM      6  C   UNL     1      34.814 -16.613 -21.958  0.00  0.00    +0.037 C 
ENDROOT
BRANCH   2   7
ATOM      7  O   UNL     1      34.670 -15.735 -24.173  0.00  0.00    -0.475 OA
BRANCH   7   8
ATOM      8  C   UNL     1      34.082 -14.553 -23.647  0.00  0.00    +0.205 C 
BRANCH   8   9
ATOM      9  C   UNL     1      33.008 -14.067 -24.610  0.00  0.00    +0.047 C 
BRANCH   9  10
ATOM     10  C   UNL     1      33.161 -14.699 -25.990  0.00  0.00    +0.004 C 
ATOM     11  C   UNL     1      33.283 -13.641 -27.076  0.00  0.00    +0.000 C 
ENDBRANCH   9  10
ENDBRANCH   8   9
ENDBRANCH   7   8
ENDBRANCH   2   7
BRANCH   1  12
ATOM     12  C   UNL     1      34.983 -20.178 -20.711  0.00  0.00    +0.113 C 
BRANCH  12  15
ATOM     13  O   UNL     1      32.564 -20.196 -20.599  0.00  0.00    -0.273 OA
ATOM     14  N   UNL     1      33.757 -21.658 -19.267  0.00  0.00    -0.197 N 
ATOM     15  C   UNL     1      33.631 -20.660 -20.203  0.00  0.00    +0.249 C 
ATOM     16  H   UNL     1      34.635 -21.998 -18.980  0.00  0.00    +0.182 HD
BRANCH  14  17
ATOM     17  O   UNL     1      32.559 -22.162 -18.744  0.00  0.00    -0.295 OA
ATOM     18  H   UNL     1      32.151 -22.761 -19.388  0.00  0.00    +0.241 HD
ENDBRANCH  14  17
ENDBRANCH  12  15
ENDBRANCH   1  12
TORSDOF 7
ENDMDL
MODEL 7
REMARK VINA RESULT:      -7.6      4.066      6.032
REMARK  Name = 2466
REMARK  7 active torsions:
REMARK  status: ('A' for Active; 'I' for Inactive)
REMARK    1  A    between atoms: C_1  and  C_12
REMARK    2  A    between atoms: C_2  and  O_7
REMARK    3  A    between atoms: O_7  and  C_8
REMARK    4  A    between atoms: C_8  and  C_9
REMARK    5  A    between atoms: C_9  and  C_10
REMARK    6  A    between atoms: C_12  and  C_15
REMARK    7  A    between atoms: N_14  and  O_17
REMARK                            x       y       z     vdW  Elec       q    Type
REMARK                         _______ _______ _______ _____ _____    ______ ____
ROOT
ATOM      1  C   UNL     1      33.416 -14.257 -22.631  0.00  0.00    -0.013 C 
ATOM      2  C   UNL     1      34.669 -16.388 -21.363  0.00  0.00    +0.139 C 
ATOM      3  C   UNL     1      34.376 -15.005 -23.311  0.00  0.00    -0.001 C 
ATOM      4  C   UNL     1      33.083 -14.577 -21.315  0.00  0.00    -0.001 C 
ATOM      5  C   UNL     1      35.005 -16.075 -22.674  0.00  0.00    +0.037 C 
ATOM      6  C   UNL     1      33.713 -15.648 -20.679  0.00  0.00    +0.037 C 
ENDROOT
BRANCH   2   7
ATOM      7  O   UNL     1      35.288 -17.440 -20.738  0.00  0.00    -0.475 OA
BRANCH   7   8
ATOM      8  C   UNL     1      35.919 -18.401 -21.573  0.00  0.00    +0.205 C 
BRANCH   8   9
ATOM      9  C   UNL     1      34.935 -19.528 -21.856  0.00  0.00    +0.047 C 
BRANCH   9  10
ATOM     10  C   UNL     1      34.326 -20.080 -20.570  0.00  0.00    +0.004 C 
ATOM     11  C   UNL     1      32.810 -19.957 -20.575  0.00  0.00    +0.000 C 
ENDBRANCH   9  10
ENDBRANCH   8   9
ENDBRANCH   7   8
ENDBRANCH   2   7
BRANCH   1  12
ATOM     12  C   UNL     1      32.742 -13.113 -23.311  0.00  0.00    +0.113 C 
BRANCH  12  15
ATOM     13  O   UNL     1      33.517 -12.883 -25.593  0.00  0.00    -0.273 OA
ATOM     14  N   UNL     1      34.349 -11.455 -23.979  0.00  0.00    -0.197 N 
ATOM     15  C   UNL     1      33.565 -12.490 -24.430  0.00  0.00    +0.249 C 
ATOM     16  H   UNL     1      34.354 -11.176 -23.035  0.00  0.00    +0.182 HD
BRANCH  14  17
ATOM     17  O   UNL     1      35.142 -10.822 -24.946  0.00  0.00    -0.295 OA
ATOM     18  H   UNL     1      35.651 -11.488 -25.434  0.00  0.00    +0.241 HD
ENDBRANCH  14  17
ENDBRANCH  12  15
ENDBRANCH   1  12
TORSDOF 7
ENDMDL
MODEL 8
REMARK VINA RESULT:      -7.5      2.923      7.110
REMARK  Name = 2466
REMARK  7 active torsions:
REMARK  status: ('A' for Active; 'I' for Inactive)
REMARK    1  A    between atoms: C_1  and  C_12
REMARK    2  A    between atoms: C_2  and  O_7
REMARK    3  A    between atoms: O_7  and  C_8
REMARK    4  A    between atoms: C_8  and  C_9
REMARK    5  A    between atoms: C_9  and  C_10
REMARK    6  A    between atoms: C_12  and  C_15
REMARK    7  A    between atoms: N_14  and  O_17
REMARK                            x       y       z     vdW  Elec       q    Type
REMARK                         _______ _______ _______ _____ _____    ______ ____
ROOT
ATOM      1  C   UNL     1      34.198 -21.948 -19.498  0.00  0.00    -0.013 C 
ATOM      2  C   UNL     1      35.058 -19.617 -20.745  0.00  0.00    +0.139 C 
ATOM      3  C   UNL     1      35.562 -21.682 -19.613  0.00  0.00    -0.001 C 
ATOM      4  C   UNL     1      33.265 -21.045 -20.008  0.00  0.00    -0.001 C 
ATOM      5  C   UNL     1      35.993 -20.512 -20.239  0.00  0.00    +0.037 C 
ATOM      6  C   UNL     1      33.697 -19.876 -20.633  0.00  0.00    +0.037 C 
ENDROOT
BRANCH   2   7
ATOM      7  O   UNL     1      35.483 -18.469 -21.360  0.00  0.00    -0.475 OA
BRANCH   7   8
ATOM      8  C   UNL     1      34.736 -18.031 -22.487  0.00  0.00    +0.205 C 
BRANCH   8   9
ATOM      9  C   UNL     1      35.124 -18.876 -23.693  0.00  0.00    +0.047 C 
BRANCH   9  10
ATOM     10  C   UNL     1      34.448 -18.381 -24.968  0.00  0.00    +0.004 C 
ATOM     11  C   UNL     1      34.656 -16.888 -25.166  0.00  0.00    +0.000 C 
ENDBRANCH   9  10
ENDBRANCH   8   9
ENDBRANCH   7   8
ENDBRANCH   2   7
BRANCH   1  12
ATOM     12  C   UNL     1      33.736 -23.198 -18.829  0.00  0.00    +0.113 C 
BRANCH  12  15
ATOM     13  O   UNL     1      31.867 -22.580 -17.419  0.00  0.00    -0.273 OA
ATOM     14  N   UNL     1      33.851 -23.226 -16.428  0.00  0.00    -0.197 N 
ATOM     15  C   UNL     1      33.033 -22.961 -17.500  0.00  0.00    +0.249 C 
ATOM     16  H   UNL     1      34.780 -23.531 -16.543  0.00  0.00    +0.182 HD
BRANCH  14  17
ATOM     17  O   UNL     1      33.283 -23.034 -15.162  0.00  0.00    -0.295 OA
ATOM     18  H   UNL     1      32.679 -22.277 -15.189  0.00  0.00    +0.241 HD
ENDBRANCH  14  17
ENDBRANCH  12  15
ENDBRANCH   1  12
TORSDOF 7
ENDMDL
MODEL 9
REMARK VINA RESULT:      -7.4      4.830      8.009
REMARK  Name = 2466
REMARK  7 active torsions:
REMARK  status: ('A' for Active; 'I' for Inactive)
REMARK    1  A    between atoms: C_1  and  C_12
REMARK    2  A    between atoms: C_2  and  O_7
REMARK    3  A    between atoms: O_7  and  C_8
REMARK    4  A    between atoms: C_8  and  C_9
REMARK    5  A    between atoms: C_9  and  C_10
REMARK    6  A    between atoms: C_12  and  C_15
REMARK    7  A    between atoms: N_14  and  O_17
REMARK                            x       y       z     vdW  Elec       q    Type
REMARK                         _______ _______ _______ _____ _____    ______ ____
ROOT
ATOM      1  C   UNL     1      35.580 -23.085 -15.821  0.00  0.00    -0.013 C 
ATOM      2  C   UNL     1      36.194 -21.620 -18.102  0.00  0.00    +0.139 C 
ATOM      3  C   UNL     1      34.669 -23.022 -16.876  0.00  0.00    -0.001 C 
ATOM      4  C   UNL     1      36.799 -22.413 -15.911  0.00  0.00    -0.001 C 
ATOM      5  C   UNL     1      34.978 -22.287 -18.020  0.00  0.00    +0.037 C 
ATOM      6  C   UNL     1      37.107 -21.678 -17.056  0.00  0.00    +0.037 C 
ENDROOT
BRANCH   2   7
ATOM      7  O   UNL     1      36.496 -20.897 -19.227  0.00  0.00    -0.475 OA
BRANCH   7   8
ATOM      8  C   UNL     1      35.576 -20.978 -20.307  0.00  0.00    +0.205 C 
BRANCH   8   9
ATOM      9  C   UNL     1      35.399 -19.591 -20.909  0.00  0.00    +0.047 C 
BRANCH   9  10
ATOM     10  C   UNL     1      33.925 -19.216 -21.037  0.00  0.00    +0.004 C 
ATOM     11  C   UNL     1      33.026 -20.273 -20.415  0.00  0.00    +0.000 C 
ENDBRANCH   9  10
ENDBRANCH   8   9
ENDBRANCH   7   8
ENDBRANCH   2   7
BRANCH   1  12
ATOM     12  C   UNL     1      35.251 -23.871 -14.597  0.00  0.00    +0.113 C 
BRANCH  12  15
ATOM     13  O   UNL     1      36.184 -25.893 -15.546  0.00  0.00    -0.273 OA
ATOM     14  N   UNL     1      36.199 -25.623 -13.253  0.00  0.00    -0.197 N 
ATOM     15  C   UNL     1      35.924 -25.235 -14.542  0.00  0.00    +0.249 C 
ATOM     16  H   UNL     1      35.972 -25.060 -12.478  0.00  0.00    +0.182 HD
BRANCH  14  17
ATOM     17  O   UNL     1      36.821 -26.870 -13.108  0.00  0.00    -0.295 OA
ATOM     18  H   UNL     1      36.408 -27.356 -12.377  0.00  0.00    +0.241 HD
ENDBRANCH  14  17
ENDBRANCH  12  15
ENDBRANCH   1  12
TORSDOF 7
ENDMDL
