MODEL 1
REMARK VINA RESULT:      -8.1      0.000      0.000
REMARK  Name = 50981
REMARK  5 active torsions:
REMARK  status: ('A' for Active; 'I' for Inactive)
REMARK    1  A    between atoms: C_1  and  O_2
REMARK    2  A    between atoms: C_1  and  C_4
REMARK    3  A    between atoms: C_1  and  C_12
REMARK    4  A    between atoms: C_4  and  N_5
REMARK    5  A    between atoms: C_12  and  N_15
REMARK                            x       y       z     vdW  Elec       q    Type
REMARK                         _______ _______ _______ _____ _____    ______ ____
ROOT
ATOM      1  C   UNL     1      33.826 -23.971 -13.899  0.00  0.00    +0.110 C 
ENDROOT
BRANCH   1   2
ATOM      2  O   UNL     1      33.330 -23.363 -12.703  0.00  0.00    -0.385 OA
ATOM      3  H   UNL     1      32.948 -24.046 -12.129  0.00  0.00    +0.210 HD
ENDBRANCH   1   2
BRANCH   1   4
ATOM      4  C   UNL     1      33.056 -23.376 -15.084  0.00  0.00    -0.046 C 
BRANCH   4   5
ATOM      5  N   UNL     1      31.608 -23.487 -14.910  0.00  0.00    +0.389 N 
ATOM      6  C   UNL     1      30.906 -22.914 -16.066  0.00  0.00    -0.077 C 
ATOM      7  C   UNL     1      31.222 -24.889 -14.694  0.00  0.00    -0.077 C 
ATOM      8  C   UNL     1      29.389 -22.977 -15.878  0.00  0.00    -0.023 C 
ATOM      9  C   UNL     1      29.716 -25.017 -14.462  0.00  0.00    -0.023 C 
ATOM     10  C   UNL     1      28.923 -24.404 -15.610  0.00  0.00    -0.004 C 
ATOM     11  H   UNL     1      31.337 -22.957 -14.082  0.00  0.00    -0.080 HD
ENDBRANCH   4   5
ENDBRANCH   1   4
BRANCH   1  12
ATOM     12  C   UNL     1      35.333 -23.701 -13.984  0.00  0.00    +0.126 C 
BRANCH  12  15
ATOM     13  O   UNL     1      37.001 -23.838 -10.806  0.00  0.00    -0.123 OA
ATOM     14  O   UNL     1      35.162 -25.032 -10.648  0.00  0.00    -0.123 OA
ATOM     15  N   UNL     1      36.128 -24.899 -13.706  0.00  0.00    -0.249 N 
ATOM     16  N   UNL     1      37.225 -26.441 -12.581  0.00  0.00    -0.207 NA
ATOM     17  N   UNL     1      36.216 -24.713 -11.269  0.00  0.00    +0.091 N 
ATOM     18  C   UNL     1      36.517 -25.339 -12.484  0.00  0.00    +0.284 C 
ATOM     19  C   UNL     1      36.602 -25.751 -14.647  0.00  0.00    +0.089 C 
ATOM     20  C   UNL     1      37.282 -26.704 -13.926  0.00  0.00    +0.118 C 
ENDBRANCH  12  15
ENDBRANCH   1  12
TORSDOF 5
ENDMDL
MODEL 2
REMARK VINA RESULT:      -7.8      9.986     12.187
REMARK  Name = 50981
REMARK  5 active torsions:
REMARK  status: ('A' for Active; 'I' for Inactive)
REMARK    1  A    between atoms: C_1  and  O_2
REMARK    2  A    between atoms: C_1  and  C_4
REMARK    3  A    between atoms: C_1  and  C_12
REMARK    4  A    between atoms: C_4  and  N_5
REMARK    5  A    between atoms: C_12  and  N_15
REMARK                            x       y       z     vdW  Elec       q    Type
REMARK                         _______ _______ _______ _____ _____    ______ ____
ROOT
ATOM      1  C   UNL     1      35.188 -17.907 -22.673  0.00  0.00    +0.110 C 
ENDROOT
BRANCH   1   2
ATOM      2  O   UNL     1      35.651 -18.306 -23.966  0.00  0.00    -0.385 OA
ATOM      3  H   UNL     1      35.718 -19.274 -24.001  0.00  0.00    +0.210 HD
ENDBRANCH   1   2
BRANCH   1   4
ATOM      4  C   UNL     1      36.075 -18.587 -21.624  0.00  0.00    -0.046 C 
BRANCH   4   5
ATOM      5  N   UNL     1      35.291 -19.354 -20.656  0.00  0.00    +0.389 N 
ATOM      6  C   UNL     1      33.942 -19.613 -21.176  0.00  0.00    -0.077 C 
ATOM      7  C   UNL     1      35.980 -20.608 -20.316  0.00  0.00    -0.077 C 
ATOM      8  C   UNL     1      33.093 -20.372 -20.155  0.00  0.00    -0.023 C 
ATOM      9  C   UNL     1      35.197 -21.400 -19.268  0.00  0.00    -0.023 C 
ATOM     10  C   UNL     1      33.770 -21.670 -19.728  0.00  0.00    -0.004 C 
ATOM     11  H   UNL     1      35.199 -18.806 -19.801  0.00  0.00    -0.080 HD
ENDBRANCH   4   5
ENDBRANCH   1   4
BRANCH   1  12
ATOM     12  C   UNL     1      35.252 -16.377 -22.593  0.00  0.00    +0.126 C 
BRANCH  12  15
ATOM     13  O   UNL     1      34.172 -13.273 -24.042  0.00  0.00    -0.123 OA
ATOM     14  O   UNL     1      33.007 -14.887 -24.974  0.00  0.00    -0.123 OA
ATOM     15  N   UNL     1      34.016 -15.796 -22.066  0.00  0.00    -0.249 N 
ATOM     16  N   UNL     1      32.199 -14.560 -21.938  0.00  0.00    -0.207 NA
ATOM     17  N   UNL     1      33.480 -14.326 -23.945  0.00  0.00    +0.091 N 
ATOM     18  C   UNL     1      33.233 -14.877 -22.683  0.00  0.00    +0.284 C 
ATOM     19  C   UNL     1      33.470 -16.096 -20.862  0.00  0.00    +0.089 C 
ATOM     20  C   UNL     1      32.340 -15.316 -20.801  0.00  0.00    +0.118 C 
ENDBRANCH  12  15
ENDBRANCH   1  12
TORSDOF 5
ENDMDL
MODEL 3
REMARK VINA RESULT:      -7.7     10.717     12.962
REMARK  Name = 50981
REMARK  5 active torsions:
REMARK  status: ('A' for Active; 'I' for Inactive)
REMARK    1  A    between atoms: C_1  and  O_2
REMARK    2  A    between atoms: C_1  and  C_4
REMARK    3  A    between atoms: C_1  and  C_12
REMARK    4  A    between atoms: C_4  and  N_5
REMARK    5  A    between atoms: C_12  and  N_15
REMARK                            x       y       z     vdW  Elec       q    Type
REMARK                         _______ _______ _______ _____ _____    ______ ____
ROOT
ATOM      1  C   UNL     1      34.157 -16.470 -24.577  0.00  0.00    +0.110 C 
ENDROOT
BRANCH   1   2
ATOM      2  O   UNL     1      34.182 -16.175 -25.976  0.00  0.00    -0.385 OA
ATOM      3  H   UNL     1      33.744 -15.324 -26.135  0.00  0.00    +0.210 HD
ENDBRANCH   1   2
BRANCH   1   4
ATOM      4  C   UNL     1      34.930 -17.776 -24.356  0.00  0.00    -0.046 C 
BRANCH   4   5
ATOM      5  N   UNL     1      34.923 -18.188 -22.953  0.00  0.00    +0.389 N 
ATOM      6  C   UNL     1      34.159 -19.431 -22.785  0.00  0.00    -0.077 C 
ATOM      7  C   UNL     1      36.299 -18.338 -22.455  0.00  0.00    -0.077 C 
ATOM      8  C   UNL     1      34.102 -19.850 -21.315  0.00  0.00    -0.023 C 
ATOM      9  C   UNL     1      36.311 -18.721 -20.975  0.00  0.00    -0.023 C 
ATOM     10  C   UNL     1      35.500 -19.987 -20.723  0.00  0.00    -0.004 C 
ATOM     11  H   UNL     1      34.468 -17.462 -22.401  0.00  0.00    -0.080 HD
ENDBRANCH   4   5
ENDBRANCH   1   4
BRANCH   1  12
ATOM     12  C   UNL     1      34.780 -15.286 -23.827  0.00  0.00    +0.126 C 
BRANCH  12  15
ATOM     13  O   UNL     1      33.290 -16.645 -20.855  0.00  0.00    -0.123 OA
ATOM     14  O   UNL     1      34.851 -15.228 -20.233  0.00  0.00    -0.123 OA
ATOM     15  N   UNL     1      33.772 -14.462 -23.156  0.00  0.00    -0.249 N 
ATOM     16  N   UNL     1      32.443 -13.690 -21.580  0.00  0.00    -0.207 NA
ATOM     17  N   UNL     1      33.854 -15.519 -20.952  0.00  0.00    +0.091 N 
ATOM     18  C   UNL     1      33.367 -14.579 -21.868  0.00  0.00    +0.284 C 
ATOM     19  C   UNL     1      33.084 -13.451 -23.740  0.00  0.00    +0.089 C 
ATOM     20  C   UNL     1      32.262 -12.983 -22.742  0.00  0.00    +0.118 C 
ENDBRANCH  12  15
ENDBRANCH   1  12
TORSDOF 5
ENDMDL
MODEL 4
REMARK VINA RESULT:      -7.7      7.628      8.966
REMARK  Name = 50981
REMARK  5 active torsions:
REMARK  status: ('A' for Active; 'I' for Inactive)
REMARK    1  A    between atoms: C_1  and  O_2
REMARK    2  A    between atoms: C_1  and  C_4
REMARK    3  A    between atoms: C_1  and  C_12
REMARK    4  A    between atoms: C_4  and  N_5
REMARK    5  A    between atoms: C_12  and  N_15
REMARK                            x       y       z     vdW  Elec       q    Type
REMARK                         _______ _______ _______ _____ _____    ______ ____
ROOT
ATOM      1  C   UNL     1      36.094 -19.810 -20.242  0.00  0.00    +0.110 C 
ENDROOT
BRANCH   1   2
ATOM      2  O   UNL     1      37.229 -19.307 -20.953  0.00  0.00    -0.385 OA
ATOM      3  H   UNL     1      37.015 -19.242 -21.898  0.00  0.00    +0.210 HD
ENDBRANCH   1   2
BRANCH   1   4
ATOM      4  C   UNL     1      34.834 -19.388 -21.007  0.00  0.00    -0.046 C 
BRANCH   4   5
ATOM      5  N   UNL     1      35.139 -18.480 -22.112  0.00  0.00    +0.389 N 
ATOM      6  C   UNL     1      34.581 -18.996 -23.370  0.00  0.00    -0.077 C 
ATOM      7  C   UNL     1      34.637 -17.129 -21.822  0.00  0.00    -0.077 C 
ATOM      8  C   UNL     1      34.934 -18.082 -24.546  0.00  0.00    -0.023 C 
ATOM      9  C   UNL     1      34.991 -16.155 -22.946  0.00  0.00    -0.023 C 
ATOM     10  C   UNL     1      34.474 -16.650 -24.292  0.00  0.00    -0.004 C 
ATOM     11  H   UNL     1      36.152 -18.422 -22.218  0.00  0.00    -0.080 HD
ENDBRANCH   4   5
ENDBRANCH   1   4
BRANCH   1  12
ATOM     12  C   UNL     1      36.232 -21.333 -20.134  0.00  0.00    +0.126 C 
BRANCH  12  15
ATOM     13  O   UNL     1      32.861 -22.141 -19.196  0.00  0.00    -0.123 OA
ATOM     14  O   UNL     1      33.887 -24.022 -19.691  0.00  0.00    -0.123 OA
ATOM     15  N   UNL     1      36.024 -21.813 -18.766  0.00  0.00    -0.249 N 
ATOM     16  N   UNL     1      35.074 -22.788 -17.036  0.00  0.00    -0.207 NA
ATOM     17  N   UNL     1      33.861 -22.907 -19.096  0.00  0.00    +0.091 N 
ATOM     18  C   UNL     1      34.956 -22.516 -18.316  0.00  0.00    +0.284 C 
ATOM     19  C   UNL     1      36.882 -21.615 -17.735  0.00  0.00    +0.089 C 
ATOM     20  C   UNL     1      36.272 -22.229 -16.668  0.00  0.00    +0.118 C 
ENDBRANCH  12  15
ENDBRANCH   1  12
TORSDOF 5
ENDMDL
MODEL 5
REMARK VINA RESULT:      -7.7      2.182      2.755
REMARK  Name = 50981
REMARK  5 active torsions:
REMARK  status: ('A' for Active; 'I' for Inactive)
REMARK    1  A    between atoms: C_1  and  O_2
REMARK    2  A    between atoms: C_1  and  C_4
REMARK    3  A    between atoms: C_1  and  C_12
REMARK    4  A    between atoms: C_4  and  N_5
REMARK    5  A    between atoms: C_12  and  N_15
REMARK                            x       y       z     vdW  Elec       q    Type
REMARK                         _______ _______ _______ _____ _____    ______ ____
ROOT
ATOM      1  C   UNL     1      35.987 -24.467 -15.118  0.00  0.00    +0.110 C 
ENDROOT
BRANCH   1   2
ATOM      2  O   UNL     1      36.314 -25.851 -15.271  0.00  0.00    -0.385 OA
ATOM      3  H   UNL     1      35.525 -26.341 -15.551  0.00  0.00    +0.210 HD
ENDBRANCH   1   2
BRANCH   1   4
ATOM      4  C   UNL     1      34.835 -24.363 -14.112  0.00  0.00    -0.046 C 
BRANCH   4   5
ATOM      5  N   UNL     1      33.532 -24.287 -14.773  0.00  0.00    +0.389 N 
ATOM      6  C   UNL     1      32.489 -23.910 -13.810  0.00  0.00    -0.077 C 
ATOM      7  C   UNL     1      33.582 -23.344 -15.899  0.00  0.00    -0.077 C 
ATOM      8  C   UNL     1      31.111 -23.874 -14.475  0.00  0.00    -0.023 C 
ATOM      9  C   UNL     1      32.241 -23.289 -16.632  0.00  0.00    -0.023 C 
ATOM     10  C   UNL     1      31.103 -22.940 -15.680  0.00  0.00    -0.004 C 
ATOM     11  H   UNL     1      33.300 -25.208 -15.145  0.00  0.00    -0.080 HD
ENDBRANCH   4   5
ENDBRANCH   1   4
BRANCH   1  12
ATOM     12  C   UNL     1      37.245 -23.726 -14.649  0.00  0.00    +0.126 C 
BRANCH  12  15
ATOM     13  O   UNL     1      38.041 -24.643 -11.270  0.00  0.00    -0.123 OA
ATOM     14  O   UNL     1      36.891 -26.293 -12.157  0.00  0.00    -0.123 OA
ATOM     15  N   UNL     1      38.382 -24.628 -14.460  0.00  0.00    -0.249 N 
ATOM     16  N   UNL     1      39.737 -26.083 -13.512  0.00  0.00    -0.207 NA
ATOM     17  N   UNL     1      37.825 -25.444 -12.223  0.00  0.00    +0.091 N 
ATOM     18  C   UNL     1      38.629 -25.390 -13.367  0.00  0.00    +0.284 C 
ATOM     19  C   UNL     1      39.371 -24.830 -15.364  0.00  0.00    +0.089 C 
ATOM     20  C   UNL     1      40.204 -25.738 -14.756  0.00  0.00    +0.118 C 
ENDBRANCH  12  15
ENDBRANCH   1  12
TORSDOF 5
ENDMDL
MODEL 6
REMARK VINA RESULT:      -7.6      9.419     11.670
REMARK  Name = 50981
REMARK  5 active torsions:
REMARK  status: ('A' for Active; 'I' for Inactive)
REMARK    1  A    between atoms: C_1  and  O_2
REMARK    2  A    between atoms: C_1  and  C_4
REMARK    3  A    between atoms: C_1  and  C_12
REMARK    4  A    between atoms: C_4  and  N_5
REMARK    5  A    between atoms: C_12  and  N_15
REMARK                            x       y       z     vdW  Elec       q    Type
REMARK                         _______ _______ _______ _____ _____    ______ ____
ROOT
ATOM      1  C   UNL     1      35.091 -17.781 -22.284  0.00  0.00    +0.110 C 
ENDROOT
BRANCH   1   2
ATOM      2  O   UNL     1      35.592 -17.765 -23.623  0.00  0.00    -0.385 OA
ATOM      3  H   UNL     1      34.937 -17.355 -24.209  0.00  0.00    +0.210 HD
ENDBRANCH   1   2
BRANCH   1   4
ATOM      4  C   UNL     1      35.964 -18.739 -21.465  0.00  0.00    -0.046 C 
BRANCH   4   5
ATOM      5  N   UNL     1      35.176 -19.524 -20.515  0.00  0.00    +0.389 N 
ATOM      6  C   UNL     1      33.807 -19.714 -21.015  0.00  0.00    -0.077 C 
ATOM      7  C   UNL     1      35.829 -20.815 -20.249  0.00  0.00    -0.077 C 
ATOM      8  C   UNL     1      32.956 -20.493 -20.010  0.00  0.00    -0.023 C 
ATOM      9  C   UNL     1      35.043 -21.629 -19.221  0.00  0.00    -0.023 C 
ATOM     10  C   UNL     1      33.598 -21.831 -19.659  0.00  0.00    -0.004 C 
ATOM     11  H   UNL     1      35.121 -19.014 -19.634  0.00  0.00    -0.080 HD
ENDBRANCH   4   5
ENDBRANCH   1   4
BRANCH   1  12
ATOM     12  C   UNL     1      35.125 -16.347 -21.742  0.00  0.00    +0.126 C 
BRANCH  12  15
ATOM     13  O   UNL     1      31.682 -16.672 -20.773  0.00  0.00    -0.123 OA
ATOM     14  O   UNL     1      32.511 -14.927 -19.722  0.00  0.00    -0.123 OA
ATOM     15  N   UNL     1      34.162 -15.475 -22.419  0.00  0.00    -0.249 N 
ATOM     16  N   UNL     1      32.312 -14.352 -22.822  0.00  0.00    -0.207 NA
ATOM     17  N   UNL     1      32.351 -15.600 -20.781  0.00  0.00    +0.091 N 
ATOM     18  C   UNL     1      32.923 -15.151 -21.976  0.00  0.00    +0.284 C 
ATOM     19  C   UNL     1      34.375 -14.861 -23.609  0.00  0.00    +0.089 C 
ATOM     20  C   UNL     1      33.211 -14.168 -23.842  0.00  0.00    +0.118 C 
ENDBRANCH  12  15
ENDBRANCH   1  12
TORSDOF 5
ENDMDL
MODEL 7
REMARK VINA RESULT:      -7.6     11.043     13.317
REMARK  Name = 50981
REMARK  5 active torsions:
REMARK  status: ('A' for Active; 'I' for Inactive)
REMARK    1  A    between atoms: C_1  and  O_2
REMARK    2  A    between atoms: C_1  and  C_4
REMARK    3  A    between atoms: C_1  and  C_12
REMARK    4  A    between atoms: C_4  and  N_5
REMARK    5  A    between atoms: C_12  and  N_15
REMARK                            x       y       z     vdW  Elec       q    Type
REMARK                         _______ _______ _______ _____ _____    ______ ____
ROOT
ATOM      1  C   UNL     1      34.595 -18.011 -23.723  0.00  0.00    +0.110 C 
ENDROOT
BRANCH   1   2
ATOM      2  O   UNL     1      34.625 -19.034 -24.723  0.00  0.00    -0.385 OA
ATOM      3  H   UNL     1      33.781 -19.041 -25.203  0.00  0.00    +0.210 HD
ENDBRANCH   1   2
BRANCH   1   4
ATOM      4  C   UNL     1      35.527 -18.438 -22.584  0.00  0.00    -0.046 C 
BRANCH   4   5
ATOM      5  N   UNL     1      35.006 -19.590 -21.849  0.00  0.00    +0.389 N 
ATOM      6  C   UNL     1      35.926 -19.971 -20.768  0.00  0.00    -0.077 C 
ATOM      7  C   UNL     1      33.662 -19.301 -21.326  0.00  0.00    -0.077 C 
ATOM      8  C   UNL     1      35.418 -21.205 -20.020  0.00  0.00    -0.023 C 
ATOM      9  C   UNL     1      33.081 -20.512 -20.596  0.00  0.00    -0.023 C 
ATOM     10  C   UNL     1      34.008 -20.986 -19.483  0.00  0.00    -0.004 C 
ATOM     11  H   UNL     1      34.929 -20.380 -22.489  0.00  0.00    -0.080 HD
ENDBRANCH   4   5
ENDBRANCH   1   4
BRANCH   1  12
ATOM     12  C   UNL     1      35.029 -16.693 -24.374  0.00  0.00    +0.126 C 
BRANCH  12  15
ATOM     13  O   UNL     1      33.919 -14.636 -27.101  0.00  0.00    -0.123 OA
ATOM     14  O   UNL     1      32.315 -16.069 -26.648  0.00  0.00    -0.123 OA
ATOM     15  N   UNL     1      34.128 -15.587 -24.044  0.00  0.00    -0.249 N 
ATOM     16  N   UNL     1      32.631 -13.991 -24.290  0.00  0.00    -0.207 NA
ATOM     17  N   UNL     1      33.175 -15.225 -26.267  0.00  0.00    +0.091 N 
ATOM     18  C   UNL     1      33.304 -14.939 -24.903  0.00  0.00    +0.284 C 
ATOM     19  C   UNL     1      33.989 -15.041 -22.811  0.00  0.00    +0.089 C 
ATOM     20  C   UNL     1      33.054 -14.049 -22.986  0.00  0.00    +0.118 C 
ENDBRANCH  12  15
ENDBRANCH   1  12
TORSDOF 5
ENDMDL
MODEL 8
REMARK VINA RESULT:      -7.5     10.347     12.558
REMARK  Name = 50981
REMARK  5 active torsions:
REMARK  status: ('A' for Active; 'I' for Inactive)
REMARK    1  A    between atoms: C_1  and  O_2
REMARK    2  A    between atoms: C_1  and  C_4
REMARK    3  A    between atoms: C_1  and  C_12
REMARK    4  A    between atoms: C_4  and  N_5
REMARK    5  A    between atoms: C_12  and  N_15
REMARK                            x       y       z     vdW  Elec       q    Type
REMARK                         _______ _______ _______ _____ _____    ______ ____
ROOT
ATOM      1  C   UNL     1      35.228 -17.119 -21.820  0.00  0.00    +0.110 C 
ENDROOT
BRANCH   1   2
ATOM      2  O   UNL     1      35.221 -16.784 -20.430  0.00  0.00    -0.385 OA
ATOM      3  H   UNL     1      35.645 -15.921 -20.303  0.00  0.00    +0.210 HD
ENDBRANCH   1   2
BRANCH   1   4
ATOM      4  C   UNL     1      35.562 -18.609 -21.946  0.00  0.00    -0.046 C 
BRANCH   4   5
ATOM      5  N   UNL     1      35.065 -19.382 -20.807  0.00  0.00    +0.389 N 
ATOM      6  C   UNL     1      33.713 -19.889 -21.081  0.00  0.00    -0.077 C 
ATOM      7  C   UNL     1      35.990 -20.479 -20.487  0.00  0.00    -0.077 C 
ATOM      8  C   UNL     1      33.159 -20.659 -19.881  0.00  0.00    -0.023 C 
ATOM      9  C   UNL     1      35.510 -21.267 -19.268  0.00  0.00    -0.023 C 
ATOM     10  C   UNL     1      34.093 -21.792 -19.470  0.00  0.00    -0.004 C 
ATOM     11  H   UNL     1      35.012 -18.769 -19.994  0.00  0.00    -0.080 HD
ENDBRANCH   4   5
ENDBRANCH   1   4
BRANCH   1  12
ATOM     12  C   UNL     1      33.851 -16.775 -22.402  0.00  0.00    +0.126 C 
BRANCH  12  15
ATOM     13  O   UNL     1      35.186 -16.601 -25.731  0.00  0.00    -0.123 OA
ATOM     14  O   UNL     1      32.996 -16.699 -25.893  0.00  0.00    -0.123 OA
ATOM     15  N   UNL     1      33.835 -15.463 -23.053  0.00  0.00    -0.249 N 
ATOM     16  N   UNL     1      33.884 -13.939 -24.640  0.00  0.00    -0.207 NA
ATOM     17  N   UNL     1      34.039 -16.212 -25.372  0.00  0.00    +0.091 N 
ATOM     18  C   UNL     1      33.922 -15.227 -24.384  0.00  0.00    +0.284 C 
ATOM     19  C   UNL     1      33.736 -14.277 -22.405  0.00  0.00    +0.089 C 
ATOM     20  C   UNL     1      33.768 -13.340 -23.411  0.00  0.00    +0.118 C 
ENDBRANCH  12  15
ENDBRANCH   1  12
TORSDOF 5
ENDMDL
MODEL 9
REMARK VINA RESULT:      -7.4      1.675      1.980
REMARK  Name = 50981
REMARK  5 active torsions:
REMARK  status: ('A' for Active; 'I' for Inactive)
REMARK    1  A    between atoms: C_1  and  O_2
REMARK    2  A    between atoms: C_1  and  C_4
REMARK    3  A    between atoms: C_1  and  C_12
REMARK    4  A    between atoms: C_4  and  N_5
REMARK    5  A    between atoms: C_12  and  N_15
REMARK                            x       y       z     vdW  Elec       q    Type
REMARK                         _______ _______ _______ _____ _____    ______ ____
ROOT
ATOM      1  C   UNL     1      35.929 -22.958 -15.363  0.00  0.00    +0.110 C 
ENDROOT
BRANCH   1   2
ATOM      2  O   UNL     1      36.749 -23.095 -16.527  0.00  0.00    -0.385 OA
ATOM      3  H   UNL     1      37.606 -22.669 -16.370  0.00  0.00    +0.210 HD
ENDBRANCH   1   2
BRANCH   1   4
ATOM      4  C   UNL     1      34.771 -23.956 -15.481  0.00  0.00    -0.046 C 
BRANCH   4   5
ATOM      5  N   UNL     1      33.467 -23.296 -15.409  0.00  0.00    +0.389 N 
ATOM      6  C   UNL     1      32.708 -23.523 -16.646  0.00  0.00    -0.077 C 
ATOM      7  C   UNL     1      32.720 -23.764 -14.233  0.00  0.00    -0.077 C 
ATOM      8  C   UNL     1      31.361 -22.799 -16.607  0.00  0.00    -0.023 C 
ATOM      9  C   UNL     1      31.373 -23.048 -14.115  0.00  0.00    -0.023 C 
ATOM     10  C   UNL     1      30.546 -23.210 -15.385  0.00  0.00    -0.004 C 
ATOM     11  H   UNL     1      33.614 -22.292 -15.309  0.00  0.00    -0.080 HD
ENDBRANCH   4   5
ENDBRANCH   1   4
BRANCH   1  12
ATOM     12  C   UNL     1      36.802 -23.215 -14.129  0.00  0.00    +0.126 C 
BRANCH  12  15
ATOM     13  O   UNL     1      36.749 -24.318 -10.712  0.00  0.00    -0.123 OA
ATOM     14  O   UNL     1      34.787 -24.775 -11.593  0.00  0.00    -0.123 OA
ATOM     15  N   UNL     1      37.022 -24.643 -13.892  0.00  0.00    -0.249 N 
ATOM     16  N   UNL     1      37.022 -26.598 -12.880  0.00  0.00    -0.207 NA
ATOM     17  N   UNL     1      36.050 -24.789 -11.653  0.00  0.00    +0.091 N 
ATOM     18  C   UNL     1      36.681 -25.334 -12.777  0.00  0.00    +0.284 C 
ATOM     19  C   UNL     1      37.614 -25.492 -14.767  0.00  0.00    +0.089 C 
ATOM     20  C   UNL     1      37.605 -26.704 -14.118  0.00  0.00    +0.118 C 
ENDBRANCH  12  15
ENDBRANCH   1  12
TORSDOF 5
ENDMDL
