MODEL 1
REMARK VINA RESULT:      -6.6      0.000      0.000
REMARK  Name = 446457
REMARK  0 active torsions:
REMARK  status: ('A' for Active; 'I' for Inactive)
REMARK                            x       y       z     vdW  Elec       q    Type
REMARK                         _______ _______ _______ _____ _____    ______ ____
ROOT
ATOM      1 CL   UNL     1      34.556 -15.003 -21.701  0.00  0.00    -0.085 Cl
ATOM      2  F   UNL     1      35.173 -19.108 -24.272  0.00  0.00    -0.152 F 
ATOM      3  N   UNL     1      34.826 -17.121 -23.197  0.00  0.00    -0.267 N 
ATOM      4  N   UNL     1      34.257 -17.431 -25.501  0.00  0.00    -0.306 NA
ATOM      5  N   UNL     1      33.387 -14.062 -24.636  0.00  0.00    -0.234 NA
ATOM      6  N   UNL     1      33.310 -15.445 -26.479  0.00  0.00    -0.182 NA
ATOM      7  C   UNL     1      33.891 -15.283 -24.301  0.00  0.00    +0.163 C 
ATOM      8  C   UNL     1      33.823 -16.128 -25.501  0.00  0.00    +0.105 C 
ATOM      9  C   UNL     1      34.393 -15.818 -23.190  0.00  0.00    +0.205 C 
ATOM     10  C   UNL     1      34.728 -17.849 -24.361  0.00  0.00    +0.338 C 
ATOM     11  C   UNL     1      33.069 -14.207 -25.894  0.00  0.00    +0.262 C 
ATOM     12  H   UNL     1      35.199 -17.528 -22.383  0.00  0.00    +0.153 HD
ENDROOT
TORSDOF 0
ENDMDL
MODEL 2
REMARK VINA RESULT:      -6.5      6.315      8.067
REMARK  Name = 446457
REMARK  0 active torsions:
REMARK  status: ('A' for Active; 'I' for Inactive)
REMARK                            x       y       z     vdW  Elec       q    Type
REMARK                         _______ _______ _______ _____ _____    ______ ____
ROOT
ATOM      1 CL   UNL     1      32.552 -19.805 -20.902  0.00  0.00    -0.085 Cl
ATOM      2  F   UNL     1      37.397 -20.059 -20.346  0.00  0.00    -0.152 F 
ATOM      3  N   UNL     1      35.117 -20.056 -20.503  0.00  0.00    -0.267 N 
ATOM      4  N   UNL     1      36.285 -21.563 -19.057  0.00  0.00    -0.306 NA
ATOM      5  N   UNL     1      32.782 -22.233 -18.685  0.00  0.00    -0.234 NA
ATOM      6  N   UNL     1      34.786 -23.009 -17.847  0.00  0.00    -0.182 NA
ATOM      7  C   UNL     1      33.805 -21.533 -19.251  0.00  0.00    +0.163 C 
ATOM      8  C   UNL     1      35.057 -22.058 -18.691  0.00  0.00    +0.105 C 
ATOM      9  C   UNL     1      33.887 -20.546 -20.140  0.00  0.00    +0.205 C 
ATOM     10  C   UNL     1      36.245 -20.600 -19.933  0.00  0.00    +0.338 C 
ATOM     11  C   UNL     1      33.397 -23.066 -17.889  0.00  0.00    +0.262 C 
ATOM     12  H   UNL     1      35.190 -19.327 -21.160  0.00  0.00    +0.153 HD
ENDROOT
TORSDOF 0
ENDMDL
MODEL 3
REMARK VINA RESULT:      -6.5      2.090      3.359
REMARK  Name = 446457
REMARK  0 active torsions:
REMARK  status: ('A' for Active; 'I' for Inactive)
REMARK                            x       y       z     vdW  Elec       q    Type
REMARK                         _______ _______ _______ _____ _____    ______ ____
ROOT
ATOM      1 CL   UNL     1      33.773 -13.947 -22.303  0.00  0.00    -0.085 Cl
ATOM      2  F   UNL     1      32.365 -13.763 -26.975  0.00  0.00    -0.152 F 
ATOM      3  N   UNL     1      33.080 -13.991 -24.816  0.00  0.00    -0.267 N 
ATOM      4  N   UNL     1      33.402 -15.714 -26.446  0.00  0.00    -0.306 NA
ATOM      5  N   UNL     1      34.811 -16.889 -23.365  0.00  0.00    -0.234 NA
ATOM      6  N   UNL     1      34.535 -17.632 -25.531  0.00  0.00    -0.182 NA
ATOM      7  C   UNL     1      34.169 -15.930 -24.089  0.00  0.00    +0.163 C 
ATOM      8  C   UNL     1      34.015 -16.444 -25.457  0.00  0.00    +0.105 C 
ATOM      9  C   UNL     1      33.692 -14.716 -23.823  0.00  0.00    +0.205 C 
ATOM     10  C   UNL     1      32.975 -14.542 -26.073  0.00  0.00    +0.338 C 
ATOM     11  C   UNL     1      34.998 -17.844 -24.237  0.00  0.00    +0.262 C 
ATOM     12  H   UNL     1      32.723 -13.093 -24.632  0.00  0.00    +0.153 HD
ENDROOT
TORSDOF 0
ENDMDL
MODEL 4
REMARK VINA RESULT:      -6.5     11.147     11.796
REMARK  Name = 446457
REMARK  0 active torsions:
REMARK  status: ('A' for Active; 'I' for Inactive)
REMARK                            x       y       z     vdW  Elec       q    Type
REMARK                         _______ _______ _______ _____ _____    ______ ____
ROOT
ATOM      1 CL   UNL     1      42.987 -12.351 -17.643  0.00  0.00    -0.085 Cl
ATOM      2  F   UNL     1      40.486 -13.461 -13.599  0.00  0.00    -0.152 F 
ATOM      3  N   UNL     1      41.651 -13.092 -15.530  0.00  0.00    -0.267 N 
ATOM      4  N   UNL     1      40.881 -15.272 -14.913  0.00  0.00    -0.306 NA
ATOM      5  N   UNL     1      42.592 -15.598 -18.047  0.00  0.00    -0.234 NA
ATOM      6  N   UNL     1      41.480 -16.943 -16.539  0.00  0.00    -0.182 NA
ATOM      7  C   UNL     1      42.150 -14.835 -17.007  0.00  0.00    +0.163 C 
ATOM      8  C   UNL     1      41.451 -15.730 -16.075  0.00  0.00    +0.105 C 
ATOM      9  C   UNL     1      42.221 -13.544 -16.694  0.00  0.00    +0.205 C 
ATOM     10  C   UNL     1      41.012 -13.992 -14.709  0.00  0.00    +0.338 C 
ATOM     11  C   UNL     1      42.183 -16.797 -17.731  0.00  0.00    +0.262 C 
ATOM     12  H   UNL     1      41.697 -12.139 -15.288  0.00  0.00    +0.153 HD
ENDROOT
TORSDOF 0
ENDMDL
MODEL 5
REMARK VINA RESULT:      -6.4      6.995      8.086
REMARK  Name = 446457
REMARK  0 active torsions:
REMARK  status: ('A' for Active; 'I' for Inactive)
REMARK                            x       y       z     vdW  Elec       q    Type
REMARK                         _______ _______ _______ _____ _____    ______ ____
ROOT
ATOM      1 CL   UNL     1      32.456 -19.945 -20.794  0.00  0.00    -0.085 Cl
ATOM      2  F   UNL     1      32.739 -23.564 -17.527  0.00  0.00    -0.152 F 
ATOM      3  N   UNL     1      32.762 -21.860 -19.051  0.00  0.00    -0.267 N 
ATOM      4  N   UNL     1      34.776 -22.739 -18.105  0.00  0.00    -0.306 NA
ATOM      5  N   UNL     1      35.720 -20.126 -20.371  0.00  0.00    -0.234 NA
ATOM      6  N   UNL     1      36.739 -21.626 -18.946  0.00  0.00    -0.182 NA
ATOM      7  C   UNL     1      34.766 -20.887 -19.765  0.00  0.00    +0.163 C 
ATOM      8  C   UNL     1      35.457 -21.824 -18.870  0.00  0.00    +0.105 C 
ATOM      9  C   UNL     1      33.437 -20.944 -19.820  0.00  0.00    +0.205 C 
ATOM     10  C   UNL     1      33.482 -22.706 -18.238  0.00  0.00    +0.338 C 
ATOM     11  C   UNL     1      36.833 -20.589 -19.868  0.00  0.00    +0.262 C 
ATOM     12  H   UNL     1      31.780 -21.912 -19.083  0.00  0.00    +0.153 HD
ENDROOT
TORSDOF 0
ENDMDL
MODEL 6
REMARK VINA RESULT:      -6.4      2.875      3.759
REMARK  Name = 446457
REMARK  0 active torsions:
REMARK  status: ('A' for Active; 'I' for Inactive)
REMARK                            x       y       z     vdW  Elec       q    Type
REMARK                         _______ _______ _______ _____ _____    ______ ____
ROOT
ATOM      1 CL   UNL     1      34.723 -17.166 -25.193  0.00  0.00    -0.085 Cl
ATOM      2  F   UNL     1      35.589 -20.172 -21.443  0.00  0.00    -0.152 F 
ATOM      3  N   UNL     1      35.168 -18.649 -23.095  0.00  0.00    -0.267 N 
ATOM      4  N   UNL     1      35.229 -18.027 -20.786  0.00  0.00    -0.306 NA
ATOM      5  N   UNL     1      34.515 -15.059 -22.667  0.00  0.00    -0.234 NA
ATOM      6  N   UNL     1      34.804 -15.679 -20.464  0.00  0.00    -0.182 NA
ATOM      7  C   UNL     1      34.775 -16.396 -22.608  0.00  0.00    +0.163 C 
ATOM      8  C   UNL     1      34.952 -16.745 -21.192  0.00  0.00    +0.105 C 
ATOM      9  C   UNL     1      34.892 -17.369 -23.508  0.00  0.00    +0.205 C 
ATOM     10  C   UNL     1      35.321 -18.897 -21.750  0.00  0.00    +0.338 C 
ATOM     11  C   UNL     1      34.542 -14.696 -21.413  0.00  0.00    +0.262 C 
ATOM     12  H   UNL     1      35.257 -19.378 -23.751  0.00  0.00    +0.153 HD
ENDROOT
TORSDOF 0
ENDMDL
MODEL 7
REMARK VINA RESULT:      -6.3     13.367     14.554
REMARK  Name = 446457
REMARK  0 active torsions:
REMARK  status: ('A' for Active; 'I' for Inactive)
REMARK                            x       y       z     vdW  Elec       q    Type
REMARK                         _______ _______ _______ _____ _____    ______ ____
ROOT
ATOM      1 CL   UNL     1      37.285 -22.845 -15.961  0.00  0.00    -0.085 Cl
ATOM      2  F   UNL     1      40.610 -26.241 -14.841  0.00  0.00    -0.152 F 
ATOM      3  N   UNL     1      38.975 -24.694 -15.238  0.00  0.00    -0.267 N 
ATOM      4  N   UNL     1      38.907 -26.149 -13.340  0.00  0.00    -0.306 NA
ATOM      5  N   UNL     1      35.990 -24.070 -13.189  0.00  0.00    -0.234 NA
ATOM      6  N   UNL     1      36.963 -25.770 -11.971  0.00  0.00    -0.182 NA
ATOM      7  C   UNL     1      37.145 -24.455 -13.801  0.00  0.00    +0.163 C 
ATOM      8  C   UNL     1      37.728 -25.535 -12.994  0.00  0.00    +0.105 C 
ATOM      9  C   UNL     1      37.797 -24.076 -14.898  0.00  0.00    +0.205 C 
ATOM     10  C   UNL     1      39.458 -25.698 -14.430  0.00  0.00    +0.338 C 
ATOM     11  C   UNL     1      35.931 -24.853 -12.146  0.00  0.00    +0.262 C 
ATOM     12  H   UNL     1      39.466 -24.423 -16.047  0.00  0.00    +0.153 HD
ENDROOT
TORSDOF 0
ENDMDL
MODEL 8
REMARK VINA RESULT:      -6.3      2.257      2.895
REMARK  Name = 446457
REMARK  0 active torsions:
REMARK  status: ('A' for Active; 'I' for Inactive)
REMARK                            x       y       z     vdW  Elec       q    Type
REMARK                         _______ _______ _______ _____ _____    ______ ____
ROOT
ATOM      1 CL   UNL     1      34.993 -18.473 -24.386  0.00  0.00    -0.085 Cl
ATOM      2  F   UNL     1      34.834 -14.931 -21.028  0.00  0.00    -0.152 F 
ATOM      3  N   UNL     1      34.840 -16.491 -22.699  0.00  0.00    -0.267 N 
ATOM      4  N   UNL     1      33.961 -14.289 -23.025  0.00  0.00    -0.306 NA
ATOM      5  N   UNL     1      33.580 -16.054 -26.123  0.00  0.00    -0.234 NA
ATOM      6  N   UNL     1      33.124 -13.965 -25.259  0.00  0.00    -0.182 NA
ATOM      7  C   UNL     1      33.985 -16.009 -24.822  0.00  0.00    +0.163 C 
ATOM      8  C   UNL     1      33.676 -14.665 -24.315  0.00  0.00    +0.105 C 
ATOM      9  C   UNL     1      34.559 -16.872 -23.988  0.00  0.00    +0.205 C 
ATOM     10  C   UNL     1      34.521 -15.213 -22.299  0.00  0.00    +0.338 C 
ATOM     11  C   UNL     1      33.094 -14.859 -26.324  0.00  0.00    +0.262 C 
ATOM     12  H   UNL     1      35.265 -17.120 -22.073  0.00  0.00    +0.153 HD
ENDROOT
TORSDOF 0
ENDMDL
MODEL 9
REMARK VINA RESULT:      -6.3     13.692     14.788
REMARK  Name = 446457
REMARK  0 active torsions:
REMARK  status: ('A' for Active; 'I' for Inactive)
REMARK                            x       y       z     vdW  Elec       q    Type
REMARK                         _______ _______ _______ _____ _____    ______ ____
ROOT
ATOM      1 CL   UNL     1      34.246 -23.246 -14.944  0.00  0.00    -0.085 Cl
ATOM      2  F   UNL     1      35.560 -24.146 -10.328  0.00  0.00    -0.152 F 
ATOM      3  N   UNL     1      35.042 -23.838 -12.533  0.00  0.00    -0.267 N 
ATOM      4  N   UNL     1      36.601 -25.508 -11.820  0.00  0.00    -0.306 NA
ATOM      5  N   UNL     1      36.385 -25.714 -15.393  0.00  0.00    -0.234 NA
ATOM      6  N   UNL     1      37.504 -26.759 -13.668  0.00  0.00    -0.182 NA
ATOM      7  C   UNL     1      36.014 -25.147 -14.210  0.00  0.00    +0.163 C 
ATOM      8  C   UNL     1      36.749 -25.841 -13.144  0.00  0.00    +0.105 C 
ATOM      9  C   UNL     1      35.185 -24.168 -13.858  0.00  0.00    +0.205 C 
ATOM     10  C   UNL     1      35.765 -24.536 -11.592  0.00  0.00    +0.338 C 
ATOM     11  C   UNL     1      37.239 -26.632 -15.028  0.00  0.00    +0.262 C 
ATOM     12  H   UNL     1      34.432 -23.116 -12.261  0.00  0.00    +0.153 HD
ENDROOT
TORSDOF 0
ENDMDL
