MODEL 1
REMARK VINA RESULT:      -8.0      0.000      0.000
REMARK  Name = 4762
REMARK  1 active torsions:
REMARK  status: ('A' for Active; 'I' for Inactive)
REMARK    1  A    between atoms: C_4  and  C_10
REMARK                            x       y       z     vdW  Elec       q    Type
REMARK                         _______ _______ _______ _____ _____    ______ ____
ROOT
ATOM      1  O   UNL     1      34.556 -18.726 -23.653  0.00  0.00    -0.356 OA
ATOM      2  N   UNL     1      34.680 -15.929 -23.116  0.00  0.00    +0.389 N 
ATOM      3  C   UNL     1      34.352 -16.891 -22.048  0.00  0.00    -0.030 C 
ATOM      4  C   UNL     1      34.986 -18.267 -22.361  0.00  0.00    +0.118 C 
ATOM      5  C   UNL     1      34.259 -16.453 -24.416  0.00  0.00    -0.049 C 
ATOM      6  C   UNL     1      34.909 -17.802 -24.681  0.00  0.00    +0.119 C 
ATOM      7  C   UNL     1      34.845 -16.313 -20.719  0.00  0.00    -0.021 C 
ATOM      8  H   UNL     1      35.687 -15.768 -23.127  0.00  0.00    -0.084 HD
ATOM      9  H   UNL     1      34.188 -15.053 -22.935  0.00  0.00    -0.084 HD
ENDROOT
BRANCH   4  10
ATOM     10  C   UNL     1      34.608 -19.342 -21.362  0.00  0.00    +0.003 C 
ATOM     11  C   UNL     1      33.267 -19.561 -21.048  0.00  0.00    -0.002 C 
ATOM     12  C   UNL     1      35.603 -20.110 -20.758  0.00  0.00    -0.002 C 
ATOM     13  C   UNL     1      32.921 -20.550 -20.127  0.00  0.00    -0.000 C 
ATOM     14  C   UNL     1      35.256 -21.099 -19.838  0.00  0.00    -0.000 C 
ATOM     15  C   UNL     1      33.914 -21.319 -19.523  0.00  0.00    -0.000 C 
ENDBRANCH   4  10
TORSDOF 1
ENDMDL
MODEL 2
REMARK VINA RESULT:      -7.9      1.300      2.063
REMARK  Name = 4762
REMARK  1 active torsions:
REMARK  status: ('A' for Active; 'I' for Inactive)
REMARK    1  A    between atoms: C_4  and  C_10
REMARK                            x       y       z     vdW  Elec       q    Type
REMARK                         _______ _______ _______ _____ _____    ______ ____
ROOT
ATOM      1  O   UNL     1      34.329 -17.134 -21.100  0.00  0.00    -0.356 OA
ATOM      2  N   UNL     1      34.827 -17.020 -23.904  0.00  0.00    +0.389 N 
ATOM      3  C   UNL     1      35.055 -18.263 -23.146  0.00  0.00    -0.030 C 
ATOM      4  C   UNL     1      34.128 -18.306 -21.908  0.00  0.00    +0.118 C 
ATOM      5  C   UNL     1      35.005 -15.856 -23.035  0.00  0.00    -0.049 C 
ATOM      6  C   UNL     1      34.072 -15.940 -21.837  0.00  0.00    +0.119 C 
ATOM      7  C   UNL     1      34.820 -19.445 -24.089  0.00  0.00    -0.021 C 
ATOM      8  H   UNL     1      33.877 -17.022 -24.276  0.00  0.00    -0.084 HD
ATOM      9  H   UNL     1      35.500 -16.970 -24.669  0.00  0.00    -0.084 HD
ENDROOT
BRANCH   4  10
ATOM     10  C   UNL     1      34.375 -19.506 -21.016  0.00  0.00    +0.003 C 
ATOM     11  C   UNL     1      33.297 -20.216 -20.488  0.00  0.00    -0.002 C 
ATOM     12  C   UNL     1      35.681 -19.898 -20.725  0.00  0.00    -0.002 C 
ATOM     13  C   UNL     1      33.526 -21.320 -19.666  0.00  0.00    -0.000 C 
ATOM     14  C   UNL     1      35.909 -21.002 -19.904  0.00  0.00    -0.000 C 
ATOM     15  C   UNL     1      34.831 -21.713 -19.375  0.00  0.00    -0.000 C 
ENDBRANCH   4  10
TORSDOF 1
ENDMDL
MODEL 3
REMARK VINA RESULT:      -7.5      2.072      4.772
REMARK  Name = 4762
REMARK  1 active torsions:
REMARK  status: ('A' for Active; 'I' for Inactive)
REMARK    1  A    between atoms: C_4  and  C_10
REMARK                            x       y       z     vdW  Elec       q    Type
REMARK                         _______ _______ _______ _____ _____    ______ ____
ROOT
ATOM      1  O   UNL     1      33.240 -19.858 -21.104  0.00  0.00    -0.356 OA
ATOM      2  N   UNL     1      35.415 -20.852 -19.552  0.00  0.00    +0.389 N 
ATOM      3  C   UNL     1      35.655 -20.110 -20.803  0.00  0.00    -0.030 C 
ATOM      4  C   UNL     1      34.483 -19.137 -21.076  0.00  0.00    +0.118 C 
ATOM      5  C   UNL     1      34.123 -21.538 -19.610  0.00  0.00    -0.049 C 
ATOM      6  C   UNL     1      33.004 -20.544 -19.876  0.00  0.00    +0.119 C 
ATOM      7  C   UNL     1      36.996 -19.384 -20.674  0.00  0.00    -0.021 C 
ATOM      8  H   UNL     1      35.415 -20.200 -18.768  0.00  0.00    -0.084 HD
ATOM      9  H   UNL     1      36.154 -21.545 -19.430  0.00  0.00    -0.084 HD
ENDROOT
BRANCH   4  10
ATOM     10  C   UNL     1      34.604 -18.411 -22.400  0.00  0.00    +0.003 C 
ATOM     11  C   UNL     1      34.762 -17.026 -22.423  0.00  0.00    -0.002 C 
ATOM     12  C   UNL     1      34.558 -19.130 -23.593  0.00  0.00    -0.002 C 
ATOM     13  C   UNL     1      34.872 -16.358 -23.643  0.00  0.00    -0.000 C 
ATOM     14  C   UNL     1      34.669 -18.462 -24.813  0.00  0.00    -0.000 C 
ATOM     15  C   UNL     1      34.826 -17.076 -24.837  0.00  0.00    -0.000 C 
ENDBRANCH   4  10
TORSDOF 1
ENDMDL
MODEL 4
REMARK VINA RESULT:      -7.2      2.321      4.872
REMARK  Name = 4762
REMARK  1 active torsions:
REMARK  status: ('A' for Active; 'I' for Inactive)
REMARK    1  A    between atoms: C_4  and  C_10
REMARK                            x       y       z     vdW  Elec       q    Type
REMARK                         _______ _______ _______ _____ _____    ______ ____
ROOT
ATOM      1  O   UNL     1      36.463 -19.836 -20.489  0.00  0.00    -0.356 OA
ATOM      2  N   UNL     1      34.317 -21.489 -19.600  0.00  0.00    +0.389 N 
ATOM      3  C   UNL     1      34.055 -20.173 -20.209  0.00  0.00    -0.030 C 
ATOM      4  C   UNL     1      35.203 -19.800 -21.179  0.00  0.00    +0.118 C 
ATOM      5  C   UNL     1      35.625 -21.492 -18.943  0.00  0.00    -0.049 C 
ATOM      6  C   UNL     1      36.718 -21.125 -19.933  0.00  0.00    +0.119 C 
ATOM      7  C   UNL     1      32.698 -20.236 -20.913  0.00  0.00    -0.021 C 
ATOM      8  H   UNL     1      34.303 -22.205 -20.326  0.00  0.00    -0.084 HD
ATOM      9  H   UNL     1      33.595 -21.682 -18.905  0.00  0.00    -0.084 HD
ENDROOT
BRANCH   4  10
ATOM     10  C   UNL     1      35.061 -18.412 -21.768  0.00  0.00    +0.003 C 
ATOM     11  C   UNL     1      34.917 -17.309 -20.927  0.00  0.00    -0.002 C 
ATOM     12  C   UNL     1      35.073 -18.239 -23.152  0.00  0.00    -0.002 C 
ATOM     13  C   UNL     1      34.786 -16.030 -21.471  0.00  0.00    -0.000 C 
ATOM     14  C   UNL     1      34.942 -16.961 -23.695  0.00  0.00    -0.000 C 
ATOM     15  C   UNL     1      34.799 -15.857 -22.854  0.00  0.00    -0.000 C 
ENDBRANCH   4  10
TORSDOF 1
ENDMDL
MODEL 5
REMARK VINA RESULT:      -7.0      3.070      4.320
REMARK  Name = 4762
REMARK  1 active torsions:
REMARK  status: ('A' for Active; 'I' for Inactive)
REMARK    1  A    between atoms: C_4  and  C_10
REMARK                            x       y       z     vdW  Elec       q    Type
REMARK                         _______ _______ _______ _____ _____    ______ ____
ROOT
ATOM      1  O   UNL     1      34.056 -13.899 -23.917  0.00  0.00    -0.356 OA
ATOM      2  N   UNL     1      32.329 -13.318 -21.725  0.00  0.00    +0.389 N 
ATOM      3  C   UNL     1      32.711 -14.706 -22.039  0.00  0.00    -0.030 C 
ATOM      4  C   UNL     1      34.088 -14.730 -22.744  0.00  0.00    +0.118 C 
ATOM      5  C   UNL     1      32.346 -12.500 -22.939  0.00  0.00    -0.049 C 
ATOM      6  C   UNL     1      33.718 -12.552 -23.594  0.00  0.00    +0.119 C 
ATOM      7  C   UNL     1      32.713 -15.505 -20.734  0.00  0.00    -0.021 C 
ATOM      8  H   UNL     1      32.988 -12.932 -21.048  0.00  0.00    -0.084 HD
ATOM      9  H   UNL     1      31.386 -13.314 -21.335  0.00  0.00    -0.084 HD
ENDROOT
BRANCH   4  10
ATOM     10  C   UNL     1      34.506 -16.115 -23.195  0.00  0.00    +0.003 C 
ATOM     11  C   UNL     1      34.202 -16.549 -24.485  0.00  0.00    -0.002 C 
ATOM     12  C   UNL     1      35.194 -16.953 -22.318  0.00  0.00    -0.002 C 
ATOM     13  C   UNL     1      34.586 -17.825 -24.898  0.00  0.00    -0.000 C 
ATOM     14  C   UNL     1      35.578 -18.228 -22.733  0.00  0.00    -0.000 C 
ATOM     15  C   UNL     1      35.275 -18.664 -24.023  0.00  0.00    -0.000 C 
ENDBRANCH   4  10
TORSDOF 1
ENDMDL
MODEL 6
REMARK VINA RESULT:      -6.8      9.104     11.565
REMARK  Name = 4762
REMARK  1 active torsions:
REMARK  status: ('A' for Active; 'I' for Inactive)
REMARK    1  A    between atoms: C_4  and  C_10
REMARK                            x       y       z     vdW  Elec       q    Type
REMARK                         _______ _______ _______ _____ _____    ______ ____
ROOT
ATOM      1  O   UNL     1      31.976  -9.857 -22.154  0.00  0.00    -0.356 OA
ATOM      2  N   UNL     1      31.859  -9.077 -19.415  0.00  0.00    +0.389 N 
ATOM      3  C   UNL     1      32.562  -8.245 -20.409  0.00  0.00    -0.030 C 
ATOM      4  C   UNL     1      31.946  -8.462 -21.812  0.00  0.00    +0.118 C 
ATOM      5  C   UNL     1      31.881 -10.482 -19.822  0.00  0.00    -0.049 C 
ATOM      6  C   UNL     1      31.264 -10.645 -21.203  0.00  0.00    +0.119 C 
ATOM      7  C   UNL     1      32.476  -6.787 -19.955  0.00  0.00    -0.021 C 
ATOM      8  H   UNL     1      30.891  -8.763 -19.338  0.00  0.00    -0.084 HD
ATOM      9  H   UNL     1      32.328  -8.984 -18.514  0.00  0.00    -0.084 HD
ENDROOT
BRANCH   4  10
ATOM     10  C   UNL     1      32.683  -7.721 -22.909  0.00  0.00    +0.003 C 
ATOM     11  C   UNL     1      32.001  -6.805 -23.710  0.00  0.00    -0.002 C 
ATOM     12  C   UNL     1      34.041  -7.957 -23.116  0.00  0.00    -0.002 C 
ATOM     13  C   UNL     1      32.681  -6.124 -24.721  0.00  0.00    -0.000 C 
ATOM     14  C   UNL     1      34.720  -7.275 -24.127  0.00  0.00    -0.000 C 
ATOM     15  C   UNL     1      34.039  -6.359 -24.929  0.00  0.00    -0.000 C 
ENDBRANCH   4  10
TORSDOF 1
ENDMDL
MODEL 7
REMARK VINA RESULT:      -6.6      2.516      5.332
REMARK  Name = 4762
REMARK  1 active torsions:
REMARK  status: ('A' for Active; 'I' for Inactive)
REMARK    1  A    between atoms: C_4  and  C_10
REMARK                            x       y       z     vdW  Elec       q    Type
REMARK                         _______ _______ _______ _____ _____    ______ ____
ROOT
ATOM      1  O   UNL     1      34.875 -17.029 -21.313  0.00  0.00    -0.356 OA
ATOM      2  N   UNL     1      35.392 -18.649 -23.601  0.00  0.00    +0.389 N 
ATOM      3  C   UNL     1      34.557 -17.438 -23.705  0.00  0.00    -0.030 C 
ATOM      4  C   UNL     1      34.962 -16.420 -22.612  0.00  0.00    +0.118 C 
ATOM      5  C   UNL     1      35.302 -19.213 -22.254  0.00  0.00    -0.049 C 
ATOM      6  C   UNL     1      35.713 -18.179 -21.217  0.00  0.00    +0.119 C 
ATOM      7  C   UNL     1      34.716 -16.870 -25.117  0.00  0.00    -0.021 C 
ATOM      8  H   UNL     1      36.363 -18.406 -23.802  0.00  0.00    -0.084 HD
ATOM      9  H   UNL     1      35.059 -19.340 -24.274  0.00  0.00    -0.084 HD
ENDROOT
BRANCH   4  10
ATOM     10  C   UNL     1      34.079 -15.189 -22.585  0.00  0.00    +0.003 C 
ATOM     11  C   UNL     1      34.270 -14.173 -23.520  0.00  0.00    -0.002 C 
ATOM     12  C   UNL     1      33.076 -15.075 -21.622  0.00  0.00    -0.002 C 
ATOM     13  C   UNL     1      33.457 -13.040 -23.493  0.00  0.00    -0.000 C 
ATOM     14  C   UNL     1      32.263 -13.942 -21.596  0.00  0.00    -0.000 C 
ATOM     15  C   UNL     1      32.453 -12.925 -22.532  0.00  0.00    -0.000 C 
ENDBRANCH   4  10
TORSDOF 1
ENDMDL
MODEL 8
REMARK VINA RESULT:      -6.6      9.641     11.651
REMARK  Name = 4762
REMARK  1 active torsions:
REMARK  status: ('A' for Active; 'I' for Inactive)
REMARK    1  A    between atoms: C_4  and  C_10
REMARK                            x       y       z     vdW  Elec       q    Type
REMARK                         _______ _______ _______ _____ _____    ______ ____
ROOT
ATOM      1  O   UNL     1      31.879  -6.229 -23.769  0.00  0.00    -0.356 OA
ATOM      2  N   UNL     1      31.344  -5.703 -21.019  0.00  0.00    +0.389 N 
ATOM      3  C   UNL     1      31.939  -6.984 -21.441  0.00  0.00    -0.030 C 
ATOM      4  C   UNL     1      32.732  -6.791 -22.757  0.00  0.00    +0.118 C 
ATOM      5  C   UNL     1      30.516  -5.151 -22.091  0.00  0.00    -0.049 C 
ATOM      6  C   UNL     1      31.337  -4.976 -23.359  0.00  0.00    +0.119 C 
ATOM      7  C   UNL     1      32.822  -7.497 -20.302  0.00  0.00    -0.021 C 
ATOM      8  H   UNL     1      32.088  -5.044 -20.793  0.00  0.00    -0.084 HD
ATOM      9  H   UNL     1      30.760  -5.865 -20.197  0.00  0.00    -0.084 HD
ENDROOT
BRANCH   4  10
ATOM     10  C   UNL     1      33.289  -8.084 -23.315  0.00  0.00    +0.003 C 
ATOM     11  C   UNL     1      34.589  -8.123 -23.818  0.00  0.00    -0.002 C 
ATOM     12  C   UNL     1      32.500  -9.234 -23.325  0.00  0.00    -0.002 C 
ATOM     13  C   UNL     1      35.101  -9.315 -24.333  0.00  0.00    -0.000 C 
ATOM     14  C   UNL     1      33.012 -10.425 -23.839  0.00  0.00    -0.000 C 
ATOM     15  C   UNL     1      34.313 -10.465 -24.343  0.00  0.00    -0.000 C 
ENDBRANCH   4  10
TORSDOF 1
ENDMDL
MODEL 9
REMARK VINA RESULT:      -6.5      7.275      8.995
REMARK  Name = 4762
REMARK  1 active torsions:
REMARK  status: ('A' for Active; 'I' for Inactive)
REMARK    1  A    between atoms: C_4  and  C_10
REMARK                            x       y       z     vdW  Elec       q    Type
REMARK                         _______ _______ _______ _____ _____    ______ ____
ROOT
ATOM      1  O   UNL     1      30.019 -22.476 -16.945  0.00  0.00    -0.356 OA
ATOM      2  N   UNL     1      28.558 -24.553 -15.650  0.00  0.00    +0.389 N 
ATOM      3  C   UNL     1      30.029 -24.603 -15.734  0.00  0.00    -0.030 C 
ATOM      4  C   UNL     1      30.603 -23.168 -15.829  0.00  0.00    +0.118 C 
ATOM      5  C   UNL     1      28.010 -23.808 -16.784  0.00  0.00    -0.049 C 
ATOM      6  C   UNL     1      28.599 -22.407 -16.833  0.00  0.00    +0.119 C 
ATOM      7  C   UNL     1      30.551 -25.357 -14.509  0.00  0.00    -0.021 C 
ATOM      8  H   UNL     1      28.286 -24.094 -14.781  0.00  0.00    -0.084 HD
ATOM      9  H   UNL     1      28.193 -25.506 -15.670  0.00  0.00    -0.084 HD
ENDROOT
BRANCH   4  10
ATOM     10  C   UNL     1      32.105 -23.136 -16.024  0.00  0.00    +0.003 C 
ATOM     11  C   UNL     1      32.953 -23.186 -14.918  0.00  0.00    -0.002 C 
ATOM     12  C   UNL     1      32.637 -23.057 -17.311  0.00  0.00    -0.002 C 
ATOM     13  C   UNL     1      34.336 -23.156 -15.100  0.00  0.00    -0.000 C 
ATOM     14  C   UNL     1      34.020 -23.027 -17.492  0.00  0.00    -0.000 C 
ATOM     15  C   UNL     1      34.869 -23.077 -16.386  0.00  0.00    -0.000 C 
ENDBRANCH   4  10
TORSDOF 1
ENDMDL
