MODEL 1
REMARK VINA RESULT:      -6.7      0.000      0.000
REMARK  Name = 445913
REMARK  5 active torsions:
REMARK  status: ('A' for Active; 'I' for Inactive)
REMARK    1  A    between atoms: C_3  and  O_8
REMARK    2  A    between atoms: C_4  and  O_10
REMARK    3  A    between atoms: C_5  and  C_14
REMARK    4  A    between atoms: C_7  and  O_12
REMARK    5  A    between atoms: C_14  and  O_15
REMARK                            x       y       z     vdW  Elec       q    Type
REMARK                         _______ _______ _______ _____ _____    ______ ____
ROOT
ATOM      1  F   UNL     1      36.956 -23.307 -13.973  0.00  0.00    -0.229 F 
ATOM      2  O   UNL     1      39.365 -24.405 -13.097  0.00  0.00    -0.326 OA
ATOM      3  C   UNL     1      38.062 -25.927 -14.494  0.00  0.00    +0.170 C 
ATOM      4  C   UNL     1      36.819 -25.622 -13.655  0.00  0.00    +0.177 C 
ATOM      5  C   UNL     1      39.335 -25.719 -13.662  0.00  0.00    +0.176 C 
ATOM      6  C   UNL     1      36.946 -24.259 -12.992  0.00  0.00    +0.246 C 
ATOM      7  C   UNL     1      38.259 -24.150 -12.229  0.00  0.00    +0.268 C 
ENDROOT
BRANCH   3   8
ATOM      8  O   UNL     1      38.010 -27.279 -14.943  0.00  0.00    -0.379 OA
ATOM      9  H   UNL     1      37.879 -27.866 -14.183  0.00  0.00    +0.211 HD
ENDBRANCH   3   8
BRANCH   4  10
ATOM     10  O   UNL     1      35.669 -25.643 -14.493  0.00  0.00    -0.379 OA
ATOM     11  H   UNL     1      35.729 -26.391 -15.108  0.00  0.00    +0.211 HD
ENDBRANCH   4  10
BRANCH   7  12
ATOM     12  O   UNL     1      38.372 -22.859 -11.636  0.00  0.00    -0.358 OA
ATOM     13  H   UNL     1      37.492 -22.546 -11.373  0.00  0.00    +0.213 HD
ENDBRANCH   7  12
BRANCH   5  14
ATOM     14  C   UNL     1      40.593 -25.884 -14.508  0.00  0.00    +0.169 C 
BRANCH  14  15
ATOM     15  O   UNL     1      40.234 -25.778 -15.873  0.00  0.00    -0.379 OA
ATOM     16  H   UNL     1      39.670 -24.998 -15.998  0.00  0.00    +0.211 HD
ENDBRANCH  14  15
ENDBRANCH   5  14
TORSDOF 5
ENDMDL
MODEL 2
REMARK VINA RESULT:      -6.3      2.025      3.314
REMARK  Name = 445913
REMARK  5 active torsions:
REMARK  status: ('A' for Active; 'I' for Inactive)
REMARK    1  A    between atoms: C_3  and  O_8
REMARK    2  A    between atoms: C_4  and  O_10
REMARK    3  A    between atoms: C_5  and  C_14
REMARK    4  A    between atoms: C_7  and  O_12
REMARK    5  A    between atoms: C_14  and  O_15
REMARK                            x       y       z     vdW  Elec       q    Type
REMARK                         _______ _______ _______ _____ _____    ______ ____
ROOT
ATOM      1  F   UNL     1      38.893 -24.692 -12.272  0.00  0.00    -0.229 F 
ATOM      2  O   UNL     1      38.537 -24.017 -14.954  0.00  0.00    -0.326 OA
ATOM      3  C   UNL     1      36.502 -24.851 -13.891  0.00  0.00    +0.170 C 
ATOM      4  C   UNL     1      37.290 -26.034 -13.327  0.00  0.00    +0.177 C 
ATOM      5  C   UNL     1      37.160 -24.333 -15.178  0.00  0.00    +0.176 C 
ATOM      6  C   UNL     1      38.766 -25.683 -13.206  0.00  0.00    +0.246 C 
ATOM      7  C   UNL     1      39.302 -25.145 -14.526  0.00  0.00    +0.268 C 
ENDROOT
BRANCH   3   8
ATOM      8  O   UNL     1      35.169 -25.263 -14.178  0.00  0.00    -0.379 OA
ATOM      9  H   UNL     1      35.073 -25.402 -15.133  0.00  0.00    +0.211 HD
ENDBRANCH   3   8
BRANCH   4  10
ATOM     10  O   UNL     1      36.772 -26.377 -12.046  0.00  0.00    -0.379 OA
ATOM     11  H   UNL     1      36.798 -27.341 -11.934  0.00  0.00    +0.211 HD
ENDBRANCH   4  10
BRANCH   7  12
ATOM     12  O   UNL     1      40.677 -24.798 -14.387  0.00  0.00    -0.358 OA
ATOM     13  H   UNL     1      41.163 -25.547 -14.009  0.00  0.00    +0.213 HD
ENDBRANCH   7  12
BRANCH   5  14
ATOM     14  C   UNL     1      36.476 -23.070 -15.690  0.00  0.00    +0.169 C 
BRANCH  14  15
ATOM     15  O   UNL     1      35.373 -23.448 -16.492  0.00  0.00    -0.379 OA
ATOM     16  H   UNL     1      35.625 -23.402 -17.428  0.00  0.00    +0.211 HD
ENDBRANCH  14  15
ENDBRANCH   5  14
TORSDOF 5
ENDMDL
MODEL 3
REMARK VINA RESULT:      -6.2      1.686      4.338
REMARK  Name = 445913
REMARK  5 active torsions:
REMARK  status: ('A' for Active; 'I' for Inactive)
REMARK    1  A    between atoms: C_3  and  O_8
REMARK    2  A    between atoms: C_4  and  O_10
REMARK    3  A    between atoms: C_5  and  C_14
REMARK    4  A    between atoms: C_7  and  O_12
REMARK    5  A    between atoms: C_14  and  O_15
REMARK                            x       y       z     vdW  Elec       q    Type
REMARK                         _______ _______ _______ _____ _____    ______ ____
ROOT
ATOM      1  F   UNL     1      38.386 -24.723 -15.504  0.00  0.00    -0.229 F 
ATOM      2  O   UNL     1      36.258 -25.787 -14.051  0.00  0.00    -0.326 OA
ATOM      3  C   UNL     1      37.915 -24.662 -12.652  0.00  0.00    +0.170 C 
ATOM      4  C   UNL     1      39.028 -25.430 -13.366  0.00  0.00    +0.177 C 
ATOM      5  C   UNL     1      36.601 -25.455 -12.702  0.00  0.00    +0.176 C 
ATOM      6  C   UNL     1      38.578 -25.852 -14.757  0.00  0.00    +0.246 C 
ATOM      7  C   UNL     1      37.249 -26.593 -14.691  0.00  0.00    +0.268 C 
ENDROOT
BRANCH   3   8
ATOM      8  O   UNL     1      38.283 -24.450 -11.292  0.00  0.00    -0.379 OA
ATOM      9  H   UNL     1      37.534 -24.064 -10.811  0.00  0.00    +0.211 HD
ENDBRANCH   3   8
BRANCH   4  10
ATOM     10  O   UNL     1      40.181 -24.601 -13.467  0.00  0.00    -0.379 OA
ATOM     11  H   UNL     1      40.168 -24.128 -14.314  0.00  0.00    +0.211 HD
ENDBRANCH   4  10
BRANCH   7  12
ATOM     12  O   UNL     1      36.830 -26.958 -16.003  0.00  0.00    -0.358 OA
ATOM     13  H   UNL     1      37.081 -26.260 -16.629  0.00  0.00    +0.213 HD
ENDBRANCH   7  12
BRANCH   5  14
ATOM     14  C   UNL     1      35.440 -24.656 -12.117  0.00  0.00    +0.169 C 
BRANCH  14  15
ATOM     15  O   UNL     1      35.297 -25.004 -10.752  0.00  0.00    -0.379 OA
ATOM     16  H   UNL     1      36.036 -25.572 -10.485  0.00  0.00    +0.211 HD
ENDBRANCH  14  15
ENDBRANCH   5  14
TORSDOF 5
ENDMDL
MODEL 4
REMARK VINA RESULT:      -6.1      2.108      3.539
REMARK  Name = 445913
REMARK  5 active torsions:
REMARK  status: ('A' for Active; 'I' for Inactive)
REMARK    1  A    between atoms: C_3  and  O_8
REMARK    2  A    between atoms: C_4  and  O_10
REMARK    3  A    between atoms: C_5  and  C_14
REMARK    4  A    between atoms: C_7  and  O_12
REMARK    5  A    between atoms: C_14  and  O_15
REMARK                            x       y       z     vdW  Elec       q    Type
REMARK                         _______ _______ _______ _____ _____    ______ ____
ROOT
ATOM      1  F   UNL     1      38.873 -25.440 -14.850  0.00  0.00    -0.229 F 
ATOM      2  O   UNL     1      37.592 -23.144 -13.924  0.00  0.00    -0.326 OA
ATOM      3  C   UNL     1      36.992 -25.154 -12.673  0.00  0.00    +0.170 C 
ATOM      4  C   UNL     1      36.743 -25.891 -13.990  0.00  0.00    +0.177 C 
ATOM      5  C   UNL     1      36.783 -23.644 -12.855  0.00  0.00    +0.176 C 
ATOM      6  C   UNL     1      37.545 -25.256 -15.116  0.00  0.00    +0.246 C 
ATOM      7  C   UNL     1      37.291 -23.755 -15.180  0.00  0.00    +0.268 C 
ENDROOT
BRANCH   3   8
ATOM      8  O   UNL     1      36.090 -25.636 -11.682  0.00  0.00    -0.379 OA
ATOM      9  H   UNL     1      36.431 -26.464 -11.310  0.00  0.00    +0.211 HD
ENDBRANCH   3   8
BRANCH   4  10
ATOM     10  O   UNL     1      37.118 -27.256 -13.844  0.00  0.00    -0.379 OA
ATOM     11  H   UNL     1      38.073 -27.314 -13.678  0.00  0.00    +0.211 HD
ENDBRANCH   4  10
BRANCH   7  12
ATOM     12  O   UNL     1      38.068 -23.174 -16.222  0.00  0.00    -0.358 OA
ATOM     13  H   UNL     1      38.191 -22.228 -16.046  0.00  0.00    +0.213 HD
ENDBRANCH   7  12
BRANCH   5  14
ATOM     14  C   UNL     1      37.156 -22.869 -11.596  0.00  0.00    +0.169 C 
BRANCH  14  15
ATOM     15  O   UNL     1      38.565 -22.741 -11.546  0.00  0.00    -0.379 OA
ATOM     16  H   UNL     1      38.909 -23.256 -10.800  0.00  0.00    +0.211 HD
ENDBRANCH  14  15
ENDBRANCH   5  14
TORSDOF 5
ENDMDL
MODEL 5
REMARK VINA RESULT:      -6.0      2.306      4.137
REMARK  Name = 445913
REMARK  5 active torsions:
REMARK  status: ('A' for Active; 'I' for Inactive)
REMARK    1  A    between atoms: C_3  and  O_8
REMARK    2  A    between atoms: C_4  and  O_10
REMARK    3  A    between atoms: C_5  and  C_14
REMARK    4  A    between atoms: C_7  and  O_12
REMARK    5  A    between atoms: C_14  and  O_15
REMARK                            x       y       z     vdW  Elec       q    Type
REMARK                         _______ _______ _______ _____ _____    ______ ____
ROOT
ATOM      1  F   UNL     1      37.762 -24.487 -15.307  0.00  0.00    -0.229 F 
ATOM      2  O   UNL     1      35.522 -24.037 -13.709  0.00  0.00    -0.326 OA
ATOM      3  C   UNL     1      37.062 -25.684 -12.769  0.00  0.00    +0.170 C 
ATOM      4  C   UNL     1      37.111 -26.399 -14.121  0.00  0.00    +0.177 C 
ATOM      5  C   UNL     1      35.735 -24.929 -12.610  0.00  0.00    +0.176 C 
ATOM      6  C   UNL     1      36.776 -25.432 -15.247  0.00  0.00    +0.246 C 
ATOM      7  C   UNL     1      35.463 -24.712 -14.967  0.00  0.00    +0.268 C 
ENDROOT
BRANCH   3   8
ATOM      8  O   UNL     1      37.184 -26.643 -11.722  0.00  0.00    -0.379 OA
ATOM      9  H   UNL     1      38.110 -26.918 -11.643  0.00  0.00    +0.211 HD
ENDBRANCH   3   8
BRANCH   4  10
ATOM     10  O   UNL     1      38.414 -26.936 -14.322  0.00  0.00    -0.379 OA
ATOM     11  H   UNL     1      38.828 -26.504 -15.086  0.00  0.00    +0.211 HD
ENDBRANCH   4  10
BRANCH   7  12
ATOM     12  O   UNL     1      35.178 -23.794 -16.018  0.00  0.00    -0.358 OA
ATOM     13  H   UNL     1      34.536 -24.189 -16.628  0.00  0.00    +0.213 HD
ENDBRANCH   7  12
BRANCH   5  14
ATOM     14  C   UNL     1      35.711 -24.097 -11.333  0.00  0.00    +0.169 C 
BRANCH  14  15
ATOM     15  O   UNL     1      35.318 -24.931 -10.259  0.00  0.00    -0.379 OA
ATOM     16  H   UNL     1      34.544 -25.453 -10.523  0.00  0.00    +0.211 HD
ENDBRANCH  14  15
ENDBRANCH   5  14
TORSDOF 5
ENDMDL
MODEL 6
REMARK VINA RESULT:      -6.0      2.192      3.373
REMARK  Name = 445913
REMARK  5 active torsions:
REMARK  status: ('A' for Active; 'I' for Inactive)
REMARK    1  A    between atoms: C_3  and  O_8
REMARK    2  A    between atoms: C_4  and  O_10
REMARK    3  A    between atoms: C_5  and  C_14
REMARK    4  A    between atoms: C_7  and  O_12
REMARK    5  A    between atoms: C_14  and  O_15
REMARK                            x       y       z     vdW  Elec       q    Type
REMARK                         _______ _______ _______ _____ _____    ______ ____
ROOT
ATOM      1  F   UNL     1      36.983 -26.855 -13.443  0.00  0.00    -0.229 F 
ATOM      2  O   UNL     1      36.268 -24.171 -13.207  0.00  0.00    -0.326 OA
ATOM      3  C   UNL     1      38.022 -24.560 -14.862  0.00  0.00    +0.170 C 
ATOM      4  C   UNL     1      38.783 -25.412 -13.844  0.00  0.00    +0.177 C 
ATOM      5  C   UNL     1      37.139 -23.530 -14.145  0.00  0.00    +0.176 C 
ATOM      6  C   UNL     1      37.827 -25.986 -12.809  0.00  0.00    +0.246 C 
ATOM      7  C   UNL     1      36.976 -24.884 -12.191  0.00  0.00    +0.268 C 
ENDROOT
BRANCH   3   8
ATOM      8  O   UNL     1      38.952 -23.879 -15.699  0.00  0.00    -0.379 OA
ATOM      9  H   UNL     1      39.542 -23.338 -15.152  0.00  0.00    +0.211 HD
ENDBRANCH   3   8
BRANCH   4  10
ATOM     10  O   UNL     1      39.448 -26.473 -14.522  0.00  0.00    -0.379 OA
ATOM     11  H   UNL     1      40.145 -26.108 -15.090  0.00  0.00    +0.211 HD
ENDBRANCH   4  10
BRANCH   7  12
ATOM     12  O   UNL     1      36.070 -25.442 -11.244  0.00  0.00    -0.358 OA
ATOM     13  H   UNL     1      36.570 -25.884 -10.540  0.00  0.00    +0.213 HD
ENDBRANCH   7  12
BRANCH   5  14
ATOM     14  C   UNL     1      36.266 -22.757 -15.127  0.00  0.00    +0.169 C 
BRANCH  14  15
ATOM     15  O   UNL     1      35.949 -23.607 -16.214  0.00  0.00    -0.379 OA
ATOM     16  H   UNL     1      36.767 -23.880 -16.659  0.00  0.00    +0.211 HD
ENDBRANCH  14  15
ENDBRANCH   5  14
TORSDOF 5
ENDMDL
MODEL 7
REMARK VINA RESULT:      -5.9      7.355      8.927
REMARK  Name = 445913
REMARK  5 active torsions:
REMARK  status: ('A' for Active; 'I' for Inactive)
REMARK    1  A    between atoms: C_3  and  O_8
REMARK    2  A    between atoms: C_4  and  O_10
REMARK    3  A    between atoms: C_5  and  C_14
REMARK    4  A    between atoms: C_7  and  O_12
REMARK    5  A    between atoms: C_14  and  O_15
REMARK                            x       y       z     vdW  Elec       q    Type
REMARK                         _______ _______ _______ _____ _____    ______ ____
ROOT
ATOM      1  F   UNL     1      28.233 -24.616 -16.807  0.00  0.00    -0.229 F 
ATOM      2  O   UNL     1      30.192 -22.640 -16.982  0.00  0.00    -0.326 OA
ATOM      3  C   UNL     1      30.779 -24.447 -15.447  0.00  0.00    +0.170 C 
ATOM      4  C   UNL     1      29.399 -24.333 -14.796  0.00  0.00    +0.177 C 
ATOM      5  C   UNL     1      31.191 -23.105 -16.069  0.00  0.00    +0.176 C 
ATOM      6  C   UNL     1      28.397 -23.736 -15.773  0.00  0.00    +0.246 C 
ATOM      7  C   UNL     1      28.924 -22.431 -16.357  0.00  0.00    +0.268 C 
ENDROOT
BRANCH   3   8
ATOM      8  O   UNL     1      31.738 -24.821 -14.461  0.00  0.00    -0.379 OA
ATOM      9  H   UNL     1      31.300 -25.334 -13.764  0.00  0.00    +0.211 HD
ENDBRANCH   3   8
BRANCH   4  10
ATOM     10  O   UNL     1      28.961 -25.625 -14.390  0.00  0.00    -0.379 OA
ATOM     11  H   UNL     1      28.844 -25.640 -13.427  0.00  0.00    +0.211 HD
ENDBRANCH   4  10
BRANCH   7  12
ATOM     12  O   UNL     1      27.986 -21.900 -17.288  0.00  0.00    -0.358 OA
ATOM     13  H   UNL     1      27.140 -21.743 -16.840  0.00  0.00    +0.213 HD
ENDBRANCH   7  12
BRANCH   5  14
ATOM     14  C   UNL     1      32.500 -23.223 -16.842  0.00  0.00    +0.169 C 
BRANCH  14  15
ATOM     15  O   UNL     1      32.363 -22.529 -18.069  0.00  0.00    -0.379 OA
ATOM     16  H   UNL     1      33.214 -22.132 -18.311  0.00  0.00    +0.211 HD
ENDBRANCH  14  15
ENDBRANCH   5  14
TORSDOF 5
ENDMDL
MODEL 8
REMARK VINA RESULT:      -5.9      1.802      3.532
REMARK  Name = 445913
REMARK  5 active torsions:
REMARK  status: ('A' for Active; 'I' for Inactive)
REMARK    1  A    between atoms: C_3  and  O_8
REMARK    2  A    between atoms: C_4  and  O_10
REMARK    3  A    between atoms: C_5  and  C_14
REMARK    4  A    between atoms: C_7  and  O_12
REMARK    5  A    between atoms: C_14  and  O_15
REMARK                            x       y       z     vdW  Elec       q    Type
REMARK                         _______ _______ _______ _____ _____    ______ ____
ROOT
ATOM      1  F   UNL     1      38.227 -25.930 -12.144  0.00  0.00    -0.229 F 
ATOM      2  O   UNL     1      36.499 -23.837 -12.781  0.00  0.00    -0.326 OA
ATOM      3  C   UNL     1      36.484 -25.637 -14.433  0.00  0.00    +0.170 C 
ATOM      4  C   UNL     1      38.013 -25.619 -14.455  0.00  0.00    +0.177 C 
ATOM      5  C   UNL     1      35.938 -24.260 -14.028  0.00  0.00    +0.176 C 
ATOM      6  C   UNL     1      38.559 -25.064 -13.148  0.00  0.00    +0.246 C 
ATOM      7  C   UNL     1      37.922 -23.718 -12.826  0.00  0.00    +0.268 C 
ENDROOT
BRANCH   3   8
ATOM      8  O   UNL     1      35.995 -25.972 -15.728  0.00  0.00    -0.379 OA
ATOM      9  H   UNL     1      35.623 -25.181 -16.148  0.00  0.00    +0.211 HD
ENDBRANCH   3   8
BRANCH   4  10
ATOM     10  O   UNL     1      38.496 -26.944 -14.652  0.00  0.00    -0.379 OA
ATOM     11  H   UNL     1      37.764 -27.518 -14.927  0.00  0.00    +0.211 HD
ENDBRANCH   4  10
BRANCH   7  12
ATOM     12  O   UNL     1      38.426 -23.225 -11.588  0.00  0.00    -0.358 OA
ATOM     13  H   UNL     1      39.328 -23.554 -11.452  0.00  0.00    +0.213 HD
ENDBRANCH   7  12
BRANCH   5  14
ATOM     14  C   UNL     1      34.422 -24.282 -13.865  0.00  0.00    +0.169 C 
BRANCH  14  15
ATOM     15  O   UNL     1      34.116 -24.714 -12.552  0.00  0.00    -0.379 OA
ATOM     16  H   UNL     1      33.541 -25.494 -12.595  0.00  0.00    +0.211 HD
ENDBRANCH  14  15
ENDBRANCH   5  14
TORSDOF 5
ENDMDL
MODEL 9
REMARK VINA RESULT:      -5.9      2.112      2.471
REMARK  Name = 445913
REMARK  5 active torsions:
REMARK  status: ('A' for Active; 'I' for Inactive)
REMARK    1  A    between atoms: C_3  and  O_8
REMARK    2  A    between atoms: C_4  and  O_10
REMARK    3  A    between atoms: C_5  and  C_14
REMARK    4  A    between atoms: C_7  and  O_12
REMARK    5  A    between atoms: C_14  and  O_15
REMARK                            x       y       z     vdW  Elec       q    Type
REMARK                         _______ _______ _______ _____ _____    ______ ____
ROOT
ATOM      1  F   UNL     1      36.046 -22.773 -11.963  0.00  0.00    -0.229 F 
ATOM      2  O   UNL     1      37.155 -25.331 -11.981  0.00  0.00    -0.326 OA
ATOM      3  C   UNL     1      37.064 -24.303 -14.195  0.00  0.00    +0.170 C 
ATOM      4  C   UNL     1      35.602 -23.925 -13.952  0.00  0.00    +0.177 C 
ATOM      5  C   UNL     1      37.443 -25.539 -13.368  0.00  0.00    +0.176 C 
ATOM      6  C   UNL     1      35.320 -23.819 -12.461  0.00  0.00    +0.246 C 
ATOM      7  C   UNL     1      35.770 -25.081 -11.735  0.00  0.00    +0.268 C 
ENDROOT
BRANCH   3   8
ATOM      8  O   UNL     1      37.256 -24.587 -15.578  0.00  0.00    -0.379 OA
ATOM      9  H   UNL     1      37.703 -25.443 -15.672  0.00  0.00    +0.211 HD
ENDBRANCH   3   8
BRANCH   4  10
ATOM     10  O   UNL     1      35.326 -22.679 -14.582  0.00  0.00    -0.379 OA
ATOM     11  H   UNL     1      36.144 -22.161 -14.646  0.00  0.00    +0.211 HD
ENDBRANCH   4  10
BRANCH   7  12
ATOM     12  O   UNL     1      35.521 -24.953 -10.339  0.00  0.00    -0.358 OA
ATOM     13  H   UNL     1      34.570 -25.039 -10.170  0.00  0.00    +0.213 HD
ENDBRANCH   7  12
BRANCH   5  14
ATOM     14  C   UNL     1      38.930 -25.859 -13.484  0.00  0.00    +0.169 C 
BRANCH  14  15
ATOM     15  O   UNL     1      39.123 -26.698 -14.607  0.00  0.00    -0.379 OA
ATOM     16  H   UNL     1      39.275 -27.608 -14.307  0.00  0.00    +0.211 HD
ENDBRANCH  14  15
ENDBRANCH   5  14
TORSDOF 5
ENDMDL
