MODEL 1
REMARK VINA RESULT:     -10.1      0.000      0.000
REMARK  Name = 11492186
REMARK  1 active torsions:
REMARK  status: ('A' for Active; 'I' for Inactive)
REMARK    1  A    between atoms: C_5  and  C_14
REMARK                            x       y       z     vdW  Elec       q    Type
REMARK                         _______ _______ _______ _____ _____    ______ ____
ROOT
ATOM      1  N   UNL     1      34.827 -15.775 -24.004  0.00  0.00    -0.275 N 
ATOM      2  N   UNL     1      34.701 -14.720 -23.181  0.00  0.00    -0.158 NA
ATOM      3  N   UNL     1      34.441 -14.613 -20.804  0.00  0.00    -0.341 N 
ATOM      4  C   UNL     1      34.644 -16.694 -22.022  0.00  0.00    +0.050 A 
ATOM      5  C   UNL     1      34.677 -19.061 -21.561  0.00  0.00    +0.000 C 
ATOM      6  C   UNL     1      34.801 -16.988 -23.372  0.00  0.00    +0.077 A 
ATOM      7  C   UNL     1      34.581 -17.745 -21.092  0.00  0.00    +0.004 C 
ATOM      8  C   UNL     1      34.834 -19.327 -22.922  0.00  0.00    +0.002 C 
ATOM      9  C   UNL     1      34.899 -18.292 -23.861  0.00  0.00    +0.019 C 
ATOM     10  C   UNL     1      34.590 -15.284 -21.976  0.00  0.00    +0.146 A 
ATOM     11  H   UNL     1      34.929 -15.682 -24.979  0.00  0.00    +0.189 HD
ATOM     12  H   UNL     1      34.406 -13.629 -20.801  0.00  0.00    +0.144 HD
ATOM     13  H   UNL     1      34.367 -15.110 -19.957  0.00  0.00    +0.144 HD
ENDROOT
BRANCH   5  14
ATOM     14  C   UNL     1      34.614 -20.158 -20.619  0.00  0.00    +0.000 C 
ATOM     15  C   UNL     1      35.790 -20.743 -20.151  0.00  0.00    +0.000 C 
ATOM     16  C   UNL     1      33.377 -20.629 -20.180  0.00  0.00    +0.000 C 
ATOM     17  C   UNL     1      35.728 -21.800 -19.243  0.00  0.00    +0.000 C 
ATOM     18  C   UNL     1      33.315 -21.686 -19.273  0.00  0.00    +0.000 C 
ATOM     19  C   UNL     1      34.491 -22.271 -18.803  0.00  0.00    +0.000 C 
ENDBRANCH   5  14
TORSDOF 1
ENDMDL
MODEL 2
REMARK VINA RESULT:     -10.0      0.232      1.230
REMARK  Name = 11492186
REMARK  1 active torsions:
REMARK  status: ('A' for Active; 'I' for Inactive)
REMARK    1  A    between atoms: C_5  and  C_14
REMARK                            x       y       z     vdW  Elec       q    Type
REMARK                         _______ _______ _______ _____ _____    ______ ____
ROOT
ATOM      1  N   UNL     1      34.745 -15.891 -24.295  0.00  0.00    -0.275 N 
ATOM      2  N   UNL     1      34.569 -14.806 -23.522  0.00  0.00    -0.158 NA
ATOM      3  N   UNL     1      34.262 -14.601 -21.157  0.00  0.00    -0.341 N 
ATOM      4  C   UNL     1      34.556 -16.726 -22.277  0.00  0.00    +0.050 A 
ATOM      5  C   UNL     1      34.659 -19.068 -21.708  0.00  0.00    +0.000 C 
ATOM      6  C   UNL     1      34.747 -17.075 -23.609  0.00  0.00    +0.077 A 
ATOM      7  C   UNL     1      34.511 -17.737 -21.301  0.00  0.00    +0.004 C 
ATOM      8  C   UNL     1      34.849 -19.390 -23.053  0.00  0.00    +0.002 C 
ATOM      9  C   UNL     1      34.897 -18.396 -24.036  0.00  0.00    +0.019 C 
ATOM     10  C   UNL     1      34.455 -15.319 -22.295  0.00  0.00    +0.146 A 
ATOM     11  H   UNL     1      34.862 -15.838 -25.272  0.00  0.00    +0.189 HD
ATOM     12  H   UNL     1      34.195 -13.620 -21.199  0.00  0.00    +0.144 HD
ATOM     13  H   UNL     1      34.189 -15.062 -20.290  0.00  0.00    +0.144 HD
ENDROOT
BRANCH   5  14
ATOM     14  C   UNL     1      34.614 -20.124 -20.719  0.00  0.00    +0.000 C 
ATOM     15  C   UNL     1      33.385 -20.589 -20.252  0.00  0.00    +0.000 C 
ATOM     16  C   UNL     1      35.800 -20.675 -20.234  0.00  0.00    +0.000 C 
ATOM     17  C   UNL     1      33.342 -21.607 -19.299  0.00  0.00    +0.000 C 
ATOM     18  C   UNL     1      35.757 -21.692 -19.281  0.00  0.00    +0.000 C 
ATOM     19  C   UNL     1      34.528 -22.159 -18.814  0.00  0.00    +0.000 C 
ENDBRANCH   5  14
TORSDOF 1
ENDMDL
MODEL 3
REMARK VINA RESULT:      -9.9      3.594      5.943
REMARK  Name = 11492186
REMARK  1 active torsions:
REMARK  status: ('A' for Active; 'I' for Inactive)
REMARK    1  A    between atoms: C_5  and  C_14
REMARK                            x       y       z     vdW  Elec       q    Type
REMARK                         _______ _______ _______ _____ _____    ______ ____
ROOT
ATOM      1  N   UNL     1      36.131 -21.710 -18.686  0.00  0.00    -0.275 N 
ATOM      2  N   UNL     1      34.957 -22.331 -18.483  0.00  0.00    -0.158 NA
ATOM      3  N   UNL     1      32.843 -22.077 -19.576  0.00  0.00    -0.341 N 
ATOM      4  C   UNL     1      34.807 -20.795 -20.174  0.00  0.00    +0.050 A 
ATOM      5  C   UNL     1      35.434 -19.081 -21.750  0.00  0.00    +0.000 C 
ATOM      6  C   UNL     1      36.109 -20.777 -19.686  0.00  0.00    +0.077 A 
ATOM      7  C   UNL     1      34.455 -19.934 -21.227  0.00  0.00    +0.004 C 
ATOM      8  C   UNL     1      36.734 -19.084 -21.242  0.00  0.00    +0.002 C 
ATOM      9  C   UNL     1      37.101 -19.936 -20.194  0.00  0.00    +0.019 C 
ATOM     10  C   UNL     1      34.154 -21.771 -19.390  0.00  0.00    +0.146 A 
ATOM     11  H   UNL     1      36.940 -21.910 -18.159  0.00  0.00    +0.189 HD
ATOM     12  H   UNL     1      32.413 -22.762 -19.016  0.00  0.00    +0.144 HD
ATOM     13  H   UNL     1      32.323 -21.613 -20.272  0.00  0.00    +0.144 HD
ENDROOT
BRANCH   5  14
ATOM     14  C   UNL     1      35.091 -18.185 -22.835  0.00  0.00    +0.000 C 
ATOM     15  C   UNL     1      35.112 -16.806 -22.632  0.00  0.00    +0.000 C 
ATOM     16  C   UNL     1      34.742 -18.703 -24.082  0.00  0.00    +0.000 C 
ATOM     17  C   UNL     1      34.782 -15.943 -23.677  0.00  0.00    +0.000 C 
ATOM     18  C   UNL     1      34.412 -17.841 -25.126  0.00  0.00    +0.000 C 
ATOM     19  C   UNL     1      34.433 -16.460 -24.925  0.00  0.00    +0.000 C 
ENDBRANCH   5  14
TORSDOF 1
ENDMDL
MODEL 4
REMARK VINA RESULT:      -9.3      3.725      6.026
REMARK  Name = 11492186
REMARK  1 active torsions:
REMARK  status: ('A' for Active; 'I' for Inactive)
REMARK    1  A    between atoms: C_5  and  C_14
REMARK                            x       y       z     vdW  Elec       q    Type
REMARK                         _______ _______ _______ _____ _____    ______ ____
ROOT
ATOM      1  N   UNL     1      33.690 -22.461 -18.402  0.00  0.00    -0.275 N 
ATOM      2  N   UNL     1      34.919 -22.726 -17.929  0.00  0.00    -0.158 NA
ATOM      3  N   UNL     1      37.049 -21.794 -18.497  0.00  0.00    -0.341 N 
ATOM      4  C   UNL     1      34.979 -21.103 -19.541  0.00  0.00    +0.050 A 
ATOM      5  C   UNL     1      34.239 -19.544 -21.226  0.00  0.00    +0.000 C 
ATOM      6  C   UNL     1      33.657 -21.497 -19.372  0.00  0.00    +0.077 A 
ATOM      7  C   UNL     1      35.284 -20.107 -20.484  0.00  0.00    +0.004 C 
ATOM      8  C   UNL     1      32.919 -19.959 -21.035  0.00  0.00    +0.002 C 
ATOM      9  C   UNL     1      32.599 -20.948 -20.100  0.00  0.00    +0.019 C 
ATOM     10  C   UNL     1      35.700 -21.897 -18.625  0.00  0.00    +0.146 A 
ATOM     11  H   UNL     1      32.882 -22.923 -18.078  0.00  0.00    +0.189 HD
ATOM     12  H   UNL     1      37.527 -22.361 -17.849  0.00  0.00    +0.144 HD
ATOM     13  H   UNL     1      37.550 -21.153 -19.053  0.00  0.00    +0.144 HD
ENDROOT
BRANCH   5  14
ATOM     14  C   UNL     1      34.532 -18.516 -22.203  0.00  0.00    +0.000 C 
ATOM     15  C   UNL     1      34.686 -17.192 -21.796  0.00  0.00    +0.000 C 
ATOM     16  C   UNL     1      34.661 -18.853 -23.550  0.00  0.00    +0.000 C 
ATOM     17  C   UNL     1      34.969 -16.202 -22.737  0.00  0.00    +0.000 C 
ATOM     18  C   UNL     1      34.944 -17.864 -24.491  0.00  0.00    +0.000 C 
ATOM     19  C   UNL     1      35.098 -16.538 -24.085  0.00  0.00    +0.000 C 
ENDBRANCH   5  14
TORSDOF 1
ENDMDL
MODEL 5
REMARK VINA RESULT:      -9.2      1.542      3.095
REMARK  Name = 11492186
REMARK  1 active torsions:
REMARK  status: ('A' for Active; 'I' for Inactive)
REMARK    1  A    between atoms: C_5  and  C_14
REMARK                            x       y       z     vdW  Elec       q    Type
REMARK                         _______ _______ _______ _____ _____    ______ ____
ROOT
ATOM      1  N   UNL     1      33.744 -13.308 -23.294  0.00  0.00    -0.275 N 
ATOM      2  N   UNL     1      33.496 -13.553 -24.591  0.00  0.00    -0.158 NA
ATOM      3  N   UNL     1      33.474 -15.608 -25.819  0.00  0.00    -0.341 N 
ATOM      4  C   UNL     1      33.964 -15.483 -23.453  0.00  0.00    +0.050 A 
ATOM      5  C   UNL     1      34.523 -16.976 -21.643  0.00  0.00    +0.000 C 
ATOM      6  C   UNL     1      34.031 -14.423 -22.555  0.00  0.00    +0.077 A 
ATOM      7  C   UNL     1      34.213 -16.788 -22.995  0.00  0.00    +0.004 C 
ATOM      8  C   UNL     1      34.584 -15.893 -20.764  0.00  0.00    +0.002 C 
ATOM      9  C   UNL     1      34.338 -14.588 -21.203  0.00  0.00    +0.019 C 
ATOM     10  C   UNL     1      33.632 -14.878 -24.683  0.00  0.00    +0.146 A 
ATOM     11  H   UNL     1      33.720 -12.402 -22.908  0.00  0.00    +0.189 HD
ATOM     12  H   UNL     1      33.242 -15.160 -26.664  0.00  0.00    +0.144 HD
ATOM     13  H   UNL     1      33.593 -16.585 -25.797  0.00  0.00    +0.144 HD
ENDROOT
BRANCH   5  14
ATOM     14  C   UNL     1      34.784 -18.312 -21.152  0.00  0.00    +0.000 C 
ATOM     15  C   UNL     1      33.721 -19.166 -20.860  0.00  0.00    +0.000 C 
ATOM     16  C   UNL     1      36.097 -18.745 -20.972  0.00  0.00    +0.000 C 
ATOM     17  C   UNL     1      33.972 -20.455 -20.386  0.00  0.00    +0.000 C 
ATOM     18  C   UNL     1      36.348 -20.032 -20.499  0.00  0.00    +0.000 C 
ATOM     19  C   UNL     1      35.286 -20.888 -20.206  0.00  0.00    +0.000 C 
ENDBRANCH   5  14
TORSDOF 1
ENDMDL
MODEL 6
REMARK VINA RESULT:      -9.1      1.224      2.476
REMARK  Name = 11492186
REMARK  1 active torsions:
REMARK  status: ('A' for Active; 'I' for Inactive)
REMARK    1  A    between atoms: C_5  and  C_14
REMARK                            x       y       z     vdW  Elec       q    Type
REMARK                         _______ _______ _______ _____ _____    ______ ____
ROOT
ATOM      1  N   UNL     1      35.093 -16.291 -24.239  0.00  0.00    -0.275 N 
ATOM      2  N   UNL     1      34.791 -16.922 -25.387  0.00  0.00    -0.158 NA
ATOM      3  N   UNL     1      34.210 -19.204 -25.813  0.00  0.00    -0.341 N 
ATOM      4  C   UNL     1      34.710 -18.354 -23.603  0.00  0.00    +0.050 A 
ATOM      5  C   UNL     1      34.837 -19.174 -21.338  0.00  0.00    +0.000 C 
ATOM      6  C   UNL     1      35.063 -17.095 -23.132  0.00  0.00    +0.077 A 
ATOM      7  C   UNL     1      34.592 -19.420 -22.695  0.00  0.00    +0.004 C 
ATOM      8  C   UNL     1      35.189 -17.898 -20.893  0.00  0.00    +0.002 C 
ATOM      9  C   UNL     1      35.310 -16.827 -21.784  0.00  0.00    +0.019 C 
ATOM     10  C   UNL     1      34.558 -18.176 -24.995  0.00  0.00    +0.146 A 
ATOM     11  H   UNL     1      35.318 -15.333 -24.199  0.00  0.00    +0.189 HD
ATOM     12  H   UNL     1      34.111 -19.052 -26.780  0.00  0.00    +0.144 HD
ATOM     13  H   UNL     1      34.057 -20.102 -25.438  0.00  0.00    +0.144 HD
ENDROOT
BRANCH   5  14
ATOM     14  C   UNL     1      34.721 -20.258 -20.386  0.00  0.00    +0.000 C 
ATOM     15  C   UNL     1      35.868 -20.816 -19.824  0.00  0.00    +0.000 C 
ATOM     16  C   UNL     1      33.462 -20.743 -20.033  0.00  0.00    +0.000 C 
ATOM     17  C   UNL     1      35.756 -21.861 -18.906  0.00  0.00    +0.000 C 
ATOM     18  C   UNL     1      33.350 -21.788 -19.116  0.00  0.00    +0.000 C 
ATOM     19  C   UNL     1      34.497 -22.347 -18.552  0.00  0.00    +0.000 C 
ENDBRANCH   5  14
TORSDOF 1
ENDMDL
MODEL 7
REMARK VINA RESULT:      -9.1      1.387      2.364
REMARK  Name = 11492186
REMARK  1 active torsions:
REMARK  status: ('A' for Active; 'I' for Inactive)
REMARK    1  A    between atoms: C_5  and  C_14
REMARK                            x       y       z     vdW  Elec       q    Type
REMARK                         _______ _______ _______ _____ _____    ______ ____
ROOT
ATOM      1  N   UNL     1      33.647 -13.760 -23.681  0.00  0.00    -0.275 N 
ATOM      2  N   UNL     1      32.941 -13.109 -22.741  0.00  0.00    -0.158 NA
ATOM      3  N   UNL     1      32.332 -13.749 -20.516  0.00  0.00    -0.341 N 
ATOM      4  C   UNL     1      33.629 -15.160 -21.994  0.00  0.00    +0.050 A 
ATOM      5  C   UNL     1      34.672 -17.334 -21.959  0.00  0.00    +0.000 C 
ATOM      6  C   UNL     1      34.088 -14.997 -23.296  0.00  0.00    +0.077 A 
ATOM      7  C   UNL     1      33.923 -16.349 -21.305  0.00  0.00    +0.004 C 
ATOM      8  C   UNL     1      35.121 -17.144 -23.268  0.00  0.00    +0.002 C 
ATOM      9  C   UNL     1      34.837 -15.965 -23.966  0.00  0.00    +0.019 C 
ATOM     10  C   UNL     1      32.933 -13.964 -21.716  0.00  0.00    +0.146 A 
ATOM     11  H   UNL     1      33.830 -13.379 -24.571  0.00  0.00    +0.189 HD
ATOM     12  H   UNL     1      31.853 -12.905 -20.350  0.00  0.00    +0.144 HD
ATOM     13  H   UNL     1      32.376 -14.437 -19.813  0.00  0.00    +0.144 HD
ENDROOT
BRANCH   5  14
ATOM     14  C   UNL     1      34.985 -18.567 -21.268  0.00  0.00    +0.000 C 
ATOM     15  C   UNL     1      33.957 -19.409 -20.847  0.00  0.00    +0.000 C 
ATOM     16  C   UNL     1      36.314 -18.911 -21.024  0.00  0.00    +0.000 C 
ATOM     17  C   UNL     1      34.258 -20.597 -20.180  0.00  0.00    +0.000 C 
ATOM     18  C   UNL     1      36.616 -20.098 -20.358  0.00  0.00    +0.000 C 
ATOM     19  C   UNL     1      35.588 -20.942 -19.936  0.00  0.00    +0.000 C 
ENDBRANCH   5  14
TORSDOF 1
ENDMDL
MODEL 8
REMARK VINA RESULT:      -8.8      3.334      5.792
REMARK  Name = 11492186
REMARK  1 active torsions:
REMARK  status: ('A' for Active; 'I' for Inactive)
REMARK    1  A    between atoms: C_5  and  C_14
REMARK                            x       y       z     vdW  Elec       q    Type
REMARK                         _______ _______ _______ _____ _____    ______ ____
ROOT
ATOM      1  N   UNL     1      36.050 -21.271 -20.165  0.00  0.00    -0.275 N 
ATOM      2  N   UNL     1      34.984 -21.901 -19.645  0.00  0.00    -0.158 NA
ATOM      3  N   UNL     1      32.694 -21.223 -19.475  0.00  0.00    -0.341 N 
ATOM      4  C   UNL     1      34.413 -19.847 -20.480  0.00  0.00    +0.050 A 
ATOM      5  C   UNL     1      34.612 -17.685 -21.529  0.00  0.00    +0.000 C 
ATOM      6  C   UNL     1      35.776 -20.034 -20.682  0.00  0.00    +0.077 A 
ATOM      7  C   UNL     1      33.812 -18.652 -20.909  0.00  0.00    +0.004 C 
ATOM      8  C   UNL     1      35.979 -17.899 -21.719  0.00  0.00    +0.002 C 
ATOM      9  C   UNL     1      36.592 -19.084 -21.298  0.00  0.00    +0.019 C 
ATOM     10  C   UNL     1      33.990 -21.031 -19.839  0.00  0.00    +0.146 A 
ATOM     11  H   UNL     1      36.953 -21.666 -20.173  0.00  0.00    +0.189 HD
ATOM     12  H   UNL     1      32.427 -22.059 -19.029  0.00  0.00    +0.144 HD
ATOM     13  H   UNL     1      32.023 -20.525 -19.657  0.00  0.00    +0.144 HD
ENDROOT
BRANCH   5  14
ATOM     14  C   UNL     1      34.012 -16.446 -21.978  0.00  0.00    +0.000 C 
ATOM     15  C   UNL     1      34.333 -15.932 -23.233  0.00  0.00    +0.000 C 
ATOM     16  C   UNL     1      33.114 -15.769 -21.154  0.00  0.00    +0.000 C 
ATOM     17  C   UNL     1      33.755 -14.739 -23.666  0.00  0.00    +0.000 C 
ATOM     18  C   UNL     1      32.535 -14.576 -21.587  0.00  0.00    +0.000 C 
ATOM     19  C   UNL     1      32.855 -14.061 -22.843  0.00  0.00    +0.000 C 
ENDBRANCH   5  14
TORSDOF 1
ENDMDL
MODEL 9
REMARK VINA RESULT:      -8.8      8.215      9.740
REMARK  Name = 11492186
REMARK  1 active torsions:
REMARK  status: ('A' for Active; 'I' for Inactive)
REMARK    1  A    between atoms: C_5  and  C_14
REMARK                            x       y       z     vdW  Elec       q    Type
REMARK                         _______ _______ _______ _____ _____    ______ ____
ROOT
ATOM      1  N   UNL     1      38.610 -24.450 -15.277  0.00  0.00    -0.275 N 
ATOM      2  N   UNL     1      38.715 -25.637 -14.658  0.00  0.00    -0.158 NA
ATOM      3  N   UNL     1      37.039 -27.076 -13.736  0.00  0.00    -0.341 N 
ATOM      4  C   UNL     1      36.532 -24.966 -14.805  0.00  0.00    +0.050 A 
ATOM      5  C   UNL     1      34.596 -23.627 -15.331  0.00  0.00    +0.000 C 
ATOM      6  C   UNL     1      37.326 -23.991 -15.398  0.00  0.00    +0.077 A 
ATOM      7  C   UNL     1      35.138 -24.789 -14.768  0.00  0.00    +0.004 C 
ATOM      8  C   UNL     1      35.417 -22.664 -15.920  0.00  0.00    +0.002 C 
ATOM      9  C   UNL     1      36.806 -22.827 -15.966  0.00  0.00    +0.019 C 
ATOM     10  C   UNL     1      37.449 -25.948 -14.372  0.00  0.00    +0.146 A 
ATOM     11  H   UNL     1      39.390 -23.952 -15.615  0.00  0.00    +0.189 HD
ATOM     12  H   UNL     1      37.701 -27.745 -13.444  0.00  0.00    +0.144 HD
ATOM     13  H   UNL     1      36.081 -27.226 -13.565  0.00  0.00    +0.144 HD
ENDROOT
BRANCH   5  14
ATOM     14  C   UNL     1      33.163 -23.425 -15.302  0.00  0.00    +0.000 C 
ATOM     15  C   UNL     1      32.469 -23.185 -16.487  0.00  0.00    +0.000 C 
ATOM     16  C   UNL     1      32.477 -23.471 -14.088  0.00  0.00    +0.000 C 
ATOM     17  C   UNL     1      31.088 -22.991 -16.459  0.00  0.00    +0.000 C 
ATOM     18  C   UNL     1      31.097 -23.276 -14.060  0.00  0.00    +0.000 C 
ATOM     19  C   UNL     1      30.402 -23.037 -15.245  0.00  0.00    +0.000 C 
ENDBRANCH   5  14
TORSDOF 1
ENDMDL
