MODEL 1
REMARK VINA RESULT:      -7.3      0.000      0.000
REMARK  Name = 64377
REMARK  6 active torsions:
REMARK  status: ('A' for Active; 'I' for Inactive)
REMARK    1  A    between atoms: N_2  and  C_5
REMARK    2  A    between atoms: C_3  and  C_15
REMARK    3  A    between atoms: C_15  and  O_16
REMARK    4  A    between atoms: O_16  and  C_17
REMARK    5  A    between atoms: C_17  and  C_18
REMARK    6  A    between atoms: C_18  and  N_19
REMARK                            x       y       z     vdW  Elec       q    Type
REMARK                         _______ _______ _______ _____ _____    ______ ____
ROOT
ATOM      1  O   UNL     1      34.947 -22.625 -16.068  0.00  0.00    -0.272 OA
ATOM      2  N   UNL     1      37.211 -23.155 -16.104  0.00  0.00    -0.305 N 
ATOM      3  C   UNL     1      36.052 -22.585 -16.604  0.00  0.00    +0.253 C 
ATOM      4  H   UNL     1      38.042 -23.058 -16.623  0.00  0.00    +0.149 HD
ENDROOT
BRANCH   2   5
ATOM      5  C   UNL     1      37.257 -23.885 -14.855  0.00  0.00    +0.057 C 
ATOM      6  C   UNL     1      37.075 -23.695 -12.341  0.00  0.00    +0.002 C 
ATOM      7  C   UNL     1      36.213 -25.755 -13.513  0.00  0.00    +0.002 C 
ATOM      8  C   UNL     1      38.695 -25.334 -13.365  0.00  0.00    +0.002 C 
ATOM      9  C   UNL     1      37.024 -22.921 -13.671  0.00  0.00    +0.018 C 
ATOM     10  C   UNL     1      36.163 -24.975 -14.839  0.00  0.00    +0.018 C 
ATOM     11  C   UNL     1      38.639 -24.557 -14.691  0.00  0.00    +0.018 C 
ATOM     12  C   UNL     1      35.985 -24.780 -12.344  0.00  0.00    +0.000 C 
ATOM     13  C   UNL     1      38.454 -24.362 -12.197  0.00  0.00    +0.000 C 
ATOM     14  C   UNL     1      37.595 -26.411 -13.362  0.00  0.00    +0.000 C 
ENDBRANCH   2   5
BRANCH   3  15
ATOM     15  C   UNL     1      36.298 -21.885 -17.923  0.00  0.00    +0.227 C 
BRANCH  15  16
ATOM     16  O   UNL     1      35.430 -22.382 -18.920  0.00  0.00    -0.347 OA
BRANCH  16  17
ATOM     17  C   UNL     1      34.823 -21.332 -19.667  0.00  0.00    +0.120 C 
BRANCH  17  18
ATOM     18  C   UNL     1      35.917 -20.473 -20.280  0.00  0.00    -0.045 C 
BRANCH  18  19
ATOM     19  N   UNL     1      35.401 -19.162 -20.639  0.00  0.00    +0.386 N 
ATOM     20  C   UNL     1      34.019 -19.260 -21.116  0.00  0.00    -0.101 C 
ATOM     21  C   UNL     1      36.243 -18.534 -21.661  0.00  0.00    -0.101 C 
ATOM     22  H   UNL     1      35.415 -18.576 -19.803  0.00  0.00    -0.080 HD
ENDBRANCH  18  19
ENDBRANCH  17  18
ENDBRANCH  16  17
ENDBRANCH  15  16
ENDBRANCH   3  15
TORSDOF 6
ENDMDL
MODEL 2
REMARK VINA RESULT:      -7.3      4.030      5.414
REMARK  Name = 64377
REMARK  6 active torsions:
REMARK  status: ('A' for Active; 'I' for Inactive)
REMARK    1  A    between atoms: N_2  and  C_5
REMARK    2  A    between atoms: C_3  and  C_15
REMARK    3  A    between atoms: C_15  and  O_16
REMARK    4  A    between atoms: O_16  and  C_17
REMARK    5  A    between atoms: C_17  and  C_18
REMARK    6  A    between atoms: C_18  and  N_19
REMARK                            x       y       z     vdW  Elec       q    Type
REMARK                         _______ _______ _______ _____ _____    ______ ____
ROOT
ATOM      1  O   UNL     1      34.430 -23.586 -16.759  0.00  0.00    -0.272 OA
ATOM      2  N   UNL     1      34.017 -23.945 -14.499  0.00  0.00    -0.305 N 
ATOM      3  C   UNL     1      33.670 -23.602 -15.794  0.00  0.00    +0.253 C 
ATOM      4  H   UNL     1      33.320 -23.922 -13.804  0.00  0.00    +0.149 HD
ENDROOT
BRANCH   2   5
ATOM      5  C   UNL     1      35.358 -24.338 -14.119  0.00  0.00    +0.057 C 
ATOM      6  C   UNL     1      37.236 -25.972 -14.557  0.00  0.00    +0.002 C 
ATOM      7  C   UNL     1      37.764 -23.583 -13.947  0.00  0.00    +0.002 C 
ATOM      8  C   UNL     1      36.809 -25.145 -12.214  0.00  0.00    +0.002 C 
ATOM      9  C   UNL     1      35.811 -25.551 -14.962  0.00  0.00    +0.018 C 
ATOM     10  C   UNL     1      36.338 -23.168 -14.353  0.00  0.00    +0.018 C 
ATOM     11  C   UNL     1      35.387 -24.727 -12.623  0.00  0.00    +0.018 C 
ATOM     12  C   UNL     1      38.198 -24.794 -14.790  0.00  0.00    +0.000 C 
ATOM     13  C   UNL     1      37.248 -26.348 -13.066  0.00  0.00    +0.000 C 
ATOM     14  C   UNL     1      37.774 -23.972 -12.459  0.00  0.00    +0.000 C 
ENDBRANCH   2   5
BRANCH   3  15
ATOM     15  C   UNL     1      32.205 -23.235 -15.900  0.00  0.00    +0.227 C 
BRANCH  15  16
ATOM     16  O   UNL     1      31.760 -22.611 -14.714  0.00  0.00    -0.347 OA
BRANCH  16  17
ATOM     17  C   UNL     1      30.506 -23.130 -14.279  0.00  0.00    +0.120 C 
BRANCH  17  18
ATOM     18  C   UNL     1      29.435 -22.714 -15.273  0.00  0.00    -0.045 C 
BRANCH  18  19
ATOM     19  N   UNL     1      28.504 -23.807 -15.513  0.00  0.00    +0.386 N 
ATOM     20  C   UNL     1      29.003 -25.052 -14.924  0.00  0.00    -0.101 C 
ATOM     21  C   UNL     1      28.271 -23.984 -16.947  0.00  0.00    -0.101 C 
ATOM     22  H   UNL     1      27.617 -23.570 -15.066  0.00  0.00    -0.080 HD
ENDBRANCH  18  19
ENDBRANCH  17  18
ENDBRANCH  16  17
ENDBRANCH  15  16
ENDBRANCH   3  15
TORSDOF 6
ENDMDL
MODEL 3
REMARK VINA RESULT:      -7.3      3.848      4.982
REMARK  Name = 64377
REMARK  6 active torsions:
REMARK  status: ('A' for Active; 'I' for Inactive)
REMARK    1  A    between atoms: N_2  and  C_5
REMARK    2  A    between atoms: C_3  and  C_15
REMARK    3  A    between atoms: C_15  and  O_16
REMARK    4  A    between atoms: O_16  and  C_17
REMARK    5  A    between atoms: C_17  and  C_18
REMARK    6  A    between atoms: C_18  and  N_19
REMARK                            x       y       z     vdW  Elec       q    Type
REMARK                         _______ _______ _______ _____ _____    ______ ____
ROOT
ATOM      1  O   UNL     1      35.297 -23.039 -17.047  0.00  0.00    -0.272 OA
ATOM      2  N   UNL     1      34.203 -23.953 -15.210  0.00  0.00    -0.305 N 
ATOM      3  C   UNL     1      34.269 -23.381 -16.470  0.00  0.00    +0.253 C 
ATOM      4  H   UNL     1      33.319 -24.187 -14.848  0.00  0.00    +0.149 HD
ENDROOT
BRANCH   2   5
ATOM      5  C   UNL     1      35.375 -24.223 -14.404  0.00  0.00    +0.057 C 
ATOM      6  C   UNL     1      36.208 -24.737 -12.074  0.00  0.00    +0.002 C 
ATOM      7  C   UNL     1      37.346 -25.770 -14.073  0.00  0.00    +0.002 C 
ATOM      8  C   UNL     1      37.594 -23.303 -13.617  0.00  0.00    +0.002 C 
ATOM      9  C   UNL     1      34.963 -24.453 -12.934  0.00  0.00    +0.018 C 
ATOM     10  C   UNL     1      36.098 -25.484 -14.927  0.00  0.00    +0.018 C 
ATOM     11  C   UNL     1      36.346 -23.022 -14.472  0.00  0.00    +0.018 C 
ATOM     12  C   UNL     1      36.919 -25.991 -12.611  0.00  0.00    +0.000 C 
ATOM     13  C   UNL     1      37.166 -23.537 -12.158  0.00  0.00    +0.000 C 
ATOM     14  C   UNL     1      38.298 -24.565 -14.147  0.00  0.00    +0.000 C 
ENDBRANCH   2   5
BRANCH   3  15
ATOM     15  C   UNL     1      32.894 -23.215 -17.080  0.00  0.00    +0.227 C 
BRANCH  15  16
ATOM     16  O   UNL     1      31.889 -23.504 -16.130  0.00  0.00    -0.347 OA
BRANCH  16  17
ATOM     17  C   UNL     1      30.663 -22.846 -16.439  0.00  0.00    +0.120 C 
BRANCH  17  18
ATOM     18  C   UNL     1      29.771 -22.875 -15.209  0.00  0.00    -0.045 C 
BRANCH  18  19
ATOM     19  N   UNL     1      28.682 -23.823 -15.386  0.00  0.00    +0.386 N 
ATOM     20  C   UNL     1      29.035 -25.130 -14.827  0.00  0.00    -0.101 C 
ATOM     21  C   UNL     1      28.335 -23.957 -16.802  0.00  0.00    -0.101 C 
ATOM     22  H   UNL     1      27.867 -23.465 -14.885  0.00  0.00    -0.080 HD
ENDBRANCH  18  19
ENDBRANCH  17  18
ENDBRANCH  16  17
ENDBRANCH  15  16
ENDBRANCH   3  15
TORSDOF 6
ENDMDL
MODEL 4
REMARK VINA RESULT:      -7.2      3.856      4.966
REMARK  Name = 64377
REMARK  6 active torsions:
REMARK  status: ('A' for Active; 'I' for Inactive)
REMARK    1  A    between atoms: N_2  and  C_5
REMARK    2  A    between atoms: C_3  and  C_15
REMARK    3  A    between atoms: C_15  and  O_16
REMARK    4  A    between atoms: O_16  and  C_17
REMARK    5  A    between atoms: C_17  and  C_18
REMARK    6  A    between atoms: C_18  and  N_19
REMARK                            x       y       z     vdW  Elec       q    Type
REMARK                         _______ _______ _______ _____ _____    ______ ____
ROOT
ATOM      1  O   UNL     1      35.262 -23.061 -17.177  0.00  0.00    -0.272 OA
ATOM      2  N   UNL     1      34.143 -23.894 -15.316  0.00  0.00    -0.305 N 
ATOM      3  C   UNL     1      34.225 -23.365 -16.594  0.00  0.00    +0.253 C 
ATOM      4  H   UNL     1      33.252 -24.100 -14.951  0.00  0.00    +0.149 HD
ENDROOT
BRANCH   2   5
ATOM      5  C   UNL     1      35.305 -24.160 -14.496  0.00  0.00    +0.057 C 
ATOM      6  C   UNL     1      37.538 -23.263 -13.721  0.00  0.00    +0.002 C 
ATOM      7  C   UNL     1      36.117 -24.630 -12.149  0.00  0.00    +0.002 C 
ATOM      8  C   UNL     1      37.244 -25.736 -14.114  0.00  0.00    +0.002 C 
ATOM      9  C   UNL     1      36.299 -22.981 -14.591  0.00  0.00    +0.018 C 
ATOM     10  C   UNL     1      34.882 -24.344 -13.022  0.00  0.00    +0.018 C 
ATOM     11  C   UNL     1      36.007 -25.449 -14.983  0.00  0.00    +0.018 C 
ATOM     12  C   UNL     1      37.099 -23.450 -12.259  0.00  0.00    +0.000 C 
ATOM     13  C   UNL     1      38.220 -24.551 -14.214  0.00  0.00    +0.000 C 
ATOM     14  C   UNL     1      36.806 -25.910 -12.650  0.00  0.00    +0.000 C 
ENDBRANCH   2   5
BRANCH   3  15
ATOM     15  C   UNL     1      32.855 -23.194 -17.216  0.00  0.00    +0.227 C 
BRANCH  15  16
ATOM     16  O   UNL     1      31.844 -23.581 -16.309  0.00  0.00    -0.347 OA
BRANCH  16  17
ATOM     17  C   UNL     1      30.652 -22.822 -16.488  0.00  0.00    +0.120 C 
BRANCH  17  18
ATOM     18  C   UNL     1      29.837 -22.884 -15.207  0.00  0.00    -0.045 C 
BRANCH  18  19
ATOM     19  N   UNL     1      28.705 -23.786 -15.362  0.00  0.00    +0.386 N 
ATOM     20  C   UNL     1      29.020 -25.111 -14.821  0.00  0.00    -0.101 C 
ATOM     21  C   UNL     1      28.316 -23.895 -16.769  0.00  0.00    -0.101 C 
ATOM     22  H   UNL     1      27.919 -23.399 -14.837  0.00  0.00    -0.080 HD
ENDBRANCH  18  19
ENDBRANCH  17  18
ENDBRANCH  16  17
ENDBRANCH  15  16
ENDBRANCH   3  15
TORSDOF 6
ENDMDL
MODEL 5
REMARK VINA RESULT:      -7.2      3.981      6.893
REMARK  Name = 64377
REMARK  6 active torsions:
REMARK  status: ('A' for Active; 'I' for Inactive)
REMARK    1  A    between atoms: N_2  and  C_5
REMARK    2  A    between atoms: C_3  and  C_15
REMARK    3  A    between atoms: C_15  and  O_16
REMARK    4  A    between atoms: O_16  and  C_17
REMARK    5  A    between atoms: C_17  and  C_18
REMARK    6  A    between atoms: C_18  and  N_19
REMARK                            x       y       z     vdW  Elec       q    Type
REMARK                         _______ _______ _______ _____ _____    ______ ____
ROOT
ATOM      1  O   UNL     1      34.796 -24.280 -16.464  0.00  0.00    -0.272 OA
ATOM      2  N   UNL     1      34.012 -22.792 -14.858  0.00  0.00    -0.305 N 
ATOM      3  C   UNL     1      34.970 -23.337 -15.697  0.00  0.00    +0.253 C 
ATOM      4  H   UNL     1      34.268 -22.034 -14.285  0.00  0.00    +0.149 HD
ENDROOT
BRANCH   2   5
ATOM      5  C   UNL     1      32.653 -23.285 -14.787  0.00  0.00    +0.057 C 
ATOM      6  C   UNL     1      30.582 -23.840 -16.125  0.00  0.00    +0.002 C 
ATOM      7  C   UNL     1      31.193 -25.236 -14.116  0.00  0.00    +0.002 C 
ATOM      8  C   UNL     1      30.360 -22.877 -13.804  0.00  0.00    +0.002 C 
ATOM      9  C   UNL     1      32.029 -23.318 -16.199  0.00  0.00    +0.018 C 
ATOM     10  C   UNL     1      32.638 -24.712 -14.196  0.00  0.00    +0.018 C 
ATOM     11  C   UNL     1      31.806 -22.359 -13.884  0.00  0.00    +0.018 C 
ATOM     12  C   UNL     1      30.584 -25.258 -15.529  0.00  0.00    +0.000 C 
ATOM     13  C   UNL     1      29.755 -22.911 -15.218  0.00  0.00    +0.000 C 
ATOM     14  C   UNL     1      30.364 -24.301 -13.221  0.00  0.00    +0.000 C 
ENDBRANCH   2   5
BRANCH   3  15
ATOM     15  C   UNL     1      36.299 -22.625 -15.563  0.00  0.00    +0.227 C 
BRANCH  15  16
ATOM     16  O   UNL     1      37.368 -23.542 -15.654  0.00  0.00    -0.347 OA
BRANCH  16  17
ATOM     17  C   UNL     1      37.725 -24.069 -14.380  0.00  0.00    +0.120 C 
BRANCH  17  18
ATOM     18  C   UNL     1      38.591 -25.301 -14.586  0.00  0.00    -0.045 C 
BRANCH  18  19
ATOM     19  N   UNL     1      37.903 -26.496 -14.123  0.00  0.00    +0.386 N 
ATOM     20  C   UNL     1      36.890 -26.922 -15.092  0.00  0.00    -0.101 C 
ATOM     21  C   UNL     1      37.285 -26.265 -12.815  0.00  0.00    -0.101 C 
ATOM     22  H   UNL     1      38.594 -27.242 -14.027  0.00  0.00    -0.080 HD
ENDBRANCH  18  19
ENDBRANCH  17  18
ENDBRANCH  16  17
ENDBRANCH  15  16
ENDBRANCH   3  15
TORSDOF 6
ENDMDL
MODEL 6
REMARK VINA RESULT:      -7.1     10.082     15.708
REMARK  Name = 64377
REMARK  6 active torsions:
REMARK  status: ('A' for Active; 'I' for Inactive)
REMARK    1  A    between atoms: N_2  and  C_5
REMARK    2  A    between atoms: C_3  and  C_15
REMARK    3  A    between atoms: C_15  and  O_16
REMARK    4  A    between atoms: O_16  and  C_17
REMARK    5  A    between atoms: C_17  and  C_18
REMARK    6  A    between atoms: C_18  and  N_19
REMARK                            x       y       z     vdW  Elec       q    Type
REMARK                         _______ _______ _______ _____ _____    ______ ____
ROOT
ATOM      1  O   UNL     1      34.594 -10.789 -25.182  0.00  0.00    -0.272 OA
ATOM      2  N   UNL     1      32.899 -10.938 -23.598  0.00  0.00    -0.305 N 
ATOM      3  C   UNL     1      33.790 -11.447 -24.528  0.00  0.00    +0.253 C 
ATOM      4  H   UNL     1      32.299 -11.565 -23.132  0.00  0.00    +0.149 HD
ENDROOT
BRANCH   2   5
ATOM      5  C   UNL     1      32.811  -9.529 -23.278  0.00  0.00    +0.057 C 
ATOM      6  C   UNL     1      34.120  -7.384 -23.009  0.00  0.00    +0.002 C 
ATOM      7  C   UNL     1      31.777  -7.319 -23.938  0.00  0.00    +0.002 C 
ATOM      8  C   UNL     1      32.153  -7.854 -21.503  0.00  0.00    +0.002 C 
ATOM      9  C   UNL     1      34.212  -8.882 -23.352  0.00  0.00    +0.018 C 
ATOM     10  C   UNL     1      31.875  -8.817 -24.279  0.00  0.00    +0.018 C 
ATOM     11  C   UNL     1      32.249  -9.350 -21.849  0.00  0.00    +0.018 C 
ATOM     12  C   UNL     1      33.180  -6.691 -24.010  0.00  0.00    +0.000 C 
ATOM     13  C   UNL     1      33.554  -7.224 -21.587  0.00  0.00    +0.000 C 
ATOM     14  C   UNL     1      31.223  -7.159 -22.513  0.00  0.00    +0.000 C 
ENDBRANCH   2   5
BRANCH   3  15
ATOM     15  C   UNL     1      33.663 -12.950 -24.659  0.00  0.00    +0.227 C 
BRANCH  15  16
ATOM     16  O   UNL     1      33.948 -13.583 -23.430  0.00  0.00    -0.347 OA
BRANCH  16  17
ATOM     17  C   UNL     1      33.659 -14.977 -23.471  0.00  0.00    +0.120 C 
BRANCH  17  18
ATOM     18  C   UNL     1      34.889 -15.745 -23.017  0.00  0.00    -0.045 C 
BRANCH  18  19
ATOM     19  N   UNL     1      35.304 -16.700 -24.033  0.00  0.00    +0.386 N 
ATOM     20  C   UNL     1      34.428 -16.625 -25.205  0.00  0.00    -0.101 C 
ATOM     21  C   UNL     1      35.309 -18.062 -23.494  0.00  0.00    -0.101 C 
ATOM     22  H   UNL     1      36.253 -16.462 -24.322  0.00  0.00    -0.080 HD
ENDBRANCH  18  19
ENDBRANCH  17  18
ENDBRANCH  16  17
ENDBRANCH  15  16
ENDBRANCH   3  15
TORSDOF 6
ENDMDL
MODEL 7
REMARK VINA RESULT:      -7.1      4.035      6.827
REMARK  Name = 64377
REMARK  6 active torsions:
REMARK  status: ('A' for Active; 'I' for Inactive)
REMARK    1  A    between atoms: N_2  and  C_5
REMARK    2  A    between atoms: C_3  and  C_15
REMARK    3  A    between atoms: C_15  and  O_16
REMARK    4  A    between atoms: O_16  and  C_17
REMARK    5  A    between atoms: C_17  and  C_18
REMARK    6  A    between atoms: C_18  and  N_19
REMARK                            x       y       z     vdW  Elec       q    Type
REMARK                         _______ _______ _______ _____ _____    ______ ____
ROOT
ATOM      1  O   UNL     1      34.462 -23.914 -16.962  0.00  0.00    -0.272 OA
ATOM      2  N   UNL     1      33.992 -23.003 -14.875  0.00  0.00    -0.305 N 
ATOM      3  C   UNL     1      34.806 -23.303 -15.954  0.00  0.00    +0.253 C 
ATOM      4  H   UNL     1      34.381 -22.506 -14.119  0.00  0.00    +0.149 HD
ENDROOT
BRANCH   2   5
ATOM      5  C   UNL     1      32.598 -23.385 -14.808  0.00  0.00    +0.057 C 
ATOM      6  C   UNL     1      30.366 -22.886 -13.732  0.00  0.00    +0.002 C 
ATOM      7  C   UNL     1      30.462 -23.655 -16.131  0.00  0.00    +0.002 C 
ATOM      8  C   UNL     1      30.998 -25.267 -14.269  0.00  0.00    +0.002 C 
ATOM      9  C   UNL     1      31.849 -22.479 -13.807  0.00  0.00    +0.018 C 
ATOM     10  C   UNL     1      31.944 -23.245 -16.200  0.00  0.00    +0.018 C 
ATOM     11  C   UNL     1      32.479 -24.854 -14.342  0.00  0.00    +0.018 C 
ATOM     12  C   UNL     1      29.731 -22.747 -15.126  0.00  0.00    +0.000 C 
ATOM     13  C   UNL     1      30.266 -24.351 -13.274  0.00  0.00    +0.000 C 
ATOM     14  C   UNL     1      30.360 -25.115 -15.661  0.00  0.00    +0.000 C 
ENDBRANCH   2   5
BRANCH   3  15
ATOM     15  C   UNL     1      36.214 -22.782 -15.754  0.00  0.00    +0.227 C 
BRANCH  15  16
ATOM     16  O   UNL     1      37.144 -23.844 -15.760  0.00  0.00    -0.347 OA
BRANCH  16  17
ATOM     17  C   UNL     1      36.905 -24.766 -14.701  0.00  0.00    +0.120 C 
BRANCH  17  18
ATOM     18  C   UNL     1      37.715 -26.026 -14.959  0.00  0.00    -0.045 C 
BRANCH  18  19
ATOM     19  N   UNL     1      38.756 -26.181 -13.954  0.00  0.00    +0.386 N 
ATOM     20  C   UNL     1      38.399 -25.475 -12.722  0.00  0.00    -0.101 C 
ATOM     21  C   UNL     1      40.042 -25.694 -14.460  0.00  0.00    -0.101 C 
ATOM     22  H   UNL     1      38.846 -27.176 -13.744  0.00  0.00    -0.080 HD
ENDBRANCH  18  19
ENDBRANCH  17  18
ENDBRANCH  16  17
ENDBRANCH  15  16
ENDBRANCH   3  15
TORSDOF 6
ENDMDL
MODEL 8
REMARK VINA RESULT:      -7.1      4.035      6.966
REMARK  Name = 64377
REMARK  6 active torsions:
REMARK  status: ('A' for Active; 'I' for Inactive)
REMARK    1  A    between atoms: N_2  and  C_5
REMARK    2  A    between atoms: C_3  and  C_15
REMARK    3  A    between atoms: C_15  and  O_16
REMARK    4  A    between atoms: O_16  and  C_17
REMARK    5  A    between atoms: C_17  and  C_18
REMARK    6  A    between atoms: C_18  and  N_19
REMARK                            x       y       z     vdW  Elec       q    Type
REMARK                         _______ _______ _______ _____ _____    ______ ____
ROOT
ATOM      1  O   UNL     1      34.467 -23.919 -16.954  0.00  0.00    -0.272 OA
ATOM      2  N   UNL     1      33.994 -23.002 -14.871  0.00  0.00    -0.305 N 
ATOM      3  C   UNL     1      34.809 -23.305 -15.948  0.00  0.00    +0.253 C 
ATOM      4  H   UNL     1      34.380 -22.502 -14.116  0.00  0.00    +0.149 HD
ENDROOT
BRANCH   2   5
ATOM      5  C   UNL     1      32.599 -23.386 -14.804  0.00  0.00    +0.057 C 
ATOM      6  C   UNL     1      30.995 -25.267 -14.279  0.00  0.00    +0.002 C 
ATOM      7  C   UNL     1      30.366 -22.888 -13.732  0.00  0.00    +0.002 C 
ATOM      8  C   UNL     1      30.465 -23.643 -16.134  0.00  0.00    +0.002 C 
ATOM      9  C   UNL     1      32.477 -24.856 -14.348  0.00  0.00    +0.018 C 
ATOM     10  C   UNL     1      31.849 -22.483 -13.800  0.00  0.00    +0.018 C 
ATOM     11  C   UNL     1      31.948 -23.237 -16.198  0.00  0.00    +0.018 C 
ATOM     12  C   UNL     1      30.262 -24.355 -13.281  0.00  0.00    +0.000 C 
ATOM     13  C   UNL     1      30.361 -25.107 -15.672  0.00  0.00    +0.000 C 
ATOM     14  C   UNL     1      29.735 -22.740 -15.125  0.00  0.00    +0.000 C 
ENDBRANCH   2   5
BRANCH   3  15
ATOM     15  C   UNL     1      36.216 -22.781 -15.747  0.00  0.00    +0.227 C 
BRANCH  15  16
ATOM     16  O   UNL     1      37.147 -23.842 -15.746  0.00  0.00    -0.347 OA
BRANCH  16  17
ATOM     17  C   UNL     1      36.901 -24.763 -14.687  0.00  0.00    +0.120 C 
BRANCH  17  18
ATOM     18  C   UNL     1      37.690 -26.034 -14.953  0.00  0.00    -0.045 C 
BRANCH  18  19
ATOM     19  N   UNL     1      38.712 -26.227 -13.936  0.00  0.00    +0.386 N 
ATOM     20  C   UNL     1      38.349 -25.537 -12.697  0.00  0.00    -0.101 C 
ATOM     21  C   UNL     1      40.014 -25.755 -14.413  0.00  0.00    -0.101 C 
ATOM     22  H   UNL     1      38.781 -27.228 -13.743  0.00  0.00    -0.080 HD
ENDBRANCH  18  19
ENDBRANCH  17  18
ENDBRANCH  16  17
ENDBRANCH  15  16
ENDBRANCH   3  15
TORSDOF 6
ENDMDL
MODEL 9
REMARK VINA RESULT:      -7.1     10.075     15.705
REMARK  Name = 64377
REMARK  6 active torsions:
REMARK  status: ('A' for Active; 'I' for Inactive)
REMARK    1  A    between atoms: N_2  and  C_5
REMARK    2  A    between atoms: C_3  and  C_15
REMARK    3  A    between atoms: C_15  and  O_16
REMARK    4  A    between atoms: O_16  and  C_17
REMARK    5  A    between atoms: C_17  and  C_18
REMARK    6  A    between atoms: C_18  and  N_19
REMARK                            x       y       z     vdW  Elec       q    Type
REMARK                         _______ _______ _______ _____ _____    ______ ____
ROOT
ATOM      1  O   UNL     1      34.562 -10.811 -25.214  0.00  0.00    -0.272 OA
ATOM      2  N   UNL     1      32.924 -10.965 -23.571  0.00  0.00    -0.305 N 
ATOM      3  C   UNL     1      33.787 -11.472 -24.528  0.00  0.00    +0.253 C 
ATOM      4  H   UNL     1      32.346 -11.593 -23.081  0.00  0.00    +0.149 HD
ENDROOT
BRANCH   2   5
ATOM      5  C   UNL     1      32.834  -9.554 -23.258  0.00  0.00    +0.057 C 
ATOM      6  C   UNL     1      32.222  -7.866 -21.479  0.00  0.00    +0.002 C 
ATOM      7  C   UNL     1      34.129  -7.393 -23.059  0.00  0.00    +0.002 C 
ATOM      8  C   UNL     1      31.755  -7.362 -23.905  0.00  0.00    +0.002 C 
ATOM      9  C   UNL     1      32.321  -9.366 -21.813  0.00  0.00    +0.018 C 
ATOM     10  C   UNL     1      34.224  -8.894 -23.389  0.00  0.00    +0.018 C 
ATOM     11  C   UNL     1      31.855  -8.862 -24.233  0.00  0.00    +0.018 C 
ATOM     12  C   UNL     1      33.612  -7.222 -21.620  0.00  0.00    +0.000 C 
ATOM     13  C   UNL     1      31.250  -7.192 -22.462  0.00  0.00    +0.000 C 
ATOM     14  C   UNL     1      33.148  -6.721 -24.033  0.00  0.00    +0.000 C 
ENDBRANCH   2   5
BRANCH   3  15
ATOM     15  C   UNL     1      33.668 -12.976 -24.645  0.00  0.00    +0.227 C 
BRANCH  15  16
ATOM     16  O   UNL     1      33.926 -13.595 -23.402  0.00  0.00    -0.347 OA
BRANCH  16  17
ATOM     17  C   UNL     1      33.625 -14.987 -23.429  0.00  0.00    +0.120 C 
BRANCH  17  18
ATOM     18  C   UNL     1      34.851 -15.760 -22.972  0.00  0.00    -0.045 C 
BRANCH  18  19
ATOM     19  N   UNL     1      35.286 -16.689 -24.004  0.00  0.00    +0.386 N 
ATOM     20  C   UNL     1      34.410 -16.612 -25.175  0.00  0.00    -0.101 C 
ATOM     21  C   UNL     1      35.318 -18.060 -23.488  0.00  0.00    -0.101 C 
ATOM     22  H   UNL     1      36.231 -16.427 -24.287  0.00  0.00    -0.080 HD
ENDBRANCH  18  19
ENDBRANCH  17  18
ENDBRANCH  16  17
ENDBRANCH  15  16
ENDBRANCH   3  15
TORSDOF 6
ENDMDL
