MODEL 1
REMARK VINA RESULT:     -10.7      0.000      0.000
REMARK  Name = 5330812
REMARK  6 active torsions:
REMARK  status: ('A' for Active; 'I' for Inactive)
REMARK    1  A    between atoms: N_1  and  C_11
REMARK    2  A    between atoms: N_2  and  C_24
REMARK    3  A    between atoms: C_12  and  S_17
REMARK    4  A    between atoms: S_17  and  N_20
REMARK    5  A    between atoms: C_24  and  N_25
REMARK    6  A    between atoms: N_25  and  C_29
REMARK                            x       y       z     vdW  Elec       q    Type
REMARK                         _______ _______ _______ _____ _____    ______ ____
ROOT
ATOM      1  N   UNL     1      34.147 -23.278 -16.866  0.00  0.00    -0.246 N 
ATOM      2  N   UNL     1      34.661 -21.134 -19.449  0.00  0.00    -0.120 N 
ATOM      3  N   UNL     1      35.190 -21.730 -18.369  0.00  0.00    -0.089 NA
ATOM      4  N   UNL     1      33.016 -22.361 -18.699  0.00  0.00    -0.304 NA
ATOM      5  N   UNL     1      32.653 -21.025 -20.676  0.00  0.00    -0.319 N 
ATOM      6  C   UNL     1      34.155 -22.431 -17.991  0.00  0.00    +0.167 C 
ATOM      7  C   UNL     1      33.369 -21.515 -19.639  0.00  0.00    +0.272 C 
ATOM      8  H   UNL     1      33.288 -23.736 -16.721  0.00  0.00    +0.165 HD
ATOM      9  H   UNL     1      33.067 -20.389 -21.303  0.00  0.00    +0.146 HD
ATOM     10  H   UNL     1      31.719 -21.306 -20.805  0.00  0.00    +0.146 HD
ENDROOT
BRANCH   1  11
ATOM     11  C   UNL     1      35.130 -23.599 -15.907  0.00  0.00    +0.058 C 
ATOM     12  C   UNL     1      37.073 -24.235 -14.008  0.00  0.00    +0.122 C 
ATOM     13  C   UNL     1      34.928 -24.668 -15.032  0.00  0.00    +0.017 C 
ATOM     14  C   UNL     1      36.303 -22.849 -15.831  0.00  0.00    +0.017 C 
ATOM     15  C   UNL     1      35.900 -24.985 -14.084  0.00  0.00    +0.021 C 
ATOM     16  C   UNL     1      37.274 -23.166 -14.883  0.00  0.00    +0.021 C 
BRANCH  12  17
ATOM     17  S   UNL     1      38.289 -24.633 -12.822  0.00  0.00    +0.057 S 
ATOM     18  O   UNL     1      37.807 -25.753 -12.026  0.00  0.00    -0.153 OA
ATOM     19  O   UNL     1      39.579 -24.726 -13.494  0.00  0.00    -0.153 OA
BRANCH  17  20
ATOM     20  N   UNL     1      38.276 -23.224 -11.855  0.00  0.00    -0.203 NA
ATOM     21  H   UNL     1      37.328 -23.053 -11.518  0.00  0.00    +0.144 HD
ATOM     22  H   UNL     1      38.589 -22.428 -12.411  0.00  0.00    +0.144 HD
ENDBRANCH  17  20
ENDBRANCH  12  17
ENDBRANCH   1  11
BRANCH   2  24
ATOM     23  S   UNL     1      37.048 -20.556 -20.608  0.00  0.00    -0.016 S 
ATOM     24  C   UNL     1      35.441 -20.268 -20.184  0.00  0.00    +0.166 C 
BRANCH  24  25
ATOM     25  N   UNL     1      34.653 -19.191 -20.593  0.00  0.00    -0.291 N 
ATOM     26  H   UNL     1      33.870 -19.016 -20.022  0.00  0.00    +0.154 HD
BRANCH  25  29
ATOM     27  F   UNL     1      34.855 -16.451 -20.206  0.00  0.00    -0.203 F 
ATOM     28  F   UNL     1      34.729 -20.138 -23.200  0.00  0.00    -0.203 F 
ATOM     29  C   UNL     1      34.790 -18.302 -21.694  0.00  0.00    +0.105 C 
ATOM     30  C   UNL     1      34.887 -16.944 -21.453  0.00  0.00    +0.156 C 
ATOM     31  C   UNL     1      34.823 -18.819 -22.975  0.00  0.00    +0.156 C 
ATOM     32  C   UNL     1      35.022 -16.072 -22.532  0.00  0.00    +0.031 C 
ATOM     33  C   UNL     1      34.958 -17.947 -24.055  0.00  0.00    +0.031 C 
ATOM     34  C   UNL     1      35.057 -16.574 -23.834  0.00  0.00    +0.005 C 
ENDBRANCH  25  29
ENDBRANCH  24  25
ENDBRANCH   2  24
TORSDOF 6
ENDMDL
MODEL 2
REMARK VINA RESULT:     -10.7      0.034      1.564
REMARK  Name = 5330812
REMARK  6 active torsions:
REMARK  status: ('A' for Active; 'I' for Inactive)
REMARK    1  A    between atoms: N_1  and  C_11
REMARK    2  A    between atoms: N_2  and  C_24
REMARK    3  A    between atoms: C_12  and  S_17
REMARK    4  A    between atoms: S_17  and  N_20
REMARK    5  A    between atoms: C_24  and  N_25
REMARK    6  A    between atoms: N_25  and  C_29
REMARK                            x       y       z     vdW  Elec       q    Type
REMARK                         _______ _______ _______ _____ _____    ______ ____
ROOT
ATOM      1  N   UNL     1      34.138 -23.279 -16.864  0.00  0.00    -0.246 N 
ATOM      2  N   UNL     1      34.657 -21.135 -19.445  0.00  0.00    -0.120 N 
ATOM      3  N   UNL     1      35.184 -21.730 -18.364  0.00  0.00    -0.089 NA
ATOM      4  N   UNL     1      33.011 -22.362 -18.700  0.00  0.00    -0.304 NA
ATOM      5  N   UNL     1      32.653 -21.027 -20.678  0.00  0.00    -0.319 N 
ATOM      6  C   UNL     1      34.148 -22.432 -17.989  0.00  0.00    +0.167 C 
ATOM      7  C   UNL     1      33.366 -21.516 -19.638  0.00  0.00    +0.272 C 
ATOM      8  H   UNL     1      33.279 -23.737 -16.721  0.00  0.00    +0.165 HD
ATOM      9  H   UNL     1      33.068 -20.391 -21.303  0.00  0.00    +0.146 HD
ATOM     10  H   UNL     1      31.719 -21.308 -20.809  0.00  0.00    +0.146 HD
ENDROOT
BRANCH   1  11
ATOM     11  C   UNL     1      35.118 -23.600 -15.902  0.00  0.00    +0.058 C 
ATOM     12  C   UNL     1      37.057 -24.235 -13.999  0.00  0.00    +0.122 C 
ATOM     13  C   UNL     1      34.880 -24.616 -14.976  0.00  0.00    +0.017 C 
ATOM     14  C   UNL     1      36.325 -22.901 -15.876  0.00  0.00    +0.017 C 
ATOM     15  C   UNL     1      35.850 -24.933 -14.025  0.00  0.00    +0.021 C 
ATOM     16  C   UNL     1      37.294 -23.218 -14.925  0.00  0.00    +0.021 C 
BRANCH  12  17
ATOM     17  S   UNL     1      38.270 -24.632 -12.809  0.00  0.00    +0.057 S 
ATOM     18  O   UNL     1      37.786 -25.753 -12.015  0.00  0.00    -0.153 OA
ATOM     19  O   UNL     1      39.561 -24.723 -13.477  0.00  0.00    -0.153 OA
BRANCH  17  20
ATOM     20  N   UNL     1      38.252 -23.224 -11.841  0.00  0.00    -0.203 NA
ATOM     21  H   UNL     1      38.730 -22.469 -12.332  0.00  0.00    +0.144 HD
ATOM     22  H   UNL     1      38.729 -23.413 -10.959  0.00  0.00    +0.144 HD
ENDBRANCH  17  20
ENDBRANCH  12  17
ENDBRANCH   1  11
BRANCH   2  24
ATOM     23  S   UNL     1      37.049 -20.551 -20.591  0.00  0.00    -0.016 S 
ATOM     24  C   UNL     1      35.439 -20.269 -20.178  0.00  0.00    +0.166 C 
BRANCH  24  25
ATOM     25  N   UNL     1      34.650 -19.195 -20.596  0.00  0.00    -0.291 N 
ATOM     26  H   UNL     1      33.863 -19.021 -20.030  0.00  0.00    +0.154 HD
BRANCH  25  29
ATOM     27  F   UNL     1      34.735 -20.152 -23.199  0.00  0.00    -0.203 F 
ATOM     28  F   UNL     1      34.846 -16.454 -20.219  0.00  0.00    -0.203 F 
ATOM     29  C   UNL     1      34.790 -18.311 -21.700  0.00  0.00    +0.105 C 
ATOM     30  C   UNL     1      34.827 -18.832 -22.979  0.00  0.00    +0.156 C 
ATOM     31  C   UNL     1      34.885 -16.952 -21.463  0.00  0.00    +0.156 C 
ATOM     32  C   UNL     1      34.964 -17.964 -24.061  0.00  0.00    +0.031 C 
ATOM     33  C   UNL     1      35.021 -16.084 -22.546  0.00  0.00    +0.031 C 
ATOM     34  C   UNL     1      35.061 -16.589 -23.845  0.00  0.00    +0.005 C 
ENDBRANCH  25  29
ENDBRANCH  24  25
ENDBRANCH   2  24
TORSDOF 6
ENDMDL
MODEL 3
REMARK VINA RESULT:     -10.6      7.472     11.884
REMARK  Name = 5330812
REMARK  6 active torsions:
REMARK  status: ('A' for Active; 'I' for Inactive)
REMARK    1  A    between atoms: N_1  and  C_11
REMARK    2  A    between atoms: N_2  and  C_24
REMARK    3  A    between atoms: C_12  and  S_17
REMARK    4  A    between atoms: S_17  and  N_20
REMARK    5  A    between atoms: C_24  and  N_25
REMARK    6  A    between atoms: N_25  and  C_29
REMARK                            x       y       z     vdW  Elec       q    Type
REMARK                         _______ _______ _______ _____ _____    ______ ____
ROOT
ATOM      1  N   UNL     1      33.603 -13.313 -24.754  0.00  0.00    -0.246 N 
ATOM      2  N   UNL     1      34.312 -16.104 -22.953  0.00  0.00    -0.120 N 
ATOM      3  N   UNL     1      34.070 -14.785 -22.920  0.00  0.00    -0.089 NA
ATOM      4  N   UNL     1      33.999 -15.601 -25.056  0.00  0.00    -0.304 NA
ATOM      5  N   UNL     1      34.487 -17.892 -24.476  0.00  0.00    -0.319 N 
ATOM      6  C   UNL     1      33.897 -14.574 -24.197  0.00  0.00    +0.167 C 
ATOM      7  C   UNL     1      34.268 -16.582 -24.226  0.00  0.00    +0.272 C 
ATOM      8  H   UNL     1      33.502 -13.327 -25.732  0.00  0.00    +0.165 HD
ATOM      9  H   UNL     1      34.680 -18.509 -23.734  0.00  0.00    +0.146 HD
ATOM     10  H   UNL     1      34.454 -18.229 -25.400  0.00  0.00    +0.146 HD
ENDROOT
BRANCH   1  11
ATOM     11  C   UNL     1      33.425 -12.036 -24.183  0.00  0.00    +0.058 C 
ATOM     12  C   UNL     1      33.074  -9.509 -23.053  0.00  0.00    +0.122 C 
ATOM     13  C   UNL     1      34.197 -10.961 -24.624  0.00  0.00    +0.017 C 
ATOM     14  C   UNL     1      32.478 -11.848 -23.176  0.00  0.00    +0.017 C 
ATOM     15  C   UNL     1      34.021  -9.698 -24.060  0.00  0.00    +0.021 C 
ATOM     16  C   UNL     1      32.303 -10.585 -22.611  0.00  0.00    +0.021 C 
BRANCH  12  17
ATOM     17  S   UNL     1      32.853  -7.928 -22.347  0.00  0.00    +0.057 S 
ATOM     18  O   UNL     1      32.829  -8.071 -20.898  0.00  0.00    -0.153 OA
ATOM     19  O   UNL     1      33.798  -7.009 -22.968  0.00  0.00    -0.153 OA
BRANCH  17  20
ATOM     20  N   UNL     1      31.279  -7.545 -22.889  0.00  0.00    -0.203 NA
ATOM     21  H   UNL     1      31.049  -6.591 -22.615  0.00  0.00    +0.144 HD
ATOM     22  H   UNL     1      30.610  -8.191 -22.470  0.00  0.00    +0.144 HD
ENDBRANCH  17  20
ENDBRANCH  12  17
ENDBRANCH   1  11
BRANCH   2  24
ATOM     23  S   UNL     1      34.671 -16.022 -20.262  0.00  0.00    -0.016 S 
ATOM     24  C   UNL     1      34.559 -16.767 -21.771  0.00  0.00    +0.166 C 
BRANCH  24  25
ATOM     25  N   UNL     1      34.594 -18.140 -22.025  0.00  0.00    -0.291 N 
ATOM     26  H   UNL     1      34.409 -18.387 -22.960  0.00  0.00    +0.154 HD
BRANCH  25  29
ATOM     27  F   UNL     1      37.187 -18.851 -21.344  0.00  0.00    -0.203 F 
ATOM     28  F   UNL     1      32.520 -19.648 -20.966  0.00  0.00    -0.203 F 
ATOM     29  C   UNL     1      34.852 -19.240 -21.163  0.00  0.00    +0.105 C 
ATOM     30  C   UNL     1      36.160 -19.557 -20.852  0.00  0.00    +0.156 C 
ATOM     31  C   UNL     1      33.786 -19.963 -20.660  0.00  0.00    +0.156 C 
ATOM     32  C   UNL     1      36.413 -20.637 -20.006  0.00  0.00    +0.031 C 
ATOM     33  C   UNL     1      34.039 -21.042 -19.814  0.00  0.00    +0.031 C 
ATOM     34  C   UNL     1      35.352 -21.379 -19.487  0.00  0.00    +0.005 C 
ENDBRANCH  25  29
ENDBRANCH  24  25
ENDBRANCH   2  24
TORSDOF 6
ENDMDL
MODEL 4
REMARK VINA RESULT:     -10.6      4.449      8.751
REMARK  Name = 5330812
REMARK  6 active torsions:
REMARK  status: ('A' for Active; 'I' for Inactive)
REMARK    1  A    between atoms: N_1  and  C_11
REMARK    2  A    between atoms: N_2  and  C_24
REMARK    3  A    between atoms: C_12  and  S_17
REMARK    4  A    between atoms: S_17  and  N_20
REMARK    5  A    between atoms: C_24  and  N_25
REMARK    6  A    between atoms: N_25  and  C_29
REMARK                            x       y       z     vdW  Elec       q    Type
REMARK                         _______ _______ _______ _____ _____    ______ ____
ROOT
ATOM      1  N   UNL     1      32.563 -22.514 -18.023  0.00  0.00    -0.246 N 
ATOM      2  N   UNL     1      33.840 -23.982 -15.241  0.00  0.00    -0.120 N 
ATOM      3  N   UNL     1      34.082 -23.193 -16.298  0.00  0.00    -0.089 NA
ATOM      4  N   UNL     1      31.910 -23.911 -16.261  0.00  0.00    -0.304 NA
ATOM      5  N   UNL     1      32.100 -25.213 -14.238  0.00  0.00    -0.319 N 
ATOM      6  C   UNL     1      32.894 -23.205 -16.842  0.00  0.00    +0.167 C 
ATOM      7  C   UNL     1      32.548 -24.404 -15.225  0.00  0.00    +0.272 C 
ATOM      8  H   UNL     1      31.625 -22.627 -18.298  0.00  0.00    +0.165 HD
ATOM      9  H   UNL     1      32.711 -25.500 -13.522  0.00  0.00    +0.146 HD
ATOM     10  H   UNL     1      31.163 -25.513 -14.235  0.00  0.00    +0.146 HD
ENDROOT
BRANCH   1  11
ATOM     11  C   UNL     1      33.312 -21.693 -18.890  0.00  0.00    +0.058 C 
ATOM     12  C   UNL     1      34.794 -20.066 -20.606  0.00  0.00    +0.122 C 
ATOM     13  C   UNL     1      32.666 -20.742 -19.682  0.00  0.00    +0.017 C 
ATOM     14  C   UNL     1      34.699 -21.830 -18.958  0.00  0.00    +0.017 C 
ATOM     15  C   UNL     1      33.408 -19.928 -20.538  0.00  0.00    +0.021 C 
ATOM     16  C   UNL     1      35.439 -21.018 -19.815  0.00  0.00    +0.021 C 
BRANCH  12  17
ATOM     17  S   UNL     1      35.721 -19.048 -21.679  0.00  0.00    +0.057 S 
ATOM     18  O   UNL     1      37.128 -19.160 -21.317  0.00  0.00    -0.153 OA
ATOM     19  O   UNL     1      35.303 -19.317 -23.048  0.00  0.00    -0.153 OA
BRANCH  17  20
ATOM     20  N   UNL     1      35.157 -17.500 -21.227  0.00  0.00    -0.203 NA
ATOM     21  H   UNL     1      35.635 -16.790 -21.782  0.00  0.00    +0.144 HD
ATOM     22  H   UNL     1      35.349 -17.344 -20.237  0.00  0.00    +0.144 HD
ENDBRANCH  17  20
ENDBRANCH  12  17
ENDBRANCH   1  11
BRANCH   2  24
ATOM     23  S   UNL     1      34.902 -23.736 -12.753  0.00  0.00    -0.016 S 
ATOM     24  C   UNL     1      34.865 -24.249 -14.359  0.00  0.00    +0.166 C 
BRANCH  24  25
ATOM     25  N   UNL     1      35.790 -25.087 -14.985  0.00  0.00    -0.291 N 
ATOM     26  H   UNL     1      35.393 -25.750 -15.596  0.00  0.00    +0.154 HD
BRANCH  25  29
ATOM     27  F   UNL     1      37.378 -23.057 -16.010  0.00  0.00    -0.203 F 
ATOM     28  F   UNL     1      37.059 -27.234 -13.770  0.00  0.00    -0.203 F 
ATOM     29  C   UNL     1      37.207 -25.145 -14.891  0.00  0.00    +0.105 C 
ATOM     30  C   UNL     1      37.957 -24.110 -15.416  0.00  0.00    +0.156 C 
ATOM     31  C   UNL     1      37.795 -26.235 -14.277  0.00  0.00    +0.156 C 
ATOM     32  C   UNL     1      39.348 -24.167 -15.324  0.00  0.00    +0.031 C 
ATOM     33  C   UNL     1      39.185 -26.291 -14.185  0.00  0.00    +0.031 C 
ATOM     34  C   UNL     1      39.962 -25.258 -14.708  0.00  0.00    +0.005 C 
ENDBRANCH  25  29
ENDBRANCH  24  25
ENDBRANCH   2  24
TORSDOF 6
ENDMDL
MODEL 5
REMARK VINA RESULT:     -10.5      7.421     11.710
REMARK  Name = 5330812
REMARK  6 active torsions:
REMARK  status: ('A' for Active; 'I' for Inactive)
REMARK    1  A    between atoms: N_1  and  C_11
REMARK    2  A    between atoms: N_2  and  C_24
REMARK    3  A    between atoms: C_12  and  S_17
REMARK    4  A    between atoms: S_17  and  N_20
REMARK    5  A    between atoms: C_24  and  N_25
REMARK    6  A    between atoms: N_25  and  C_29
REMARK                            x       y       z     vdW  Elec       q    Type
REMARK                         _______ _______ _______ _____ _____    ______ ____
ROOT
ATOM      1  N   UNL     1      33.494 -13.543 -24.698  0.00  0.00    -0.246 N 
ATOM      2  N   UNL     1      34.300 -16.318 -22.914  0.00  0.00    -0.120 N 
ATOM      3  N   UNL     1      34.006 -15.009 -22.872  0.00  0.00    -0.089 NA
ATOM      4  N   UNL     1      33.982 -15.811 -25.015  0.00  0.00    -0.304 NA
ATOM      5  N   UNL     1      34.556 -18.086 -24.449  0.00  0.00    -0.319 N 
ATOM      6  C   UNL     1      33.834 -14.795 -24.149  0.00  0.00    +0.167 C 
ATOM      7  C   UNL     1      34.284 -16.787 -24.190  0.00  0.00    +0.272 C 
ATOM      8  H   UNL     1      33.401 -13.553 -25.677  0.00  0.00    +0.165 HD
ATOM      9  H   UNL     1      34.768 -18.701 -23.711  0.00  0.00    +0.146 HD
ATOM     10  H   UNL     1      34.542 -18.416 -25.376  0.00  0.00    +0.146 HD
ENDROOT
BRANCH   1  11
ATOM     11  C   UNL     1      33.262 -12.279 -24.118  0.00  0.00    +0.058 C 
ATOM     12  C   UNL     1      32.802  -9.777 -22.971  0.00  0.00    +0.122 C 
ATOM     13  C   UNL     1      32.342 -12.147 -23.077  0.00  0.00    +0.017 C 
ATOM     14  C   UNL     1      33.951 -11.159 -24.586  0.00  0.00    +0.017 C 
ATOM     15  C   UNL     1      32.114 -10.896 -22.504  0.00  0.00    +0.021 C 
ATOM     16  C   UNL     1      33.721  -9.909 -24.013  0.00  0.00    +0.021 C 
BRANCH  12  17
ATOM     17  S   UNL     1      32.516  -8.212 -22.253  0.00  0.00    +0.057 S 
ATOM     18  O   UNL     1      33.714  -7.402 -22.421  0.00  0.00    -0.153 OA
ATOM     19  O   UNL     1      31.232  -7.714 -22.729  0.00  0.00    -0.153 OA
BRANCH  17  20
ATOM     20  N   UNL     1      32.362  -8.634 -20.604  0.00  0.00    -0.203 NA
ATOM     21  H   UNL     1      32.931  -9.457 -20.410  0.00  0.00    +0.144 HD
ATOM     22  H   UNL     1      31.385  -8.838 -20.396  0.00  0.00    +0.144 HD
ENDBRANCH  17  20
ENDBRANCH  12  17
ENDBRANCH   1  11
BRANCH   2  24
ATOM     23  S   UNL     1      34.823 -16.223 -20.251  0.00  0.00    -0.016 S 
ATOM     24  C   UNL     1      34.566 -16.980 -21.735  0.00  0.00    +0.166 C 
BRANCH  24  25
ATOM     25  N   UNL     1      34.480 -18.355 -21.963  0.00  0.00    -0.291 N 
ATOM     26  H   UNL     1      34.251 -18.602 -22.889  0.00  0.00    +0.154 HD
BRANCH  25  29
ATOM     27  F   UNL     1      32.318 -19.788 -20.979  0.00  0.00    -0.203 F 
ATOM     28  F   UNL     1      37.021 -19.148 -21.182  0.00  0.00    -0.203 F 
ATOM     29  C   UNL     1      34.668 -19.458 -21.087  0.00  0.00    +0.105 C 
ATOM     30  C   UNL     1      33.561 -20.142 -20.622  0.00  0.00    +0.156 C 
ATOM     31  C   UNL     1      35.953 -19.817 -20.725  0.00  0.00    +0.156 C 
ATOM     32  C   UNL     1      33.745 -21.225 -19.762  0.00  0.00    +0.031 C 
ATOM     33  C   UNL     1      36.137 -20.900 -19.866  0.00  0.00    +0.031 C 
ATOM     34  C   UNL     1      35.034 -21.604 -19.384  0.00  0.00    +0.005 C 
ENDBRANCH  25  29
ENDBRANCH  24  25
ENDBRANCH   2  24
TORSDOF 6
ENDMDL
MODEL 6
REMARK VINA RESULT:     -10.3      3.391      4.445
REMARK  Name = 5330812
REMARK  6 active torsions:
REMARK  status: ('A' for Active; 'I' for Inactive)
REMARK    1  A    between atoms: N_1  and  C_11
REMARK    2  A    between atoms: N_2  and  C_24
REMARK    3  A    between atoms: C_12  and  S_17
REMARK    4  A    between atoms: S_17  and  N_20
REMARK    5  A    between atoms: C_24  and  N_25
REMARK    6  A    between atoms: N_25  and  C_29
REMARK                            x       y       z     vdW  Elec       q    Type
REMARK                         _______ _______ _______ _____ _____    ______ ____
ROOT
ATOM      1  N   UNL     1      35.110 -22.763 -17.202  0.00  0.00    -0.246 N 
ATOM      2  N   UNL     1      34.995 -20.732 -19.922  0.00  0.00    -0.120 N 
ATOM      3  N   UNL     1      34.293 -21.362 -18.967  0.00  0.00    -0.089 NA
ATOM      4  N   UNL     1      36.537 -21.762 -18.766  0.00  0.00    -0.304 NA
ATOM      5  N   UNL     1      37.211 -20.430 -20.662  0.00  0.00    -0.319 N 
ATOM      6  C   UNL     1      35.278 -21.942 -18.335  0.00  0.00    +0.167 C 
ATOM      7  C   UNL     1      36.327 -20.974 -19.795  0.00  0.00    +0.272 C 
ATOM      8  H   UNL     1      35.954 -23.121 -16.845  0.00  0.00    +0.165 HD
ATOM      9  H   UNL     1      36.891 -19.852 -21.392  0.00  0.00    +0.146 HD
ATOM     10  H   UNL     1      38.173 -20.611 -20.563  0.00  0.00    +0.146 HD
ENDROOT
BRANCH   1  11
ATOM     11  C   UNL     1      33.970 -23.172 -16.481  0.00  0.00    +0.058 C 
ATOM     12  C   UNL     1      31.713 -23.982 -15.054  0.00  0.00    +0.122 C 
ATOM     13  C   UNL     1      32.708 -23.104 -17.074  0.00  0.00    +0.017 C 
ATOM     14  C   UNL     1      34.102 -23.644 -15.175  0.00  0.00    +0.017 C 
ATOM     15  C   UNL     1      31.581 -23.510 -16.360  0.00  0.00    +0.021 C 
ATOM     16  C   UNL     1      32.974 -24.048 -14.462  0.00  0.00    +0.021 C 
BRANCH  12  17
ATOM     17  S   UNL     1      30.301 -24.489 -14.162  0.00  0.00    +0.057 S 
ATOM     18  O   UNL     1      30.628 -24.487 -12.744  0.00  0.00    -0.153 OA
ATOM     19  O   UNL     1      29.154 -23.730 -14.642  0.00  0.00    -0.153 OA
BRANCH  17  20
ATOM     20  N   UNL     1      30.146 -26.107 -14.689  0.00  0.00    -0.203 NA
ATOM     21  H   UNL     1      29.602 -26.133 -15.551  0.00  0.00    +0.144 HD
ATOM     22  H   UNL     1      29.672 -26.654 -13.971  0.00  0.00    +0.144 HD
ENDBRANCH  17  20
ENDBRANCH  12  17
ENDBRANCH   1  11
BRANCH   2  24
ATOM     23  S   UNL     1      32.649 -19.766 -20.890  0.00  0.00    -0.016 S 
ATOM     24  C   UNL     1      34.323 -19.968 -20.850  0.00  0.00    +0.166 C 
BRANCH  24  25
ATOM     25  N   UNL     1      35.258 -19.324 -21.664  0.00  0.00    -0.291 N 
ATOM     26  H   UNL     1      36.187 -19.624 -21.535  0.00  0.00    +0.154 HD
BRANCH  25  29
ATOM     27  F   UNL     1      34.961 -19.964 -24.346  0.00  0.00    -0.203 F 
ATOM     28  F   UNL     1      35.227 -16.640 -20.964  0.00  0.00    -0.203 F 
ATOM     29  C   UNL     1      35.096 -18.311 -22.647  0.00  0.00    +0.105 C 
ATOM     30  C   UNL     1      34.951 -18.677 -23.972  0.00  0.00    +0.156 C 
ATOM     31  C   UNL     1      35.087 -16.986 -22.251  0.00  0.00    +0.156 C 
ATOM     32  C   UNL     1      34.791 -17.683 -24.936  0.00  0.00    +0.031 C 
ATOM     33  C   UNL     1      34.926 -15.992 -23.216  0.00  0.00    +0.031 C 
ATOM     34  C   UNL     1      34.779 -16.340 -24.558  0.00  0.00    +0.005 C 
ENDBRANCH  25  29
ENDBRANCH  24  25
ENDBRANCH   2  24
TORSDOF 6
ENDMDL
MODEL 7
REMARK VINA RESULT:     -10.3      3.393      4.154
REMARK  Name = 5330812
REMARK  6 active torsions:
REMARK  status: ('A' for Active; 'I' for Inactive)
REMARK    1  A    between atoms: N_1  and  C_11
REMARK    2  A    between atoms: N_2  and  C_24
REMARK    3  A    between atoms: C_12  and  S_17
REMARK    4  A    between atoms: S_17  and  N_20
REMARK    5  A    between atoms: C_24  and  N_25
REMARK    6  A    between atoms: N_25  and  C_29
REMARK                            x       y       z     vdW  Elec       q    Type
REMARK                         _______ _______ _______ _____ _____    ______ ____
ROOT
ATOM      1  N   UNL     1      35.107 -22.759 -17.193  0.00  0.00    -0.246 N 
ATOM      2  N   UNL     1      34.993 -20.745 -19.924  0.00  0.00    -0.120 N 
ATOM      3  N   UNL     1      34.291 -21.373 -18.969  0.00  0.00    -0.089 NA
ATOM      4  N   UNL     1      36.535 -21.760 -18.756  0.00  0.00    -0.304 NA
ATOM      5  N   UNL     1      37.210 -20.434 -20.656  0.00  0.00    -0.319 N 
ATOM      6  C   UNL     1      35.275 -21.944 -18.329  0.00  0.00    +0.167 C 
ATOM      7  C   UNL     1      36.326 -20.979 -19.790  0.00  0.00    +0.272 C 
ATOM      8  H   UNL     1      35.951 -23.110 -16.829  0.00  0.00    +0.165 HD
ATOM      9  H   UNL     1      36.891 -19.863 -21.391  0.00  0.00    +0.146 HD
ATOM     10  H   UNL     1      38.173 -20.610 -20.552  0.00  0.00    +0.146 HD
ENDROOT
BRANCH   1  11
ATOM     11  C   UNL     1      33.966 -23.170 -16.474  0.00  0.00    +0.058 C 
ATOM     12  C   UNL     1      31.707 -23.984 -15.052  0.00  0.00    +0.122 C 
ATOM     13  C   UNL     1      34.100 -23.667 -15.177  0.00  0.00    +0.017 C 
ATOM     14  C   UNL     1      32.703 -23.082 -17.060  0.00  0.00    +0.017 C 
ATOM     15  C   UNL     1      32.970 -24.073 -14.466  0.00  0.00    +0.021 C 
ATOM     16  C   UNL     1      31.574 -23.489 -16.349  0.00  0.00    +0.021 C 
BRANCH  12  17
ATOM     17  S   UNL     1      30.295 -24.493 -14.161  0.00  0.00    +0.057 S 
ATOM     18  O   UNL     1      30.615 -24.475 -12.741  0.00  0.00    -0.153 OA
ATOM     19  O   UNL     1      29.145 -23.745 -14.653  0.00  0.00    -0.153 OA
BRANCH  17  20
ATOM     20  N   UNL     1      30.153 -26.117 -14.674  0.00  0.00    -0.203 NA
ATOM     21  H   UNL     1      29.664 -26.148 -15.568  0.00  0.00    +0.144 HD
ATOM     22  H   UNL     1      29.627 -26.647 -13.979  0.00  0.00    +0.144 HD
ENDBRANCH  17  20
ENDBRANCH  12  17
ENDBRANCH   1  11
BRANCH   2  24
ATOM     23  S   UNL     1      32.647 -19.792 -20.906  0.00  0.00    -0.016 S 
ATOM     24  C   UNL     1      34.321 -19.989 -20.860  0.00  0.00    +0.166 C 
BRANCH  24  25
ATOM     25  N   UNL     1      35.256 -19.349 -21.676  0.00  0.00    -0.291 N 
ATOM     26  H   UNL     1      36.183 -19.663 -21.560  0.00  0.00    +0.154 HD
BRANCH  25  29
ATOM     27  F   UNL     1      35.258 -16.673 -20.947  0.00  0.00    -0.203 F 
ATOM     28  F   UNL     1      34.936 -19.956 -24.365  0.00  0.00    -0.203 F 
ATOM     29  C   UNL     1      35.098 -18.323 -22.647  0.00  0.00    +0.105 C 
ATOM     30  C   UNL     1      35.105 -17.004 -22.237  0.00  0.00    +0.156 C 
ATOM     31  C   UNL     1      34.940 -18.674 -23.975  0.00  0.00    +0.156 C 
ATOM     32  C   UNL     1      34.950 -15.997 -23.189  0.00  0.00    +0.031 C 
ATOM     33  C   UNL     1      34.786 -17.667 -24.927  0.00  0.00    +0.031 C 
ATOM     34  C   UNL     1      34.790 -16.329 -24.535  0.00  0.00    +0.005 C 
ENDBRANCH  25  29
ENDBRANCH  24  25
ENDBRANCH   2  24
TORSDOF 6
ENDMDL
MODEL 8
REMARK VINA RESULT:     -10.2      4.779      8.667
REMARK  Name = 5330812
REMARK  6 active torsions:
REMARK  status: ('A' for Active; 'I' for Inactive)
REMARK    1  A    between atoms: N_1  and  C_11
REMARK    2  A    between atoms: N_2  and  C_24
REMARK    3  A    between atoms: C_12  and  S_17
REMARK    4  A    between atoms: S_17  and  N_20
REMARK    5  A    between atoms: C_24  and  N_25
REMARK    6  A    between atoms: N_25  and  C_29
REMARK                            x       y       z     vdW  Elec       q    Type
REMARK                         _______ _______ _______ _____ _____    ______ ____
ROOT
ATOM      1  N   UNL     1      37.362 -22.211 -17.424  0.00  0.00    -0.246 N 
ATOM      2  N   UNL     1      36.056 -23.717 -14.675  0.00  0.00    -0.120 N 
ATOM      3  N   UNL     1      35.802 -23.036 -15.802  0.00  0.00    -0.089 NA
ATOM      4  N   UNL     1      38.044 -23.383 -15.515  0.00  0.00    -0.304 NA
ATOM      5  N   UNL     1      37.857 -24.589 -13.433  0.00  0.00    -0.319 N 
ATOM      6  C   UNL     1      37.025 -22.882 -16.232  0.00  0.00    +0.167 C 
ATOM      7  C   UNL     1      37.390 -23.920 -14.511  0.00  0.00    +0.272 C 
ATOM      8  H   UNL     1      38.330 -22.184 -17.603  0.00  0.00    +0.165 HD
ATOM      9  H   UNL     1      37.230 -24.935 -12.759  0.00  0.00    +0.146 HD
ATOM     10  H   UNL     1      38.825 -24.731 -13.323  0.00  0.00    +0.146 HD
ENDROOT
BRANCH   1  11
ATOM     11  C   UNL     1      36.585 -21.570 -18.410  0.00  0.00    +0.058 C 
ATOM     12  C   UNL     1      35.046 -20.301 -20.361  0.00  0.00    +0.122 C 
ATOM     13  C   UNL     1      35.268 -21.973 -18.631  0.00  0.00    +0.017 C 
ATOM     14  C   UNL     1      37.133 -20.533 -19.165  0.00  0.00    +0.017 C 
ATOM     15  C   UNL     1      34.499 -21.338 -19.606  0.00  0.00    +0.021 C 
ATOM     16  C   UNL     1      36.364 -19.899 -20.141  0.00  0.00    +0.021 C 
BRANCH  12  17
ATOM     17  S   UNL     1      34.083 -19.507 -21.581  0.00  0.00    +0.057 S 
ATOM     18  O   UNL     1      34.717 -19.715 -22.875  0.00  0.00    -0.153 OA
ATOM     19  O   UNL     1      32.690 -19.886 -21.389  0.00  0.00    -0.153 OA
BRANCH  17  20
ATOM     20  N   UNL     1      34.272 -17.869 -21.132  0.00  0.00    -0.203 NA
ATOM     21  H   UNL     1      34.681 -17.350 -21.908  0.00  0.00    +0.144 HD
ATOM     22  H   UNL     1      34.887 -17.810 -20.320  0.00  0.00    +0.144 HD
ENDBRANCH  17  20
ENDBRANCH  12  17
ENDBRANCH   1  11
BRANCH   2  24
ATOM     23  S   UNL     1      34.940 -23.882 -12.204  0.00  0.00    -0.016 S 
ATOM     24  C   UNL     1      35.002 -24.102 -13.875  0.00  0.00    +0.166 C 
BRANCH  24  25
ATOM     25  N   UNL     1      33.979 -24.596 -14.687  0.00  0.00    -0.291 N 
ATOM     26  H   UNL     1      34.250 -25.328 -15.287  0.00  0.00    +0.154 HD
BRANCH  25  29
ATOM     27  F   UNL     1      32.090 -25.540 -12.888  0.00  0.00    -0.203 F 
ATOM     28  F   UNL     1      33.110 -22.896 -16.700  0.00  0.00    -0.203 F 
ATOM     29  C   UNL     1      32.612 -24.222 -14.793  0.00  0.00    +0.105 C 
ATOM     30  C   UNL     1      31.706 -24.717 -13.874  0.00  0.00    +0.156 C 
ATOM     31  C   UNL     1      32.225 -23.372 -15.813  0.00  0.00    +0.156 C 
ATOM     32  C   UNL     1      30.365 -24.350 -13.978  0.00  0.00    +0.031 C 
ATOM     33  C   UNL     1      30.884 -23.005 -15.917  0.00  0.00    +0.031 C 
ATOM     34  C   UNL     1      29.954 -23.493 -15.000  0.00  0.00    +0.005 C 
ENDBRANCH  25  29
ENDBRANCH  24  25
ENDBRANCH   2  24
TORSDOF 6
ENDMDL
MODEL 9
REMARK VINA RESULT:     -10.2      4.779      8.674
REMARK  Name = 5330812
REMARK  6 active torsions:
REMARK  status: ('A' for Active; 'I' for Inactive)
REMARK    1  A    between atoms: N_1  and  C_11
REMARK    2  A    between atoms: N_2  and  C_24
REMARK    3  A    between atoms: C_12  and  S_17
REMARK    4  A    between atoms: S_17  and  N_20
REMARK    5  A    between atoms: C_24  and  N_25
REMARK    6  A    between atoms: N_25  and  C_29
REMARK                            x       y       z     vdW  Elec       q    Type
REMARK                         _______ _______ _______ _____ _____    ______ ____
ROOT
ATOM      1  N   UNL     1      37.362 -22.214 -17.417  0.00  0.00    -0.246 N 
ATOM      2  N   UNL     1      36.049 -23.718 -14.671  0.00  0.00    -0.120 N 
ATOM      3  N   UNL     1      35.798 -23.036 -15.799  0.00  0.00    -0.089 NA
ATOM      4  N   UNL     1      38.039 -23.387 -15.508  0.00  0.00    -0.304 NA
ATOM      5  N   UNL     1      37.847 -24.592 -13.425  0.00  0.00    -0.319 N 
ATOM      6  C   UNL     1      37.023 -22.884 -16.226  0.00  0.00    +0.167 C 
ATOM      7  C   UNL     1      37.383 -23.923 -14.505  0.00  0.00    +0.272 C 
ATOM      8  H   UNL     1      38.330 -22.189 -17.595  0.00  0.00    +0.165 HD
ATOM      9  H   UNL     1      37.218 -24.937 -12.752  0.00  0.00    +0.146 HD
ATOM     10  H   UNL     1      38.814 -24.735 -13.314  0.00  0.00    +0.146 HD
ENDROOT
BRANCH   1  11
ATOM     11  C   UNL     1      36.588 -21.572 -18.405  0.00  0.00    +0.058 C 
ATOM     12  C   UNL     1      35.054 -20.301 -20.359  0.00  0.00    +0.122 C 
ATOM     13  C   UNL     1      35.271 -21.974 -18.629  0.00  0.00    +0.017 C 
ATOM     14  C   UNL     1      37.138 -20.535 -19.159  0.00  0.00    +0.017 C 
ATOM     15  C   UNL     1      34.504 -21.338 -19.605  0.00  0.00    +0.021 C 
ATOM     16  C   UNL     1      36.372 -19.900 -20.135  0.00  0.00    +0.021 C 
BRANCH  12  17
ATOM     17  S   UNL     1      34.094 -19.506 -21.581  0.00  0.00    +0.057 S 
ATOM     18  O   UNL     1      34.731 -19.715 -22.874  0.00  0.00    -0.153 OA
ATOM     19  O   UNL     1      32.700 -19.883 -21.391  0.00  0.00    -0.153 OA
BRANCH  17  20
ATOM     20  N   UNL     1      34.285 -17.868 -21.131  0.00  0.00    -0.203 NA
ATOM     21  H   UNL     1      33.746 -17.277 -21.764  0.00  0.00    +0.144 HD
ATOM     22  H   UNL     1      35.272 -17.614 -21.186  0.00  0.00    +0.144 HD
ENDBRANCH  17  20
ENDBRANCH  12  17
ENDBRANCH   1  11
BRANCH   2  24
ATOM     23  S   UNL     1      34.928 -23.878 -12.202  0.00  0.00    -0.016 S 
ATOM     24  C   UNL     1      34.993 -24.101 -13.872  0.00  0.00    +0.166 C 
BRANCH  24  25
ATOM     25  N   UNL     1      33.971 -24.595 -14.685  0.00  0.00    -0.291 N 
ATOM     26  H   UNL     1      34.244 -25.330 -15.282  0.00  0.00    +0.154 HD
BRANCH  25  29
ATOM     27  F   UNL     1      33.112 -22.899 -16.704  0.00  0.00    -0.203 F 
ATOM     28  F   UNL     1      32.075 -25.535 -12.892  0.00  0.00    -0.203 F 
ATOM     29  C   UNL     1      32.605 -24.220 -14.797  0.00  0.00    +0.105 C 
ATOM     30  C   UNL     1      32.223 -23.372 -15.819  0.00  0.00    +0.156 C 
ATOM     31  C   UNL     1      31.696 -24.713 -13.880  0.00  0.00    +0.156 C 
ATOM     32  C   UNL     1      30.883 -23.003 -15.929  0.00  0.00    +0.031 C 
ATOM     33  C   UNL     1      30.356 -24.345 -13.990  0.00  0.00    +0.031 C 
ATOM     34  C   UNL     1      29.949 -23.490 -15.014  0.00  0.00    +0.005 C 
ENDBRANCH  25  29
ENDBRANCH  24  25
ENDBRANCH   2  24
TORSDOF 6
ENDMDL
