MODEL 1
REMARK VINA RESULT:      -7.4      0.000      0.000
REMARK  Name = 64783
REMARK  0 active torsions:
REMARK  status: ('A' for Active; 'I' for Inactive)
REMARK                            x       y       z     vdW  Elec       q    Type
REMARK                         _______ _______ _______ _____ _____    ______ ____
ROOT
ATOM      1 CL   UNL     1      34.532 -14.569 -20.878  0.00  0.00    -0.060 Cl
ATOM      2  S   UNL     1      35.459 -18.524 -21.247  0.00  0.00    +0.101 S 
ATOM      3  O   UNL     1      34.457 -19.469 -20.800  0.00  0.00    -0.146 OA
ATOM      4  O   UNL     1      36.868 -18.858 -21.296  0.00  0.00    -0.146 OA
ATOM      5  N   UNL     1      35.232 -17.052 -20.532  0.00  0.00    -0.116 NA
ATOM      6  C   UNL     1      34.997 -17.990 -22.835  0.00  0.00    +0.131 C 
ATOM      7  C   UNL     1      34.668 -16.645 -22.777  0.00  0.00    +0.049 C 
ATOM      8  C   UNL     1      34.947 -18.730 -23.993  0.00  0.00    +0.021 C 
ATOM      9  C   UNL     1      34.830 -16.166 -21.401  0.00  0.00    +0.161 C 
ATOM     10  C   UNL     1      34.263 -15.967 -23.909  0.00  0.00    +0.004 C 
ATOM     11  C   UNL     1      34.539 -18.058 -25.147  0.00  0.00    +0.001 C 
ATOM     12  C   UNL     1      34.201 -16.691 -25.106  0.00  0.00    +0.000 C 
ENDROOT
TORSDOF 0
ENDMDL
MODEL 2
REMARK VINA RESULT:      -7.2      2.112      3.283
REMARK  Name = 64783
REMARK  0 active torsions:
REMARK  status: ('A' for Active; 'I' for Inactive)
REMARK                            x       y       z     vdW  Elec       q    Type
REMARK                         _______ _______ _______ _____ _____    ______ ____
ROOT
ATOM      1 CL   UNL     1      34.649 -18.102 -25.306  0.00  0.00    -0.060 Cl
ATOM      2  S   UNL     1      34.856 -18.750 -21.285  0.00  0.00    +0.101 S 
ATOM      3  O   UNL     1      36.175 -18.987 -20.733  0.00  0.00    -0.146 OA
ATOM      4  O   UNL     1      33.653 -19.240 -20.644  0.00  0.00    -0.146 OA
ATOM      5  N   UNL     1      34.834 -19.084 -22.903  0.00  0.00    -0.116 NA
ATOM      6  C   UNL     1      34.677 -17.033 -21.485  0.00  0.00    +0.131 C 
ATOM      7  C   UNL     1      34.600 -16.746 -22.837  0.00  0.00    +0.049 C 
ATOM      8  C   UNL     1      34.615 -16.071 -20.503  0.00  0.00    +0.021 C 
ATOM      9  C   UNL     1      34.698 -17.992 -23.604  0.00  0.00    +0.161 C 
ATOM     10  C   UNL     1      34.454 -15.445 -23.276  0.00  0.00    +0.004 C 
ATOM     11  C   UNL     1      34.467 -14.751 -20.931  0.00  0.00    +0.001 C 
ATOM     12  C   UNL     1      34.388 -14.441 -22.303  0.00  0.00    +0.000 C 
ENDROOT
TORSDOF 0
ENDMDL
MODEL 3
REMARK VINA RESULT:      -7.0      2.585      3.113
REMARK  Name = 64783
REMARK  0 active torsions:
REMARK  status: ('A' for Active; 'I' for Inactive)
REMARK                            x       y       z     vdW  Elec       q    Type
REMARK                         _______ _______ _______ _____ _____    ______ ____
ROOT
ATOM      1 CL   UNL     1      36.249 -19.148 -21.033  0.00  0.00    -0.060 Cl
ATOM      2  S   UNL     1      34.280 -15.576 -21.031  0.00  0.00    +0.101 S 
ATOM      3  O   UNL     1      35.098 -14.385 -20.922  0.00  0.00    -0.146 OA
ATOM      4  O   UNL     1      32.893 -15.600 -20.614  0.00  0.00    -0.146 OA
ATOM      5  N   UNL     1      35.089 -16.893 -20.446  0.00  0.00    -0.116 NA
ATOM      6  C   UNL     1      34.333 -16.092 -22.689  0.00  0.00    +0.131 C 
ATOM      7  C   UNL     1      34.994 -17.308 -22.758  0.00  0.00    +0.049 C 
ATOM      8  C   UNL     1      33.823 -15.446 -23.791  0.00  0.00    +0.021 C 
ATOM      9  C   UNL     1      35.405 -17.713 -21.410  0.00  0.00    +0.161 C 
ATOM     10  C   UNL     1      35.175 -17.946 -23.969  0.00  0.00    +0.004 C 
ATOM     11  C   UNL     1      33.999 -16.079 -25.023  0.00  0.00    +0.001 C 
ATOM     12  C   UNL     1      34.669 -17.315 -25.111  0.00  0.00    +0.000 C 
ENDROOT
TORSDOF 0
ENDMDL
MODEL 4
REMARK VINA RESULT:      -6.9     11.658     12.364
REMARK  Name = 64783
REMARK  0 active torsions:
REMARK  status: ('A' for Active; 'I' for Inactive)
REMARK                            x       y       z     vdW  Elec       q    Type
REMARK                         _______ _______ _______ _____ _____    ______ ____
ROOT
ATOM      1 CL   UNL     1      33.412 -23.421 -14.493  0.00  0.00    -0.060 Cl
ATOM      2  S   UNL     1      35.833 -24.331 -11.339  0.00  0.00    +0.101 S 
ATOM      3  O   UNL     1      35.339 -25.326 -10.409  0.00  0.00    -0.146 OA
ATOM      4  O   UNL     1      36.798 -23.323 -10.950  0.00  0.00    -0.146 OA
ATOM      5  N   UNL     1      34.584 -23.651 -12.180  0.00  0.00    -0.116 NA
ATOM      6  C   UNL     1      36.489 -25.179 -12.707  0.00  0.00    +0.131 C 
ATOM      7  C   UNL     1      35.706 -24.909 -13.817  0.00  0.00    +0.049 C 
ATOM      8  C   UNL     1      37.596 -25.994 -12.742  0.00  0.00    +0.021 C 
ATOM      9  C   UNL     1      34.614 -24.010 -13.434  0.00  0.00    +0.161 C 
ATOM     10  C   UNL     1      36.009 -25.461 -15.046  0.00  0.00    +0.004 C 
ATOM     11  C   UNL     1      37.915 -26.560 -13.978  0.00  0.00    +0.001 C 
ATOM     12  C   UNL     1      37.130 -26.296 -15.118  0.00  0.00    +0.000 C 
ENDROOT
TORSDOF 0
ENDMDL
MODEL 5
REMARK VINA RESULT:      -6.8      2.629      2.889
REMARK  Name = 64783
REMARK  0 active torsions:
REMARK  status: ('A' for Active; 'I' for Inactive)
REMARK                            x       y       z     vdW  Elec       q    Type
REMARK                         _______ _______ _______ _____ _____    ______ ____
ROOT
ATOM      1 CL   UNL     1      33.666 -13.218 -24.509  0.00  0.00    -0.060 Cl
ATOM      2  S   UNL     1      33.772 -15.396 -21.061  0.00  0.00    +0.101 S 
ATOM      3  O   UNL     1      32.499 -15.852 -20.543  0.00  0.00    -0.146 OA
ATOM      4  O   UNL     1      34.928 -15.205 -20.209  0.00  0.00    -0.146 OA
ATOM      5  N   UNL     1      33.562 -14.097 -22.061  0.00  0.00    -0.116 NA
ATOM      6  C   UNL     1      34.238 -16.487 -22.332  0.00  0.00    +0.131 C 
ATOM      7  C   UNL     1      34.221 -15.803 -23.536  0.00  0.00    +0.049 C 
ATOM      8  C   UNL     1      34.576 -17.815 -22.221  0.00  0.00    +0.021 C 
ATOM      9  C   UNL     1      33.818 -14.414 -23.300  0.00  0.00    +0.161 C 
ATOM     10  C   UNL     1      34.553 -16.441 -24.715  0.00  0.00    +0.004 C 
ATOM     11  C   UNL     1      34.915 -18.474 -23.404  0.00  0.00    +0.001 C 
ATOM     12  C   UNL     1      34.903 -17.794 -24.638  0.00  0.00    +0.000 C 
ENDROOT
TORSDOF 0
ENDMDL
MODEL 6
REMARK VINA RESULT:      -6.6      4.723      5.323
REMARK  Name = 64783
REMARK  0 active torsions:
REMARK  status: ('A' for Active; 'I' for Inactive)
REMARK                            x       y       z     vdW  Elec       q    Type
REMARK                         _______ _______ _______ _____ _____    ______ ____
ROOT
ATOM      1 CL   UNL     1      33.170 -23.168 -17.798  0.00  0.00    -0.060 Cl
ATOM      2  S   UNL     1      36.519 -21.323 -19.219  0.00  0.00    +0.101 S 
ATOM      3  O   UNL     1      37.276 -22.039 -20.226  0.00  0.00    -0.146 OA
ATOM      4  O   UNL     1      37.128 -20.330 -18.358  0.00  0.00    -0.146 OA
ATOM      5  N   UNL     1      35.587 -22.367 -18.340  0.00  0.00    -0.116 NA
ATOM      6  C   UNL     1      35.177 -20.564 -20.020  0.00  0.00    +0.131 C 
ATOM      7  C   UNL     1      34.003 -21.150 -19.578  0.00  0.00    +0.049 C 
ATOM      8  C   UNL     1      35.213 -19.548 -20.947  0.00  0.00    +0.021 C 
ATOM      9  C   UNL     1      34.320 -22.193 -18.599  0.00  0.00    +0.161 C 
ATOM     10  C   UNL     1      32.779 -20.729 -20.060  0.00  0.00    +0.004 C 
ATOM     11  C   UNL     1      33.983 -19.112 -21.443  0.00  0.00    +0.001 C 
ATOM     12  C   UNL     1      32.779 -19.696 -21.005  0.00  0.00    +0.000 C 
ENDROOT
TORSDOF 0
ENDMDL
MODEL 7
REMARK VINA RESULT:      -6.6      7.763      8.677
REMARK  Name = 64783
REMARK  0 active torsions:
REMARK  status: ('A' for Active; 'I' for Inactive)
REMARK                            x       y       z     vdW  Elec       q    Type
REMARK                         _______ _______ _______ _____ _____    ______ ____
ROOT
ATOM      1 CL   UNL     1      37.202 -22.237 -16.412  0.00  0.00    -0.060 Cl
ATOM      2  S   UNL     1      33.893 -22.644 -18.762  0.00  0.00    +0.101 S 
ATOM      3  O   UNL     1      33.811 -23.847 -19.564  0.00  0.00    -0.146 OA
ATOM      4  O   UNL     1      33.204 -21.423 -19.129  0.00  0.00    -0.146 OA
ATOM      5  N   UNL     1      35.460 -22.328 -18.344  0.00  0.00    -0.116 NA
ATOM      6  C   UNL     1      33.390 -23.058 -17.150  0.00  0.00    +0.131 C 
ATOM      7  C   UNL     1      34.476 -22.939 -16.299  0.00  0.00    +0.049 C 
ATOM      8  C   UNL     1      32.139 -23.447 -16.730  0.00  0.00    +0.021 C 
ATOM      9  C   UNL     1      35.649 -22.508 -17.066  0.00  0.00    +0.161 C 
ATOM     10  C   UNL     1      34.350 -23.212 -14.951  0.00  0.00    +0.004 C 
ATOM     11  C   UNL     1      31.996 -23.726 -15.370  0.00  0.00    +0.001 C 
ATOM     12  C   UNL     1      33.090 -23.610 -14.490  0.00  0.00    +0.000 C 
ENDROOT
TORSDOF 0
ENDMDL
MODEL 8
REMARK VINA RESULT:      -6.6      4.513      5.213
REMARK  Name = 64783
REMARK  0 active torsions:
REMARK  status: ('A' for Active; 'I' for Inactive)
REMARK                            x       y       z     vdW  Elec       q    Type
REMARK                         _______ _______ _______ _____ _____    ______ ____
ROOT
ATOM      1 CL   UNL     1      31.988 -19.456 -20.651  0.00  0.00    -0.060 Cl
ATOM      2  S   UNL     1      34.078 -22.546 -19.002  0.00  0.00    +0.101 S 
ATOM      3  O   UNL     1      34.154 -23.766 -19.780  0.00  0.00    -0.146 OA
ATOM      4  O   UNL     1      34.213 -22.541 -17.560  0.00  0.00    -0.146 OA
ATOM      5  N   UNL     1      32.781 -21.636 -19.471  0.00  0.00    -0.116 NA
ATOM      6  C   UNL     1      35.267 -21.449 -19.639  0.00  0.00    +0.131 C 
ATOM      7  C   UNL     1      34.616 -20.371 -20.217  0.00  0.00    +0.049 C 
ATOM      8  C   UNL     1      36.636 -21.577 -19.606  0.00  0.00    +0.021 C 
ATOM      9  C   UNL     1      33.167 -20.549 -20.080  0.00  0.00    +0.161 C 
ATOM     10  C   UNL     1      35.332 -19.346 -20.802  0.00  0.00    +0.004 C 
ATOM     11  C   UNL     1      37.373 -20.547 -20.194  0.00  0.00    +0.001 C 
ATOM     12  C   UNL     1      36.728 -19.443 -20.785  0.00  0.00    +0.000 C 
ENDROOT
TORSDOF 0
ENDMDL
MODEL 9
REMARK VINA RESULT:      -6.6      8.870      9.652
REMARK  Name = 64783
REMARK  0 active torsions:
REMARK  status: ('A' for Active; 'I' for Inactive)
REMARK                            x       y       z     vdW  Elec       q    Type
REMARK                         _______ _______ _______ _____ _____    ______ ____
ROOT
ATOM      1 CL   UNL     1      33.454 -22.377 -18.948  0.00  0.00    -0.060 Cl
ATOM      2  S   UNL     1      35.100 -23.791 -15.494  0.00  0.00    +0.101 S 
ATOM      3  O   UNL     1      35.723 -22.813 -14.625  0.00  0.00    -0.146 OA
ATOM      4  O   UNL     1      35.483 -25.188 -15.483  0.00  0.00    -0.146 OA
ATOM      5  N   UNL     1      35.014 -23.221 -17.043  0.00  0.00    -0.116 NA
ATOM      6  C   UNL     1      33.387 -23.719 -15.213  0.00  0.00    +0.131 C 
ATOM      7  C   UNL     1      32.766 -23.243 -16.357  0.00  0.00    +0.049 C 
ATOM      8  C   UNL     1      32.704 -24.063 -14.070  0.00  0.00    +0.021 C 
ATOM      9  C   UNL     1      33.779 -22.975 -17.382  0.00  0.00    +0.161 C 
ATOM     10  C   UNL     1      31.395 -23.087 -16.403  0.00  0.00    +0.004 C 
ATOM     11  C   UNL     1      31.317 -23.911 -14.102  0.00  0.00    +0.001 C 
ATOM     12  C   UNL     1      30.669 -23.428 -15.256  0.00  0.00    +0.000 C 
ENDROOT
TORSDOF 0
ENDMDL
