MODEL 1
REMARK VINA RESULT:      -8.9      0.000      0.000
REMARK  Name = 7180
REMARK  5 active torsions:
REMARK  status: ('A' for Active; 'I' for Inactive)
REMARK    1  A    between atoms: C_2  and  C_3
REMARK    2  A    between atoms: C_2  and  O_11
REMARK    3  A    between atoms: C_8  and  O_9
REMARK    4  A    between atoms: O_11  and  C_12
REMARK    5  A    between atoms: C_12  and  C_13
REMARK                            x       y       z     vdW  Elec       q    Type
REMARK                         _______ _______ _______ _____ _____    ______ ____
ROOT
ATOM      1  O   UNL     1      36.873 -18.583 -21.776  0.00  0.00    -0.245 OA
ATOM      2  C   UNL     1      35.645 -18.686 -21.799  0.00  0.00    +0.342 C 
ENDROOT
BRANCH   2   3
ATOM      3  C   UNL     1      34.907 -19.644 -20.990  0.00  0.00    +0.076 C 
ATOM      4  C   UNL     1      35.588 -20.648 -20.301  0.00  0.00    +0.010 C 
ATOM      5  C   UNL     1      33.518 -19.557 -20.903  0.00  0.00    +0.010 C 
ATOM      6  C   UNL     1      34.880 -21.566 -19.527  0.00  0.00    +0.037 C 
ATOM      7  C   UNL     1      32.809 -20.475 -20.126  0.00  0.00    +0.037 C 
ATOM      8  C   UNL     1      33.490 -21.479 -19.439  0.00  0.00    +0.134 C 
BRANCH   8   9
ATOM      9  O   UNL     1      32.799 -22.375 -18.682  0.00  0.00    -0.506 OA
ATOM     10  H   UNL     1      33.234 -22.842 -17.995  0.00  0.00    +0.292 HD
ENDBRANCH   8   9
ENDBRANCH   2   3
BRANCH   2  11
ATOM     11  O   UNL     1      34.840 -17.907 -22.593  0.00  0.00    -0.440 OA
BRANCH  11  12
ATOM     12  C   UNL     1      35.319 -16.589 -22.883  0.00  0.00    +0.235 C 
BRANCH  12  13
ATOM     13  C   UNL     1      34.288 -15.628 -22.378  0.00  0.00    +0.021 C 
ATOM     14  C   UNL     1      33.924 -15.645 -21.034  0.00  0.00    -0.001 C 
ATOM     15  C   UNL     1      33.698 -14.723 -23.256  0.00  0.00    -0.001 C 
ATOM     16  C   UNL     1      32.964 -14.749 -20.564  0.00  0.00    -0.000 C 
ATOM     17  C   UNL     1      32.738 -13.827 -22.786  0.00  0.00    -0.000 C 
ATOM     18  C   UNL     1      32.370 -13.840 -21.440  0.00  0.00    -0.000 C 
ENDBRANCH  12  13
ENDBRANCH  11  12
ENDBRANCH   2  11
TORSDOF 5
ENDMDL
MODEL 2
REMARK VINA RESULT:      -8.9      1.921      6.487
REMARK  Name = 7180
REMARK  5 active torsions:
REMARK  status: ('A' for Active; 'I' for Inactive)
REMARK    1  A    between atoms: C_2  and  C_3
REMARK    2  A    between atoms: C_2  and  O_11
REMARK    3  A    between atoms: C_8  and  O_9
REMARK    4  A    between atoms: O_11  and  C_12
REMARK    5  A    between atoms: C_12  and  C_13
REMARK                            x       y       z     vdW  Elec       q    Type
REMARK                         _______ _______ _______ _____ _____    ______ ____
ROOT
ATOM      1  O   UNL     1      34.966 -15.927 -20.487  0.00  0.00    -0.245 OA
ATOM      2  C   UNL     1      34.901 -16.738 -21.413  0.00  0.00    +0.342 C 
ENDROOT
BRANCH   2   3
ATOM      3  C   UNL     1      34.551 -16.370 -22.776  0.00  0.00    +0.076 C 
ATOM      4  C   UNL     1      33.761 -15.245 -23.015  0.00  0.00    +0.010 C 
ATOM      5  C   UNL     1      35.008 -17.142 -23.845  0.00  0.00    +0.010 C 
ATOM      6  C   UNL     1      33.426 -14.893 -24.322  0.00  0.00    +0.037 C 
ATOM      7  C   UNL     1      34.673 -16.789 -25.153  0.00  0.00    +0.037 C 
ATOM      8  C   UNL     1      33.882 -15.664 -25.391  0.00  0.00    +0.134 C 
BRANCH   8   9
ATOM      9  O   UNL     1      33.555 -15.320 -26.667  0.00  0.00    -0.506 OA
ATOM     10  H   UNL     1      33.370 -15.986 -27.299  0.00  0.00    +0.292 HD
ENDBRANCH   8   9
ENDBRANCH   2   3
BRANCH   2  11
ATOM     11  O   UNL     1      35.151 -18.079 -21.256  0.00  0.00    -0.440 OA
BRANCH  11  12
ATOM     12  C   UNL     1      34.022 -18.953 -21.364  0.00  0.00    +0.235 C 
BRANCH  12  13
ATOM     13  C   UNL     1      34.291 -20.128 -20.477  0.00  0.00    +0.021 C 
ATOM     14  C   UNL     1      35.603 -20.526 -20.232  0.00  0.00    -0.001 C 
ATOM     15  C   UNL     1      33.228 -20.818 -19.901  0.00  0.00    -0.001 C 
ATOM     16  C   UNL     1      35.854 -21.621 -19.406  0.00  0.00    -0.000 C 
ATOM     17  C   UNL     1      33.478 -21.914 -19.074  0.00  0.00    -0.000 C 
ATOM     18  C   UNL     1      34.792 -22.315 -18.827  0.00  0.00    -0.000 C 
ENDBRANCH  12  13
ENDBRANCH  11  12
ENDBRANCH   2  11
TORSDOF 5
ENDMDL
MODEL 3
REMARK VINA RESULT:      -8.8      1.913      6.395
REMARK  Name = 7180
REMARK  5 active torsions:
REMARK  status: ('A' for Active; 'I' for Inactive)
REMARK    1  A    between atoms: C_2  and  C_3
REMARK    2  A    between atoms: C_2  and  O_11
REMARK    3  A    between atoms: C_8  and  O_9
REMARK    4  A    between atoms: O_11  and  C_12
REMARK    5  A    between atoms: C_12  and  C_13
REMARK                            x       y       z     vdW  Elec       q    Type
REMARK                         _______ _______ _______ _____ _____    ______ ____
ROOT
ATOM      1  O   UNL     1      34.966 -15.976 -20.487  0.00  0.00    -0.245 OA
ATOM      2  C   UNL     1      34.912 -16.771 -21.427  0.00  0.00    +0.342 C 
ENDROOT
BRANCH   2   3
ATOM      3  C   UNL     1      34.555 -16.385 -22.783  0.00  0.00    +0.076 C 
ATOM      4  C   UNL     1      35.002 -17.142 -23.866  0.00  0.00    +0.010 C 
ATOM      5  C   UNL     1      33.763 -15.257 -23.000  0.00  0.00    +0.010 C 
ATOM      6  C   UNL     1      34.659 -16.771 -25.165  0.00  0.00    +0.037 C 
ATOM      7  C   UNL     1      33.419 -14.886 -24.301  0.00  0.00    +0.037 C 
ATOM      8  C   UNL     1      33.868 -15.643 -25.383  0.00  0.00    +0.134 C 
BRANCH   8   9
ATOM      9  O   UNL     1      33.532 -15.281 -26.652  0.00  0.00    -0.506 OA
ATOM     10  H   UNL     1      34.125 -15.448 -27.358  0.00  0.00    +0.292 HD
ENDBRANCH   8   9
ENDBRANCH   2   3
BRANCH   2  11
ATOM     11  O   UNL     1      35.186 -18.111 -21.294  0.00  0.00    -0.440 OA
BRANCH  11  12
ATOM     12  C   UNL     1      34.084 -19.005 -21.481  0.00  0.00    +0.235 C 
BRANCH  12  13
ATOM     13  C   UNL     1      34.290 -20.156 -20.545  0.00  0.00    +0.021 C 
ATOM     14  C   UNL     1      33.191 -20.775 -19.956  0.00  0.00    -0.001 C 
ATOM     15  C   UNL     1      35.580 -20.599 -20.268  0.00  0.00    -0.001 C 
ATOM     16  C   UNL     1      33.383 -21.847 -19.084  0.00  0.00    -0.000 C 
ATOM     17  C   UNL     1      35.773 -21.671 -19.396  0.00  0.00    -0.000 C 
ATOM     18  C   UNL     1      34.674 -22.295 -18.804  0.00  0.00    -0.000 C 
ENDBRANCH  12  13
ENDBRANCH  11  12
ENDBRANCH   2  11
TORSDOF 5
ENDMDL
MODEL 4
REMARK VINA RESULT:      -8.8      1.711      6.238
REMARK  Name = 7180
REMARK  5 active torsions:
REMARK  status: ('A' for Active; 'I' for Inactive)
REMARK    1  A    between atoms: C_2  and  C_3
REMARK    2  A    between atoms: C_2  and  O_11
REMARK    3  A    between atoms: C_8  and  O_9
REMARK    4  A    between atoms: O_11  and  C_12
REMARK    5  A    between atoms: C_12  and  C_13
REMARK                            x       y       z     vdW  Elec       q    Type
REMARK                         _______ _______ _______ _____ _____    ______ ____
ROOT
ATOM      1  O   UNL     1      35.236 -16.994 -23.834  0.00  0.00    -0.245 OA
ATOM      2  C   UNL     1      34.898 -16.642 -22.702  0.00  0.00    +0.342 C 
ENDROOT
BRANCH   2   3
ATOM      3  C   UNL     1      33.994 -15.532 -22.445  0.00  0.00    +0.076 C 
ATOM      4  C   UNL     1      33.536 -14.745 -23.502  0.00  0.00    +0.010 C 
ATOM      5  C   UNL     1      33.585 -15.254 -21.141  0.00  0.00    +0.010 C 
ATOM      6  C   UNL     1      32.671 -13.680 -23.256  0.00  0.00    +0.037 C 
ATOM      7  C   UNL     1      32.718 -14.188 -20.894  0.00  0.00    +0.037 C 
ATOM      8  C   UNL     1      32.261 -13.401 -21.952  0.00  0.00    +0.134 C 
BRANCH   8   9
ATOM      9  O   UNL     1      31.416 -12.362 -21.711  0.00  0.00    -0.506 OA
ATOM     10  H   UNL     1      31.759 -11.503 -21.565  0.00  0.00    +0.292 HD
ENDBRANCH   8   9
ENDBRANCH   2   3
BRANCH   2  11
ATOM     11  O   UNL     1      35.338 -17.263 -21.559  0.00  0.00    -0.440 OA
BRANCH  11  12
ATOM     12  C   UNL     1      35.949 -18.547 -21.729  0.00  0.00    +0.235 C 
BRANCH  12  13
ATOM     13  C   UNL     1      35.108 -19.535 -20.982  0.00  0.00    +0.021 C 
ATOM     14  C   UNL     1      33.721 -19.415 -20.997  0.00  0.00    -0.001 C 
ATOM     15  C   UNL     1      35.718 -20.568 -20.275  0.00  0.00    -0.001 C 
ATOM     16  C   UNL     1      32.937 -20.335 -20.302  0.00  0.00    -0.000 C 
ATOM     17  C   UNL     1      34.934 -21.488 -19.580  0.00  0.00    -0.000 C 
ATOM     18  C   UNL     1      33.544 -21.372 -19.592  0.00  0.00    -0.000 C 
ENDBRANCH  12  13
ENDBRANCH  11  12
ENDBRANCH   2  11
TORSDOF 5
ENDMDL
MODEL 5
REMARK VINA RESULT:      -8.8      1.683      6.134
REMARK  Name = 7180
REMARK  5 active torsions:
REMARK  status: ('A' for Active; 'I' for Inactive)
REMARK    1  A    between atoms: C_2  and  C_3
REMARK    2  A    between atoms: C_2  and  O_11
REMARK    3  A    between atoms: C_8  and  O_9
REMARK    4  A    between atoms: O_11  and  C_12
REMARK    5  A    between atoms: C_12  and  C_13
REMARK                            x       y       z     vdW  Elec       q    Type
REMARK                         _______ _______ _______ _____ _____    ______ ____
ROOT
ATOM      1  O   UNL     1      35.157 -17.185 -23.888  0.00  0.00    -0.245 OA
ATOM      2  C   UNL     1      34.865 -16.783 -22.760  0.00  0.00    +0.342 C 
ENDROOT
BRANCH   2   3
ATOM      3  C   UNL     1      33.985 -15.652 -22.515  0.00  0.00    +0.076 C 
ATOM      4  C   UNL     1      33.481 -15.423 -21.235  0.00  0.00    +0.010 C 
ATOM      5  C   UNL     1      33.645 -14.794 -23.562  0.00  0.00    +0.010 C 
ATOM      6  C   UNL     1      32.636 -14.339 -21.001  0.00  0.00    +0.037 C 
ATOM      7  C   UNL     1      32.801 -13.708 -23.328  0.00  0.00    +0.037 C 
ATOM      8  C   UNL     1      32.296 -13.481 -22.047  0.00  0.00    +0.134 C 
BRANCH   8   9
ATOM      9  O   UNL     1      31.472 -12.422 -21.819  0.00  0.00    -0.506 OA
ATOM     10  H   UNL     1      31.093 -11.959 -22.540  0.00  0.00    +0.292 HD
ENDBRANCH   8   9
ENDBRANCH   2   3
BRANCH   2  11
ATOM     11  O   UNL     1      35.342 -17.363 -21.610  0.00  0.00    -0.440 OA
BRANCH  11  12
ATOM     12  C   UNL     1      35.943 -18.655 -21.752  0.00  0.00    +0.235 C 
BRANCH  12  13
ATOM     13  C   UNL     1      35.099 -19.619 -20.977  0.00  0.00    +0.021 C 
ATOM     14  C   UNL     1      35.705 -20.629 -20.235  0.00  0.00    -0.001 C 
ATOM     15  C   UNL     1      33.712 -19.500 -21.004  0.00  0.00    -0.001 C 
ATOM     16  C   UNL     1      34.919 -21.526 -19.512  0.00  0.00    -0.000 C 
ATOM     17  C   UNL     1      32.926 -20.398 -20.281  0.00  0.00    -0.000 C 
ATOM     18  C   UNL     1      33.529 -21.412 -19.536  0.00  0.00    -0.000 C 
ENDBRANCH  12  13
ENDBRANCH  11  12
ENDBRANCH   2  11
TORSDOF 5
ENDMDL
MODEL 6
REMARK VINA RESULT:      -8.4      3.344      7.799
REMARK  Name = 7180
REMARK  5 active torsions:
REMARK  status: ('A' for Active; 'I' for Inactive)
REMARK    1  A    between atoms: C_2  and  C_3
REMARK    2  A    between atoms: C_2  and  O_11
REMARK    3  A    between atoms: C_8  and  O_9
REMARK    4  A    between atoms: O_11  and  C_12
REMARK    5  A    between atoms: C_12  and  C_13
REMARK                            x       y       z     vdW  Elec       q    Type
REMARK                         _______ _______ _______ _____ _____    ______ ____
ROOT
ATOM      1  O   UNL     1      34.192 -23.726 -19.704  0.00  0.00    -0.245 OA
ATOM      2  C   UNL     1      33.930 -22.618 -19.233  0.00  0.00    +0.342 C 
ENDROOT
BRANCH   2   3
ATOM      3  C   UNL     1      34.338 -21.367 -19.854  0.00  0.00    +0.076 C 
ATOM      4  C   UNL     1      33.375 -20.470 -20.316  0.00  0.00    +0.010 C 
ATOM      5  C   UNL     1      35.693 -21.065 -19.986  0.00  0.00    +0.010 C 
ATOM      6  C   UNL     1      33.766 -19.272 -20.911  0.00  0.00    +0.037 C 
ATOM      7  C   UNL     1      36.086 -19.865 -20.581  0.00  0.00    +0.037 C 
ATOM      8  C   UNL     1      35.122 -18.969 -21.044  0.00  0.00    +0.134 C 
BRANCH   8   9
ATOM      9  O   UNL     1      35.504 -17.799 -21.624  0.00  0.00    -0.506 OA
ATOM     10  H   UNL     1      36.119 -17.805 -22.331  0.00  0.00    +0.292 HD
ENDBRANCH   8   9
ENDBRANCH   2   3
BRANCH   2  11
ATOM     11  O   UNL     1      33.222 -22.445 -18.069  0.00  0.00    -0.440 OA
BRANCH  11  12
ATOM     12  C   UNL     1      33.607 -23.269 -16.963  0.00  0.00    +0.235 C 
BRANCH  12  13
ATOM     13  C   UNL     1      32.472 -23.250 -15.987  0.00  0.00    +0.021 C 
ATOM     14  C   UNL     1      31.175 -23.025 -16.438  0.00  0.00    -0.001 C 
ATOM     15  C   UNL     1      32.721 -23.458 -14.633  0.00  0.00    -0.001 C 
ATOM     16  C   UNL     1      30.117 -23.008 -15.529  0.00  0.00    -0.000 C 
ATOM     17  C   UNL     1      31.664 -23.441 -13.723  0.00  0.00    -0.000 C 
ATOM     18  C   UNL     1      30.361 -23.216 -14.171  0.00  0.00    -0.000 C 
ENDBRANCH  12  13
ENDBRANCH  11  12
ENDBRANCH   2  11
TORSDOF 5
ENDMDL
MODEL 7
REMARK VINA RESULT:      -8.4      3.401      7.718
REMARK  Name = 7180
REMARK  5 active torsions:
REMARK  status: ('A' for Active; 'I' for Inactive)
REMARK    1  A    between atoms: C_2  and  C_3
REMARK    2  A    between atoms: C_2  and  O_11
REMARK    3  A    between atoms: C_8  and  O_9
REMARK    4  A    between atoms: O_11  and  C_12
REMARK    5  A    between atoms: C_12  and  C_13
REMARK                            x       y       z     vdW  Elec       q    Type
REMARK                         _______ _______ _______ _____ _____    ______ ____
ROOT
ATOM      1  O   UNL     1      34.185 -23.777 -19.608  0.00  0.00    -0.245 OA
ATOM      2  C   UNL     1      33.874 -22.670 -19.165  0.00  0.00    +0.342 C 
ENDROOT
BRANCH   2   3
ATOM      3  C   UNL     1      34.224 -21.419 -19.819  0.00  0.00    +0.076 C 
ATOM      4  C   UNL     1      35.564 -21.084 -20.015  0.00  0.00    +0.010 C 
ATOM      5  C   UNL     1      33.218 -20.554 -20.251  0.00  0.00    +0.010 C 
ATOM      6  C   UNL     1      35.899 -19.884 -20.641  0.00  0.00    +0.037 C 
ATOM      7  C   UNL     1      33.553 -19.353 -20.879  0.00  0.00    +0.037 C 
ATOM      8  C   UNL     1      34.894 -19.018 -21.074  0.00  0.00    +0.134 C 
BRANCH   8   9
ATOM      9  O   UNL     1      35.221 -17.847 -21.686  0.00  0.00    -0.506 OA
ATOM     10  H   UNL     1      35.873 -17.836 -22.358  0.00  0.00    +0.292 HD
ENDBRANCH   8   9
ENDBRANCH   2   3
BRANCH   2  11
ATOM     11  O   UNL     1      33.162 -22.499 -18.003  0.00  0.00    -0.440 OA
BRANCH  11  12
ATOM     12  C   UNL     1      33.596 -23.263 -16.873  0.00  0.00    +0.235 C 
BRANCH  12  13
ATOM     13  C   UNL     1      32.451 -23.312 -15.911  0.00  0.00    +0.021 C 
ATOM     14  C   UNL     1      32.675 -23.674 -14.585  0.00  0.00    -0.001 C 
ATOM     15  C   UNL     1      31.167 -22.995 -16.346  0.00  0.00    -0.001 C 
ATOM     16  C   UNL     1      31.608 -23.720 -13.688  0.00  0.00    -0.000 C 
ATOM     17  C   UNL     1      30.100 -23.041 -15.449  0.00  0.00    -0.000 C 
ATOM     18  C   UNL     1      30.320 -23.403 -14.120  0.00  0.00    -0.000 C 
ENDBRANCH  12  13
ENDBRANCH  11  12
ENDBRANCH   2  11
TORSDOF 5
ENDMDL
MODEL 8
REMARK VINA RESULT:      -8.3      3.909      6.396
REMARK  Name = 7180
REMARK  5 active torsions:
REMARK  status: ('A' for Active; 'I' for Inactive)
REMARK    1  A    between atoms: C_2  and  C_3
REMARK    2  A    between atoms: C_2  and  O_11
REMARK    3  A    between atoms: C_8  and  O_9
REMARK    4  A    between atoms: O_11  and  C_12
REMARK    5  A    between atoms: C_12  and  C_13
REMARK                            x       y       z     vdW  Elec       q    Type
REMARK                         _______ _______ _______ _____ _____    ______ ____
ROOT
ATOM      1  O   UNL     1      35.272 -23.952 -16.169  0.00  0.00    -0.245 OA
ATOM      2  C   UNL     1      34.323 -23.474 -16.794  0.00  0.00    +0.342 C 
ENDROOT
BRANCH   2   3
ATOM      3  C   UNL     1      33.008 -23.260 -16.212  0.00  0.00    +0.076 C 
ATOM      4  C   UNL     1      31.909 -23.018 -17.037  0.00  0.00    +0.010 C 
ATOM      5  C   UNL     1      32.844 -23.298 -14.827  0.00  0.00    +0.010 C 
ATOM      6  C   UNL     1      30.649 -22.811 -16.478  0.00  0.00    +0.037 C 
ATOM      7  C   UNL     1      31.583 -23.093 -14.267  0.00  0.00    +0.037 C 
ATOM      8  C   UNL     1      30.485 -22.849 -15.093  0.00  0.00    +0.134 C 
BRANCH   8   9
ATOM      9  O   UNL     1      29.254 -22.649 -14.548  0.00  0.00    -0.506 OA
ATOM     10  H   UNL     1      28.953 -21.778 -14.377  0.00  0.00    +0.292 HD
ENDBRANCH   8   9
ENDBRANCH   2   3
BRANCH   2  11
ATOM     11  O   UNL     1      34.407 -23.093 -18.111  0.00  0.00    -0.440 OA
BRANCH  11  12
ATOM     12  C   UNL     1      35.431 -22.147 -18.435  0.00  0.00    +0.235 C 
BRANCH  12  13
ATOM     13  C   UNL     1      34.876 -21.245 -19.492  0.00  0.00    +0.021 C 
ATOM     14  C   UNL     1      35.740 -20.544 -20.329  0.00  0.00    -0.001 C 
ATOM     15  C   UNL     1      33.497 -21.110 -19.632  0.00  0.00    -0.001 C 
ATOM     16  C   UNL     1      35.223 -19.703 -21.314  0.00  0.00    -0.000 C 
ATOM     17  C   UNL     1      32.980 -20.269 -20.618  0.00  0.00    -0.000 C 
ATOM     18  C   UNL     1      33.843 -19.565 -21.459  0.00  0.00    -0.000 C 
ENDBRANCH  12  13
ENDBRANCH  11  12
ENDBRANCH   2  11
TORSDOF 5
ENDMDL
MODEL 9
REMARK VINA RESULT:      -8.3      3.992      6.884
REMARK  Name = 7180
REMARK  5 active torsions:
REMARK  status: ('A' for Active; 'I' for Inactive)
REMARK    1  A    between atoms: C_2  and  C_3
REMARK    2  A    between atoms: C_2  and  O_11
REMARK    3  A    between atoms: C_8  and  O_9
REMARK    4  A    between atoms: O_11  and  C_12
REMARK    5  A    between atoms: C_12  and  C_13
REMARK                            x       y       z     vdW  Elec       q    Type
REMARK                         _______ _______ _______ _____ _____    ______ ____
ROOT
ATOM      1  O   UNL     1      32.870 -23.370 -15.969  0.00  0.00    -0.245 OA
ATOM      2  C   UNL     1      33.942 -23.397 -16.575  0.00  0.00    +0.342 C 
ENDROOT
BRANCH   2   3
ATOM      3  C   UNL     1      35.223 -23.633 -15.927  0.00  0.00    +0.076 C 
ATOM      4  C   UNL     1      36.300 -22.782 -16.175  0.00  0.00    +0.010 C 
ATOM      5  C   UNL     1      35.373 -24.712 -15.055  0.00  0.00    +0.010 C 
ATOM      6  C   UNL     1      37.527 -23.009 -15.554  0.00  0.00    +0.037 C 
ATOM      7  C   UNL     1      36.602 -24.939 -14.432  0.00  0.00    +0.037 C 
ATOM      8  C   UNL     1      37.678 -24.088 -14.682  0.00  0.00    +0.134 C 
BRANCH   8   9
ATOM      9  O   UNL     1      38.876 -24.309 -14.075  0.00  0.00    -0.506 OA
ATOM     10  H   UNL     1      39.271 -25.158 -14.113  0.00  0.00    +0.292 HD
ENDBRANCH   8   9
ENDBRANCH   2   3
BRANCH   2  11
ATOM     11  O   UNL     1      34.044 -23.206 -17.931  0.00  0.00    -0.440 OA
BRANCH  11  12
ATOM     12  C   UNL     1      33.065 -22.349 -18.527  0.00  0.00    +0.235 C 
BRANCH  12  13
ATOM     13  C   UNL     1      33.799 -21.402 -19.425  0.00  0.00    +0.021 C 
ATOM     14  C   UNL     1      35.188 -21.462 -19.507  0.00  0.00    -0.001 C 
ATOM     15  C   UNL     1      33.089 -20.466 -20.172  0.00  0.00    -0.001 C 
ATOM     16  C   UNL     1      35.872 -20.580 -20.344  0.00  0.00    -0.000 C 
ATOM     17  C   UNL     1      33.773 -19.584 -21.009  0.00  0.00    -0.000 C 
ATOM     18  C   UNL     1      35.165 -19.641 -21.094  0.00  0.00    -0.000 C 
ENDBRANCH  12  13
ENDBRANCH  11  12
ENDBRANCH   2  11
TORSDOF 5
ENDMDL
