MODEL 1
REMARK VINA RESULT:      -7.3      0.000      0.000
REMARK  Name = 20846113
REMARK  4 active torsions:
REMARK  status: ('A' for Active; 'I' for Inactive)
REMARK    1  A    between atoms: C_2  and  C_11
REMARK    2  A    between atoms: C_11  and  C_12
REMARK    3  A    between atoms: C_12  and  N_13
REMARK    4  A    between atoms: C_12  and  O_17
REMARK                            x       y       z     vdW  Elec       q    Type
REMARK                         _______ _______ _______ _____ _____    ______ ____
ROOT
ATOM      1  N   UNL     1      36.754 -19.949 -20.310  0.00  0.00    -0.312 N 
ATOM      2  C   UNL     1      35.201 -18.773 -21.373  0.00  0.00    -0.006 C 
ATOM      3  C   UNL     1      34.556 -19.832 -20.675  0.00  0.00    +0.011 C 
ATOM      4  C   UNL     1      35.554 -20.555 -20.017  0.00  0.00    +0.048 C 
ATOM      5  C   UNL     1      36.551 -18.870 -21.130  0.00  0.00    +0.058 C 
ATOM      6  C   UNL     1      33.217 -20.247 -20.539  0.00  0.00    +0.001 C 
ATOM      7  C   UNL     1      35.277 -21.676 -19.226  0.00  0.00    +0.015 C 
ATOM      8  C   UNL     1      32.925 -21.367 -19.752  0.00  0.00    +0.000 C 
ATOM      9  C   UNL     1      33.940 -22.069 -19.106  0.00  0.00    +0.001 C 
ATOM     10  H   UNL     1      37.632 -20.248 -19.980  0.00  0.00    +0.152 HD
ENDROOT
BRANCH   2  11
ATOM     11  C   UNL     1      34.548 -17.746 -22.211  0.00  0.00    +0.034 C 
BRANCH  11  12
ATOM     12  C   UNL     1      35.293 -17.463 -23.535  0.00  0.00    +0.055 C 
BRANCH  12  13
ATOM     13  N   UNL     1      34.468 -17.839 -24.679  0.00  0.00    +0.398 N 
ATOM     14  H   UNL     1      33.632 -18.322 -24.350  0.00  0.00    -0.086 HD
ATOM     15  H   UNL     1      34.998 -18.456 -25.293  0.00  0.00    -0.086 HD
ATOM     16  H   UNL     1      34.196 -17.000 -25.192  0.00  0.00    -0.086 HD
ENDBRANCH  12  13
BRANCH  12  17
ATOM     17  O   UNL     1      35.620 -16.077 -23.582  0.00  0.00    -0.406 OA
ATOM     18  H   UNL     1      34.810 -15.558 -23.702  0.00  0.00    +0.207 HD
ENDBRANCH  12  17
ENDBRANCH  11  12
ENDBRANCH   2  11
TORSDOF 4
ENDMDL
MODEL 2
REMARK VINA RESULT:      -7.1      1.792      2.448
REMARK  Name = 20846113
REMARK  4 active torsions:
REMARK  status: ('A' for Active; 'I' for Inactive)
REMARK    1  A    between atoms: C_2  and  C_11
REMARK    2  A    between atoms: C_11  and  C_12
REMARK    3  A    between atoms: C_12  and  N_13
REMARK    4  A    between atoms: C_12  and  O_17
REMARK                            x       y       z     vdW  Elec       q    Type
REMARK                         _______ _______ _______ _____ _____    ______ ____
ROOT
ATOM      1  N   UNL     1      32.669 -20.392 -20.615  0.00  0.00    -0.312 N 
ATOM      2  C   UNL     1      34.542 -19.420 -21.301  0.00  0.00    -0.006 C 
ATOM      3  C   UNL     1      34.880 -20.389 -20.315  0.00  0.00    +0.011 C 
ATOM      4  C   UNL     1      33.686 -20.984 -19.901  0.00  0.00    +0.048 C 
ATOM      5  C   UNL     1      33.177 -19.445 -21.464  0.00  0.00    +0.058 C 
ATOM      6  C   UNL     1      36.088 -20.818 -19.733  0.00  0.00    +0.001 C 
ATOM      7  C   UNL     1      33.641 -21.992 -18.930  0.00  0.00    +0.015 C 
ATOM      8  C   UNL     1      36.059 -21.824 -18.760  0.00  0.00    +0.000 C 
ATOM      9  C   UNL     1      34.854 -22.401 -18.367  0.00  0.00    +0.001 C 
ATOM     10  H   UNL     1      31.714 -20.617 -20.527  0.00  0.00    +0.152 HD
ENDROOT
BRANCH   2  11
ATOM     11  C   UNL     1      35.481 -18.539 -22.026  0.00  0.00    +0.034 C 
BRANCH  11  12
ATOM     12  C   UNL     1      34.931 -17.115 -22.267  0.00  0.00    +0.055 C 
BRANCH  12  13
ATOM     13  N   UNL     1      34.929 -16.349 -21.025  0.00  0.00    +0.398 N 
ATOM     14  H   UNL     1      35.260 -16.939 -20.262  0.00  0.00    -0.086 HD
ATOM     15  H   UNL     1      33.981 -16.032 -20.823  0.00  0.00    -0.086 HD
ATOM     16  H   UNL     1      35.544 -15.541 -21.123  0.00  0.00    -0.086 HD
ENDBRANCH  12  13
BRANCH  12  17
ATOM     17  O   UNL     1      35.742 -16.478 -23.251  0.00  0.00    -0.406 OA
ATOM     18  H   UNL     1      36.570 -16.972 -23.356  0.00  0.00    +0.207 HD
ENDBRANCH  12  17
ENDBRANCH  11  12
ENDBRANCH   2  11
TORSDOF 4
ENDMDL
MODEL 3
REMARK VINA RESULT:      -7.0      3.319      5.394
REMARK  Name = 20846113
REMARK  4 active torsions:
REMARK  status: ('A' for Active; 'I' for Inactive)
REMARK    1  A    between atoms: C_2  and  C_11
REMARK    2  A    between atoms: C_11  and  C_12
REMARK    3  A    between atoms: C_12  and  N_13
REMARK    4  A    between atoms: C_12  and  O_17
REMARK                            x       y       z     vdW  Elec       q    Type
REMARK                         _______ _______ _______ _____ _____    ______ ____
ROOT
ATOM      1  N   UNL     1      33.127 -21.816 -19.373  0.00  0.00    -0.312 N 
ATOM      2  C   UNL     1      35.321 -21.734 -19.056  0.00  0.00    -0.006 C 
ATOM      3  C   UNL     1      34.967 -20.709 -19.977  0.00  0.00    +0.011 C 
ATOM      4  C   UNL     1      33.584 -20.783 -20.159  0.00  0.00    +0.048 C 
ATOM      5  C   UNL     1      34.169 -22.397 -18.702  0.00  0.00    +0.058 C 
ATOM      6  C   UNL     1      35.691 -19.723 -20.675  0.00  0.00    +0.001 C 
ATOM      7  C   UNL     1      32.887 -19.915 -21.007  0.00  0.00    +0.015 C 
ATOM      8  C   UNL     1      35.007 -18.849 -21.528  0.00  0.00    +0.000 C 
ATOM      9  C   UNL     1      33.627 -18.945 -21.690  0.00  0.00    +0.001 C 
ATOM     10  H   UNL     1      32.185 -22.097 -19.304  0.00  0.00    +0.152 HD
ENDROOT
BRANCH   2  11
ATOM     11  C   UNL     1      36.679 -22.041 -18.560  0.00  0.00    +0.034 C 
BRANCH  11  12
ATOM     12  C   UNL     1      36.878 -21.718 -17.062  0.00  0.00    +0.055 C 
BRANCH  12  13
ATOM     13  N   UNL     1      37.652 -22.769 -16.409  0.00  0.00    +0.398 N 
ATOM     14  H   UNL     1      37.476 -23.660 -16.875  0.00  0.00    -0.086 HD
ATOM     15  H   UNL     1      37.374 -22.838 -15.431  0.00  0.00    -0.086 HD
ATOM     16  H   UNL     1      38.645 -22.546 -16.467  0.00  0.00    -0.086 HD
ENDBRANCH  12  13
BRANCH  12  17
ATOM     17  O   UNL     1      37.543 -20.462 -16.956  0.00  0.00    -0.406 OA
ATOM     18  H   UNL     1      37.203 -19.981 -16.185  0.00  0.00    +0.207 HD
ENDBRANCH  12  17
ENDBRANCH  11  12
ENDBRANCH   2  11
TORSDOF 4
ENDMDL
MODEL 4
REMARK VINA RESULT:      -6.9      3.216      4.504
REMARK  Name = 20846113
REMARK  4 active torsions:
REMARK  status: ('A' for Active; 'I' for Inactive)
REMARK    1  A    between atoms: C_2  and  C_11
REMARK    2  A    between atoms: C_11  and  C_12
REMARK    3  A    between atoms: C_12  and  N_13
REMARK    4  A    between atoms: C_12  and  O_17
REMARK                            x       y       z     vdW  Elec       q    Type
REMARK                         _______ _______ _______ _____ _____    ______ ____
ROOT
ATOM      1  N   UNL     1      34.993 -17.340 -20.942  0.00  0.00    -0.312 N 
ATOM      2  C   UNL     1      34.533 -15.549 -22.170  0.00  0.00    -0.006 C 
ATOM      3  C   UNL     1      34.608 -16.675 -23.037  0.00  0.00    +0.011 C 
ATOM      4  C   UNL     1      34.898 -17.785 -22.241  0.00  0.00    +0.048 C 
ATOM      5  C   UNL     1      34.774 -15.989 -20.889  0.00  0.00    +0.058 C 
ATOM      6  C   UNL     1      34.456 -16.857 -24.425  0.00  0.00    +0.001 C 
ATOM      7  C   UNL     1      35.044 -19.074 -22.768  0.00  0.00    +0.015 C 
ATOM      8  C   UNL     1      34.600 -18.139 -24.966  0.00  0.00    +0.000 C 
ATOM      9  C   UNL     1      34.890 -19.230 -24.148  0.00  0.00    +0.001 C 
ATOM     10  H   UNL     1      35.192 -17.910 -20.164  0.00  0.00    +0.152 HD
ENDROOT
BRANCH   2  11
ATOM     11  C   UNL     1      34.248 -14.154 -22.562  0.00  0.00    +0.034 C 
BRANCH  11  12
ATOM     12  C   UNL     1      32.865 -13.968 -23.227  0.00  0.00    +0.055 C 
BRANCH  12  13
ATOM     13  N   UNL     1      32.005 -13.131 -22.397  0.00  0.00    +0.398 N 
ATOM     14  H   UNL     1      32.569 -12.415 -21.938  0.00  0.00    -0.086 HD
ATOM     15  H   UNL     1      31.548 -13.707 -21.691  0.00  0.00    -0.086 HD
ATOM     16  H   UNL     1      31.299 -12.684 -22.982  0.00  0.00    -0.086 HD
ENDBRANCH  12  13
BRANCH  12  17
ATOM     17  O   UNL     1      33.056 -13.379 -24.510  0.00  0.00    -0.406 OA
ATOM     18  H   UNL     1      32.226 -12.975 -24.807  0.00  0.00    +0.207 HD
ENDBRANCH  12  17
ENDBRANCH  11  12
ENDBRANCH   2  11
TORSDOF 4
ENDMDL
MODEL 5
REMARK VINA RESULT:      -6.8      2.444      5.125
REMARK  Name = 20846113
REMARK  4 active torsions:
REMARK  status: ('A' for Active; 'I' for Inactive)
REMARK    1  A    between atoms: C_2  and  C_11
REMARK    2  A    between atoms: C_11  and  C_12
REMARK    3  A    between atoms: C_12  and  N_13
REMARK    4  A    between atoms: C_12  and  O_17
REMARK                            x       y       z     vdW  Elec       q    Type
REMARK                         _______ _______ _______ _____ _____    ______ ____
ROOT
ATOM      1  N   UNL     1      34.935 -18.038 -23.974  0.00  0.00    -0.312 N 
ATOM      2  C   UNL     1      34.545 -18.822 -21.935  0.00  0.00    -0.006 C 
ATOM      3  C   UNL     1      34.492 -17.401 -21.882  0.00  0.00    +0.011 C 
ATOM      4  C   UNL     1      34.741 -16.934 -23.175  0.00  0.00    +0.048 C 
ATOM      5  C   UNL     1      34.819 -19.184 -23.233  0.00  0.00    +0.058 C 
ATOM      6  C   UNL     1      34.256 -16.464 -20.857  0.00  0.00    +0.001 C 
ATOM      7  C   UNL     1      34.764 -15.572 -23.494  0.00  0.00    +0.015 C 
ATOM      8  C   UNL     1      34.278 -15.099 -21.161  0.00  0.00    +0.000 C 
ATOM      9  C   UNL     1      34.527 -14.661 -22.460  0.00  0.00    +0.001 C 
ATOM     10  H   UNL     1      35.131 -18.008 -24.939  0.00  0.00    +0.152 HD
ENDROOT
BRANCH   2  11
ATOM     11  C   UNL     1      34.343 -19.752 -20.805  0.00  0.00    +0.034 C 
BRANCH  11  12
ATOM     12  C   UNL     1      35.608 -20.561 -20.436  0.00  0.00    +0.055 C 
BRANCH  12  13
ATOM     13  N   UNL     1      36.722 -19.665 -20.140  0.00  0.00    +0.398 N 
ATOM     14  H   UNL     1      36.361 -18.740 -19.906  0.00  0.00    -0.086 HD
ATOM     15  H   UNL     1      37.329 -19.596 -20.956  0.00  0.00    -0.086 HD
ATOM     16  H   UNL     1      37.253 -20.033 -19.351  0.00  0.00    -0.086 HD
ENDBRANCH  12  13
BRANCH  12  17
ATOM     17  O   UNL     1      35.307 -21.381 -19.311  0.00  0.00    -0.406 OA
ATOM     18  H   UNL     1      36.084 -21.434 -18.733  0.00  0.00    +0.207 HD
ENDBRANCH  12  17
ENDBRANCH  11  12
ENDBRANCH   2  11
TORSDOF 4
ENDMDL
MODEL 6
REMARK VINA RESULT:      -6.8      2.525      5.122
REMARK  Name = 20846113
REMARK  4 active torsions:
REMARK  status: ('A' for Active; 'I' for Inactive)
REMARK    1  A    between atoms: C_2  and  C_11
REMARK    2  A    between atoms: C_11  and  C_12
REMARK    3  A    between atoms: C_12  and  N_13
REMARK    4  A    between atoms: C_12  and  O_17
REMARK                            x       y       z     vdW  Elec       q    Type
REMARK                         _______ _______ _______ _____ _____    ______ ____
ROOT
ATOM      1  N   UNL     1      34.892 -18.141 -23.903  0.00  0.00    -0.312 N 
ATOM      2  C   UNL     1      34.574 -18.885 -21.837  0.00  0.00    -0.006 C 
ATOM      3  C   UNL     1      34.530 -17.463 -21.808  0.00  0.00    +0.011 C 
ATOM      4  C   UNL     1      34.732 -17.021 -23.118  0.00  0.00    +0.048 C 
ATOM      5  C   UNL     1      34.797 -19.272 -23.137  0.00  0.00    +0.058 C 
ATOM      6  C   UNL     1      34.336 -16.506 -20.793  0.00  0.00    +0.001 C 
ATOM      7  C   UNL     1      34.751 -15.665 -23.464  0.00  0.00    +0.015 C 
ATOM      8  C   UNL     1      34.353 -15.146 -21.123  0.00  0.00    +0.000 C 
ATOM      9  C   UNL     1      34.557 -14.734 -22.439  0.00  0.00    +0.001 C 
ATOM     10  H   UNL     1      35.051 -18.129 -24.875  0.00  0.00    +0.152 HD
ENDROOT
BRANCH   2  11
ATOM     11  C   UNL     1      34.410 -19.793 -20.683  0.00  0.00    +0.034 C 
BRANCH  11  12
ATOM     12  C   UNL     1      33.042 -20.512 -20.651  0.00  0.00    +0.055 C 
BRANCH  12  13
ATOM     13  N   UNL     1      33.085 -21.655 -19.745  0.00  0.00    +0.398 N 
ATOM     14  H   UNL     1      33.996 -21.694 -19.289  0.00  0.00    -0.086 HD
ATOM     15  H   UNL     1      32.933 -22.514 -20.274  0.00  0.00    -0.086 HD
ATOM     16  H   UNL     1      32.355 -21.557 -19.039  0.00  0.00    -0.086 HD
ENDBRANCH  12  13
BRANCH  12  17
ATOM     17  O   UNL     1      32.050 -19.577 -20.237  0.00  0.00    -0.406 OA
ATOM     18  H   UNL     1      31.208 -20.038 -20.102  0.00  0.00    +0.207 HD
ENDBRANCH  12  17
ENDBRANCH  11  12
ENDBRANCH   2  11
TORSDOF 4
ENDMDL
MODEL 7
REMARK VINA RESULT:      -6.8      2.746      5.099
REMARK  Name = 20846113
REMARK  4 active torsions:
REMARK  status: ('A' for Active; 'I' for Inactive)
REMARK    1  A    between atoms: C_2  and  C_11
REMARK    2  A    between atoms: C_11  and  C_12
REMARK    3  A    between atoms: C_12  and  N_13
REMARK    4  A    between atoms: C_12  and  O_17
REMARK                            x       y       z     vdW  Elec       q    Type
REMARK                         _______ _______ _______ _____ _____    ______ ____
ROOT
ATOM      1  N   UNL     1      35.031 -16.475 -21.585  0.00  0.00    -0.312 N 
ATOM      2  C   UNL     1      35.014 -18.694 -21.586  0.00  0.00    -0.006 C 
ATOM      3  C   UNL     1      34.818 -18.248 -22.923  0.00  0.00    +0.011 C 
ATOM      4  C   UNL     1      34.833 -16.852 -22.894  0.00  0.00    +0.048 C 
ATOM      5  C   UNL     1      35.142 -17.582 -20.787  0.00  0.00    +0.058 C 
ATOM      6  C   UNL     1      34.630 -18.899 -24.158  0.00  0.00    +0.001 C 
ATOM      7  C   UNL     1      34.668 -16.071 -24.045  0.00  0.00    +0.015 C 
ATOM      8  C   UNL     1      34.463 -18.132 -25.315  0.00  0.00    +0.000 C 
ATOM      9  C   UNL     1      34.482 -16.740 -25.258  0.00  0.00    +0.001 C 
ATOM     10  H   UNL     1      35.085 -15.544 -21.269  0.00  0.00    +0.152 HD
ENDROOT
BRANCH   2  11
ATOM     11  C   UNL     1      35.072 -20.097 -21.126  0.00  0.00    +0.034 C 
BRANCH  11  12
ATOM     12  C   UNL     1      33.977 -20.456 -20.097  0.00  0.00    +0.055 C 
BRANCH  12  13
ATOM     13  N   UNL     1      32.652 -20.344 -20.698  0.00  0.00    +0.398 N 
ATOM     14  H   UNL     1      31.948 -20.294 -19.961  0.00  0.00    -0.086 HD
ATOM     15  H   UNL     1      32.473 -21.160 -21.283  0.00  0.00    -0.086 HD
ATOM     16  H   UNL     1      32.608 -19.500 -21.268  0.00  0.00    -0.086 HD
ENDBRANCH  12  13
BRANCH  12  17
ATOM     17  O   UNL     1      34.210 -21.783 -19.633  0.00  0.00    -0.406 OA
ATOM     18  H   UNL     1      33.435 -22.333 -19.824  0.00  0.00    +0.207 HD
ENDBRANCH  12  17
ENDBRANCH  11  12
ENDBRANCH   2  11
TORSDOF 4
ENDMDL
MODEL 8
REMARK VINA RESULT:      -6.7      2.974      4.500
REMARK  Name = 20846113
REMARK  4 active torsions:
REMARK  status: ('A' for Active; 'I' for Inactive)
REMARK    1  A    between atoms: C_2  and  C_11
REMARK    2  A    between atoms: C_11  and  C_12
REMARK    3  A    between atoms: C_12  and  N_13
REMARK    4  A    between atoms: C_12  and  O_17
REMARK                            x       y       z     vdW  Elec       q    Type
REMARK                         _______ _______ _______ _____ _____    ______ ____
ROOT
ATOM      1  N   UNL     1      34.437 -17.280 -24.995  0.00  0.00    -0.312 N 
ATOM      2  C   UNL     1      34.414 -15.637 -23.504  0.00  0.00    -0.006 C 
ATOM      3  C   UNL     1      34.666 -16.857 -22.817  0.00  0.00    +0.011 C 
ATOM      4  C   UNL     1      34.675 -17.872 -23.776  0.00  0.00    +0.048 C 
ATOM      5  C   UNL     1      34.277 -15.928 -24.841  0.00  0.00    +0.058 C 
ATOM      6  C   UNL     1      34.889 -17.197 -21.468  0.00  0.00    +0.001 C 
ATOM      7  C   UNL     1      34.897 -19.216 -23.452  0.00  0.00    +0.015 C 
ATOM      8  C   UNL     1      35.111 -18.536 -21.129  0.00  0.00    +0.000 C 
ATOM      9  C   UNL     1      35.115 -19.528 -22.107  0.00  0.00    +0.001 C 
ATOM     10  H   UNL     1      34.387 -17.759 -25.855  0.00  0.00    +0.152 HD
ENDROOT
BRANCH   2  11
ATOM     11  C   UNL     1      34.314 -14.292 -22.901  0.00  0.00    +0.034 C 
BRANCH  11  12
ATOM     12  C   UNL     1      33.372 -13.337 -23.669  0.00  0.00    +0.055 C 
BRANCH  12  13
ATOM     13  N   UNL     1      32.124 -13.149 -22.937  0.00  0.00    +0.398 N 
ATOM     14  H   UNL     1      31.870 -14.019 -22.469  0.00  0.00    -0.086 HD
ATOM     15  H   UNL     1      31.385 -12.886 -23.588  0.00  0.00    -0.086 HD
ATOM     16  H   UNL     1      32.245 -12.412 -22.243  0.00  0.00    -0.086 HD
ENDBRANCH  12  13
BRANCH  12  17
ATOM     17  O   UNL     1      34.042 -12.093 -23.853  0.00  0.00    -0.406 OA
ATOM     18  H   UNL     1      33.778 -11.478 -23.152  0.00  0.00    +0.207 HD
ENDBRANCH  12  17
ENDBRANCH  11  12
ENDBRANCH   2  11
TORSDOF 4
ENDMDL
MODEL 9
REMARK VINA RESULT:      -6.6     11.816     13.964
REMARK  Name = 20846113
REMARK  4 active torsions:
REMARK  status: ('A' for Active; 'I' for Inactive)
REMARK    1  A    between atoms: C_2  and  C_11
REMARK    2  A    between atoms: C_11  and  C_12
REMARK    3  A    between atoms: C_12  and  N_13
REMARK    4  A    between atoms: C_12  and  O_17
REMARK                            x       y       z     vdW  Elec       q    Type
REMARK                         _______ _______ _______ _____ _____    ______ ____
ROOT
ATOM      1  N   UNL     1      31.025  -5.701 -23.496  0.00  0.00    -0.312 N 
ATOM      2  C   UNL     1      32.413  -7.131 -22.521  0.00  0.00    -0.006 C 
ATOM      3  C   UNL     1      33.031  -6.654 -23.711  0.00  0.00    +0.011 C 
ATOM      4  C   UNL     1      32.139  -5.757 -24.304  0.00  0.00    +0.048 C 
ATOM      5  C   UNL     1      31.182  -6.528 -22.417  0.00  0.00    +0.058 C 
ATOM      6  C   UNL     1      34.266  -6.897 -24.342  0.00  0.00    +0.001 C 
ATOM      7  C   UNL     1      32.422  -5.090 -25.501  0.00  0.00    +0.015 C 
ATOM      8  C   UNL     1      34.563  -6.238 -25.540  0.00  0.00    +0.000 C 
ATOM      9  C   UNL     1      33.655  -5.348 -26.108  0.00  0.00    +0.001 C 
ATOM     10  H   UNL     1      30.230  -5.146 -23.671  0.00  0.00    +0.152 HD
ENDROOT
BRANCH   2  11
ATOM     11  C   UNL     1      32.982  -8.102 -21.563  0.00  0.00    +0.034 C 
BRANCH  11  12
ATOM     12  C   UNL     1      32.399  -7.977 -20.137  0.00  0.00    +0.055 C 
BRANCH  12  13
ATOM     13  N   UNL     1      32.462  -9.259 -19.443  0.00  0.00    +0.398 N 
ATOM     14  H   UNL     1      32.419 -10.017 -20.125  0.00  0.00    -0.086 HD
ATOM     15  H   UNL     1      31.675  -9.336 -18.799  0.00  0.00    -0.086 HD
ATOM     16  H   UNL     1      33.336  -9.320 -18.921  0.00  0.00    -0.086 HD
ENDBRANCH  12  13
BRANCH  12  17
ATOM     17  O   UNL     1      33.140  -6.984 -19.432  0.00  0.00    -0.406 OA
ATOM     18  H   UNL     1      33.947  -6.772 -19.926  0.00  0.00    +0.207 HD
ENDBRANCH  12  17
ENDBRANCH  11  12
ENDBRANCH   2  11
TORSDOF 4
ENDMDL
