MODEL 1
REMARK VINA RESULT:      -8.9      0.000      0.000
REMARK  Name = 54746
REMARK  8 active torsions:
REMARK  status: ('A' for Active; 'I' for Inactive)
REMARK    1  A    between atoms: N_1  and  C_35
REMARK    2  A    between atoms: C_6  and  C_23
REMARK    3  A    between atoms: N_21  and  C_28
REMARK    4  A    between atoms: N_22  and  C_26
REMARK    5  A    between atoms: C_28  and  C_29
REMARK    6  A    between atoms: C_29  and  C_30
REMARK    7  A    between atoms: C_30  and  N_31
REMARK    8  A    between atoms: C_35  and  C_36
REMARK                            x       y       z     vdW  Elec       q    Type
REMARK                         _______ _______ _______ _____ _____    ______ ____
ROOT
ATOM      1  N   UNL     1      31.239 -11.948 -21.718  0.00  0.00    +0.392 N 
ATOM      2  N   UNL     1      33.839  -7.160 -24.282  0.00  0.00    -0.312 N 
ATOM      3  C   UNL     1      32.878 -11.669 -23.607  0.00  0.00    +0.004 C 
ATOM      4  C   UNL     1      32.230 -11.014 -22.309  0.00  0.00    -0.049 C 
ATOM      5  C   UNL     1      33.509 -13.023 -23.257  0.00  0.00    +0.009 C 
ATOM      6  C   UNL     1      32.495 -13.923 -22.558  0.00  0.00    +0.057 C 
ATOM      7  C   UNL     1      31.613  -9.593 -22.603  0.00  0.00    +0.007 C 
ATOM      8  C   UNL     1      31.873 -13.225 -21.349  0.00  0.00    -0.068 C 
ATOM      9  C   UNL     1      33.849 -10.711 -24.278  0.00  0.00    -0.024 C 
ATOM     10  C   UNL     1      33.606  -9.343 -24.104  0.00  0.00    +0.007 C 
ATOM     11  C   UNL     1      32.588  -8.739 -23.340  0.00  0.00    -0.009 C 
ATOM     12  C   UNL     1      34.381  -8.359 -24.689  0.00  0.00    +0.048 C 
ATOM     13  C   UNL     1      34.920 -11.042 -25.118  0.00  0.00    -0.004 C 
ATOM     14  C   UNL     1      32.749  -7.379 -23.467  0.00  0.00    +0.057 C 
ATOM     15  C   UNL     1      35.463  -8.679 -25.507  0.00  0.00    +0.015 C 
ATOM     16  C   UNL     1      35.712 -10.046 -25.711  0.00  0.00    +0.001 C 
ATOM     17  H   UNL     1      30.535 -12.101 -22.440  0.00  0.00    -0.079 HD
ATOM     18  H   UNL     1      34.181  -6.272 -24.538  0.00  0.00    +0.152 HD
ENDROOT
BRANCH   6  23
ATOM     19  O   UNL     1      32.814 -15.719 -21.062  0.00  0.00    -0.275 OA
ATOM     20  O   UNL     1      35.218 -15.527 -25.077  0.00  0.00    -0.252 OA
ATOM     21  N   UNL     1      34.156 -15.722 -22.986  0.00  0.00    -0.214 N 
ATOM     22  N   UNL     1      32.925 -15.411 -24.991  0.00  0.00    -0.288 N 
ATOM     23  C   UNL     1      33.159 -15.199 -22.127  0.00  0.00    +0.230 C 
ATOM     24  C   UNL     1      34.184 -15.563 -24.406  0.00  0.00    +0.310 C 
ATOM     25  H   UNL     1      32.126 -15.448 -24.418  0.00  0.00    +0.151 HD
BRANCH  22  26
ATOM     26  C   UNL     1      32.757 -15.200 -26.411  0.00  0.00    +0.091 C 
ATOM     27  C   UNL     1      32.957 -13.735 -26.749  0.00  0.00    +0.023 C 
ENDBRANCH  22  26
BRANCH  21  28
ATOM     28  C   UNL     1      35.227 -16.477 -22.325  0.00  0.00    +0.100 C 
BRANCH  28  29
ATOM     29  C   UNL     1      35.070 -17.986 -22.495  0.00  0.00    -0.001 C 
BRANCH  29  30
ATOM     30  C   UNL     1      35.862 -18.822 -21.485  0.00  0.00    -0.076 C 
BRANCH  30  31
ATOM     31  N   UNL     1      34.988 -19.507 -20.540  0.00  0.00    +0.384 N 
ATOM     32  C   UNL     1      35.546 -20.812 -20.174  0.00  0.00    -0.101 C 
ATOM     33  C   UNL     1      33.647 -19.671 -21.104  0.00  0.00    -0.101 C 
ATOM     34  H   UNL     1      34.920 -18.936 -19.698  0.00  0.00    -0.080 HD
ENDBRANCH  30  31
ENDBRANCH  29  30
ENDBRANCH  28  29
ENDBRANCH  21  28
ENDBRANCH   6  23
BRANCH   1  35
ATOM     35  C   UNL     1      30.566 -11.394 -20.540  0.00  0.00    -0.050 C 
BRANCH  35  36
ATOM     36  C   UNL     1      31.508 -11.244 -19.385  0.00  0.00    -0.049 C 
ATOM     37  C   UNL     1      31.837 -10.069 -18.836  0.00  0.00    -0.007 C 
ENDBRANCH  35  36
ENDBRANCH   1  35
TORSDOF 8
ENDMDL
MODEL 2
REMARK VINA RESULT:      -7.3      3.089      5.780
REMARK  Name = 54746
REMARK  8 active torsions:
REMARK  status: ('A' for Active; 'I' for Inactive)
REMARK    1  A    between atoms: N_1  and  C_35
REMARK    2  A    between atoms: C_6  and  C_23
REMARK    3  A    between atoms: N_21  and  C_28
REMARK    4  A    between atoms: N_22  and  C_26
REMARK    5  A    between atoms: C_28  and  C_29
REMARK    6  A    between atoms: C_29  and  C_30
REMARK    7  A    between atoms: C_30  and  N_31
REMARK    8  A    between atoms: C_35  and  C_36
REMARK                            x       y       z     vdW  Elec       q    Type
REMARK                         _______ _______ _______ _____ _____    ______ ____
ROOT
ATOM      1  N   UNL     1      31.957  -7.418 -21.824  0.00  0.00    +0.392 N 
ATOM      2  N   UNL     1      31.193  -1.888 -24.082  0.00  0.00    -0.312 N 
ATOM      3  C   UNL     1      32.040  -6.469 -24.153  0.00  0.00    +0.004 C 
ATOM      4  C   UNL     1      32.126  -6.161 -22.594  0.00  0.00    -0.049 C 
ATOM      5  C   UNL     1      33.086  -7.522 -24.542  0.00  0.00    +0.009 C 
ATOM      6  C   UNL     1      32.953  -8.762 -23.664  0.00  0.00    +0.057 C 
ATOM      7  C   UNL     1      31.105  -5.043 -22.150  0.00  0.00    +0.007 C 
ATOM      8  C   UNL     1      32.996  -8.398 -22.180  0.00  0.00    -0.068 C 
ATOM      9  C   UNL     1      32.141  -5.193 -24.972  0.00  0.00    -0.024 C 
ATOM     10  C   UNL     1      31.694  -4.015 -24.359  0.00  0.00    +0.007 C 
ATOM     11  C   UNL     1      31.198  -3.858 -23.050  0.00  0.00    -0.009 C 
ATOM     12  C   UNL     1      31.689  -2.788 -24.998  0.00  0.00    +0.048 C 
ATOM     13  C   UNL     1      32.561  -5.072 -26.302  0.00  0.00    -0.004 C 
ATOM     14  C   UNL     1      30.889  -2.527 -22.898  0.00  0.00    +0.057 C 
ATOM     15  C   UNL     1      32.127  -2.654 -26.314  0.00  0.00    +0.015 C 
ATOM     16  C   UNL     1      32.560  -3.827 -26.953  0.00  0.00    +0.001 C 
ATOM     17  H   UNL     1      31.035  -7.777 -22.075  0.00  0.00    -0.079 HD
ATOM     18  H   UNL     1      31.072  -0.924 -24.248  0.00  0.00    +0.152 HD
ENDROOT
BRANCH   6  23
ATOM     19  O   UNL     1      35.201  -9.307 -24.128  0.00  0.00    -0.275 OA
ATOM     20  O   UNL     1      31.956 -12.673 -23.852  0.00  0.00    -0.252 OA
ATOM     21  N   UNL     1      33.683 -11.096 -24.110  0.00  0.00    -0.214 N 
ATOM     22  N   UNL     1      32.312 -11.146 -22.173  0.00  0.00    -0.288 N 
ATOM     23  C   UNL     1      34.051  -9.734 -23.985  0.00  0.00    +0.230 C 
ATOM     24  C   UNL     1      32.607 -11.724 -23.410  0.00  0.00    +0.310 C 
ATOM     25  H   UNL     1      32.858 -10.390 -21.859  0.00  0.00    +0.151 HD
BRANCH  22  26
ATOM     26  C   UNL     1      31.232 -11.621 -21.340  0.00  0.00    +0.091 C 
ATOM     27  C   UNL     1      31.760 -12.590 -20.300  0.00  0.00    +0.023 C 
ENDBRANCH  22  26
BRANCH  21  28
ATOM     28  C   UNL     1      34.494 -11.886 -25.043  0.00  0.00    +0.100 C 
BRANCH  28  29
ATOM     29  C   UNL     1      33.730 -12.262 -26.310  0.00  0.00    -0.001 C 
BRANCH  29  30
ATOM     30  C   UNL     1      33.874 -13.730 -26.724  0.00  0.00    -0.076 C 
BRANCH  30  31
ATOM     31  N   UNL     1      33.050 -14.611 -25.905  0.00  0.00    +0.384 N 
ATOM     32  C   UNL     1      33.862 -15.272 -24.881  0.00  0.00    -0.101 C 
ATOM     33  C   UNL     1      32.377 -15.608 -26.738  0.00  0.00    -0.101 C 
ATOM     34  H   UNL     1      32.342 -14.043 -25.441  0.00  0.00    -0.080 HD
ENDBRANCH  30  31
ENDBRANCH  29  30
ENDBRANCH  28  29
ENDBRANCH  21  28
ENDBRANCH   6  23
BRANCH   1  35
ATOM     35  C   UNL     1      31.981  -7.206 -20.374  0.00  0.00    -0.050 C 
BRANCH  35  36
ATOM     36  C   UNL     1      32.388  -8.447 -19.640  0.00  0.00    -0.049 C 
ATOM     37  C   UNL     1      31.532  -9.256 -19.008  0.00  0.00    -0.007 C 
ENDBRANCH  35  36
ENDBRANCH   1  35
TORSDOF 8
ENDMDL
MODEL 3
REMARK VINA RESULT:      -6.9      8.520     12.705
REMARK  Name = 54746
REMARK  8 active torsions:
REMARK  status: ('A' for Active; 'I' for Inactive)
REMARK    1  A    between atoms: N_1  and  C_35
REMARK    2  A    between atoms: C_6  and  C_23
REMARK    3  A    between atoms: N_21  and  C_28
REMARK    4  A    between atoms: N_22  and  C_26
REMARK    5  A    between atoms: C_28  and  C_29
REMARK    6  A    between atoms: C_29  and  C_30
REMARK    7  A    between atoms: C_30  and  N_31
REMARK    8  A    between atoms: C_35  and  C_36
REMARK                            x       y       z     vdW  Elec       q    Type
REMARK                         _______ _______ _______ _____ _____    ______ ____
ROOT
ATOM      1  N   UNL     1      33.713 -23.425 -16.772  0.00  0.00    +0.392 N 
ATOM      2  N   UNL     1      33.682 -19.633 -21.449  0.00  0.00    -0.312 N 
ATOM      3  C   UNL     1      35.528 -22.319 -18.119  0.00  0.00    +0.004 C 
ATOM      4  C   UNL     1      33.997 -22.289 -17.682  0.00  0.00    -0.049 C 
ATOM      5  C   UNL     1      36.431 -22.296 -16.878  0.00  0.00    +0.009 C 
ATOM      6  C   UNL     1      36.047 -23.414 -15.914  0.00  0.00    +0.057 C 
ATOM      7  C   UNL     1      33.024 -22.256 -18.923  0.00  0.00    +0.007 C 
ATOM      8  C   UNL     1      34.559 -23.362 -15.568  0.00  0.00    -0.068 C 
ATOM      9  C   UNL     1      35.839 -21.207 -19.107  0.00  0.00    -0.024 C 
ATOM     10  C   UNL     1      34.782 -20.767 -19.913  0.00  0.00    +0.007 C 
ATOM     11  C   UNL     1      33.442 -21.202 -19.891  0.00  0.00    -0.009 C 
ATOM     12  C   UNL     1      34.928 -19.792 -20.883  0.00  0.00    +0.048 C 
ATOM     13  C   UNL     1      37.086 -20.622 -19.357  0.00  0.00    -0.004 C 
ATOM     14  C   UNL     1      32.774 -20.486 -20.857  0.00  0.00    +0.057 C 
ATOM     15  C   UNL     1      36.161 -19.187 -21.123  0.00  0.00    +0.015 C 
ATOM     16  C   UNL     1      37.238 -19.629 -20.338  0.00  0.00    +0.001 C 
ATOM     17  H   UNL     1      33.924 -24.270 -17.305  0.00  0.00    -0.079 HD
ATOM     18  H   UNL     1      33.471 -19.000 -22.174  0.00  0.00    +0.152 HD
ENDROOT
BRANCH   6  23
ATOM     19  O   UNL     1      36.673 -22.356 -13.899  0.00  0.00    -0.275 OA
ATOM     20  O   UNL     1      38.671 -26.396 -15.174  0.00  0.00    -0.252 OA
ATOM     21  N   UNL     1      37.828 -24.325 -14.439  0.00  0.00    -0.214 N 
ATOM     22  N   UNL     1      36.395 -26.130 -15.009  0.00  0.00    -0.288 N 
ATOM     23  C   UNL     1      36.867 -23.309 -14.661  0.00  0.00    +0.230 C 
ATOM     24  C   UNL     1      37.711 -25.678 -14.885  0.00  0.00    +0.310 C 
ATOM     25  H   UNL     1      35.659 -25.523 -14.767  0.00  0.00    +0.151 HD
BRANCH  22  26
ATOM     26  C   UNL     1      36.079 -27.457 -15.484  0.00  0.00    +0.091 C 
ATOM     27  C   UNL     1      36.529 -27.619 -16.923  0.00  0.00    +0.023 C 
ENDBRANCH  22  26
BRANCH  21  28
ATOM     28  C   UNL     1      39.022 -23.914 -13.692  0.00  0.00    +0.100 C 
BRANCH  28  29
ATOM     29  C   UNL     1      38.816 -23.970 -12.181  0.00  0.00    -0.001 C 
BRANCH  29  30
ATOM     30  C   UNL     1      37.756 -24.978 -11.724  0.00  0.00    -0.076 C 
BRANCH  30  31
ATOM     31  N   UNL     1      36.646 -24.328 -11.038  0.00  0.00    +0.384 N 
ATOM     32  C   UNL     1      35.379 -24.630 -11.707  0.00  0.00    -0.101 C 
ATOM     33  C   UNL     1      36.854 -22.880 -10.977  0.00  0.00    -0.101 C 
ATOM     34  H   UNL     1      36.605 -24.690 -10.086  0.00  0.00    -0.080 HD
ENDBRANCH  30  31
ENDBRANCH  29  30
ENDBRANCH  28  29
ENDBRANCH  21  28
ENDBRANCH   6  23
BRANCH   1  35
ATOM     35  C   UNL     1      32.307 -23.489 -16.361  0.00  0.00    -0.050 C 
BRANCH  35  36
ATOM     36  C   UNL     1      32.134 -23.114 -14.922  0.00  0.00    -0.049 C 
ATOM     37  C   UNL     1      30.961 -23.132 -14.280  0.00  0.00    -0.007 C 
ENDBRANCH  35  36
ENDBRANCH   1  35
TORSDOF 8
ENDMDL
MODEL 4
REMARK VINA RESULT:      -6.7      9.443     13.747
REMARK  Name = 54746
REMARK  8 active torsions:
REMARK  status: ('A' for Active; 'I' for Inactive)
REMARK    1  A    between atoms: N_1  and  C_35
REMARK    2  A    between atoms: C_6  and  C_23
REMARK    3  A    between atoms: N_21  and  C_28
REMARK    4  A    between atoms: N_22  and  C_26
REMARK    5  A    between atoms: C_28  and  C_29
REMARK    6  A    between atoms: C_29  and  C_30
REMARK    7  A    between atoms: C_30  and  N_31
REMARK    8  A    between atoms: C_35  and  C_36
REMARK                            x       y       z     vdW  Elec       q    Type
REMARK                         _______ _______ _______ _____ _____    ______ ____
ROOT
ATOM      1  N   UNL     1      33.419 -22.491 -17.726  0.00  0.00    +0.392 N 
ATOM      2  N   UNL     1      27.808 -23.771 -15.954  0.00  0.00    -0.312 N 
ATOM      3  C   UNL     1      32.428 -23.310 -15.562  0.00  0.00    +0.004 C 
ATOM      4  C   UNL     1      32.232 -23.157 -17.134  0.00  0.00    -0.049 C 
ATOM      5  C   UNL     1      33.722 -24.079 -15.263  0.00  0.00    +0.009 C 
ATOM      6  C   UNL     1      34.908 -23.430 -15.969  0.00  0.00    +0.057 C 
ATOM      7  C   UNL     1      30.887 -22.418 -17.498  0.00  0.00    +0.007 C 
ATOM      8  C   UNL     1      34.643 -23.268 -17.465  0.00  0.00    -0.068 C 
ATOM      9  C   UNL     1      31.200 -23.926 -14.913  0.00  0.00    -0.024 C 
ATOM     10  C   UNL     1      29.973 -23.709 -15.552  0.00  0.00    +0.007 C 
ATOM     11  C   UNL     1      29.740 -23.019 -16.758  0.00  0.00    -0.009 C 
ATOM     12  C   UNL     1      28.770 -24.175 -15.054  0.00  0.00    +0.048 C 
ATOM     13  C   UNL     1      31.145 -24.627 -13.701  0.00  0.00    -0.004 C 
ATOM     14  C   UNL     1      28.385 -23.066 -16.989  0.00  0.00    +0.057 C 
ATOM     15  C   UNL     1      28.709 -24.893 -13.862  0.00  0.00    +0.015 C 
ATOM     16  C   UNL     1      29.926 -25.105 -13.194  0.00  0.00    +0.001 C 
ATOM     17  H   UNL     1      33.480 -21.578 -17.275  0.00  0.00    -0.079 HD
ATOM     18  H   UNL     1      26.845 -23.960 -15.869  0.00  0.00    +0.152 HD
ENDROOT
BRANCH   6  23
ATOM     19  O   UNL     1      36.033 -25.486 -15.691  0.00  0.00    -0.275 OA
ATOM     20  O   UNL     1      38.435 -21.466 -15.792  0.00  0.00    -0.252 OA
ATOM     21  N   UNL     1      37.367 -23.557 -15.631  0.00  0.00    -0.214 N 
ATOM     22  N   UNL     1      36.983 -22.091 -17.459  0.00  0.00    -0.288 N 
ATOM     23  C   UNL     1      36.142 -24.257 -15.754  0.00  0.00    +0.230 C 
ATOM     24  C   UNL     1      37.667 -22.310 -16.261  0.00  0.00    +0.310 C 
ATOM     25  H   UNL     1      36.381 -22.793 -17.797  0.00  0.00    +0.151 HD
BRANCH  22  26
ATOM     26  C   UNL     1      37.129 -20.870 -18.217  0.00  0.00    +0.091 C 
ATOM     27  C   UNL     1      36.776 -21.113 -19.672  0.00  0.00    +0.023 C 
ENDBRANCH  22  26
BRANCH  21  28
ATOM     28  C   UNL     1      38.378 -24.196 -14.781  0.00  0.00    +0.100 C 
BRANCH  28  29
ATOM     29  C   UNL     1      38.195 -23.863 -13.302  0.00  0.00    -0.001 C 
BRANCH  29  30
ATOM     30  C   UNL     1      37.538 -24.977 -12.480  0.00  0.00    -0.076 C 
BRANCH  30  31
ATOM     31  N   UNL     1      36.551 -24.453 -11.544  0.00  0.00    +0.384 N 
ATOM     32  C   UNL     1      35.198 -24.601 -12.086  0.00  0.00    -0.101 C 
ATOM     33  C   UNL     1      36.823 -23.047 -11.240  0.00  0.00    -0.101 C 
ATOM     34  H   UNL     1      36.615 -24.990 -10.680  0.00  0.00    -0.080 HD
ENDBRANCH  30  31
ENDBRANCH  29  30
ENDBRANCH  28  29
ENDBRANCH  21  28
ENDBRANCH   6  23
BRANCH   1  35
ATOM     35  C   UNL     1      33.291 -22.276 -19.170  0.00  0.00    -0.050 C 
BRANCH  35  36
ATOM     36  C   UNL     1      33.379 -20.823 -19.522  0.00  0.00    -0.049 C 
ATOM     37  C   UNL     1      32.828 -20.283 -20.614  0.00  0.00    -0.007 C 
ENDBRANCH  35  36
ENDBRANCH   1  35
TORSDOF 8
ENDMDL
MODEL 5
REMARK VINA RESULT:      -6.3      1.903      4.146
REMARK  Name = 54746
REMARK  8 active torsions:
REMARK  status: ('A' for Active; 'I' for Inactive)
REMARK    1  A    between atoms: N_1  and  C_35
REMARK    2  A    between atoms: C_6  and  C_23
REMARK    3  A    between atoms: N_21  and  C_28
REMARK    4  A    between atoms: N_22  and  C_26
REMARK    5  A    between atoms: C_28  and  C_29
REMARK    6  A    between atoms: C_29  and  C_30
REMARK    7  A    between atoms: C_30  and  N_31
REMARK    8  A    between atoms: C_35  and  C_36
REMARK                            x       y       z     vdW  Elec       q    Type
REMARK                         _______ _______ _______ _____ _____    ______ ____
ROOT
ATOM      1  N   UNL     1      33.492 -13.403 -23.665  0.00  0.00    +0.392 N 
ATOM      2  N   UNL     1      31.692  -7.932 -21.910  0.00  0.00    -0.312 N 
ATOM      3  C   UNL     1      33.004 -12.376 -21.420  0.00  0.00    +0.004 C 
ATOM      4  C   UNL     1      32.779 -12.289 -22.993  0.00  0.00    -0.049 C 
ATOM      5  C   UNL     1      32.548 -13.744 -20.895  0.00  0.00    +0.009 C 
ATOM      6  C   UNL     1      33.221 -14.869 -21.674  0.00  0.00    +0.057 C 
ATOM      7  C   UNL     1      33.182 -10.880 -23.577  0.00  0.00    +0.007 C 
ATOM      8  C   UNL     1      33.010 -14.707 -23.179  0.00  0.00    -0.068 C 
ATOM      9  C   UNL     1      32.343 -11.209 -20.706  0.00  0.00    -0.024 C 
ATOM     10  C   UNL     1      32.206 -10.020 -21.434  0.00  0.00    +0.007 C 
ATOM     11  C   UNL     1      32.570  -9.784 -22.774  0.00  0.00    -0.009 C 
ATOM     12  C   UNL     1      31.661  -8.867 -20.899  0.00  0.00    +0.048 C 
ATOM     13  C   UNL     1      31.921 -11.163 -19.371  0.00  0.00    -0.004 C 
ATOM     14  C   UNL     1      32.244  -8.477 -23.050  0.00  0.00    +0.057 C 
ATOM     15  C   UNL     1      31.217  -8.819 -19.579  0.00  0.00    +0.015 C 
ATOM     16  C   UNL     1      31.364  -9.995 -18.825  0.00  0.00    +0.001 C 
ATOM     17  H   UNL     1      34.479 -13.285 -23.430  0.00  0.00    -0.079 HD
ATOM     18  H   UNL     1      31.366  -7.006 -21.829  0.00  0.00    +0.152 HD
ENDROOT
BRANCH   6  23
ATOM     19  O   UNL     1      31.526 -16.252 -20.789  0.00  0.00    -0.275 OA
ATOM     20  O   UNL     1      35.631 -18.084 -22.105  0.00  0.00    -0.252 OA
ATOM     21  N   UNL     1      33.554 -17.307 -21.318  0.00  0.00    -0.214 N 
ATOM     22  N   UNL     1      34.334 -16.803 -23.502  0.00  0.00    -0.288 N 
ATOM     23  C   UNL     1      32.682 -16.195 -21.221  0.00  0.00    +0.230 C 
ATOM     24  C   UNL     1      34.585 -17.460 -22.295  0.00  0.00    +0.310 C 
ATOM     25  H   UNL     1      33.485 -16.316 -23.611  0.00  0.00    +0.151 HD
BRANCH  22  26
ATOM     26  C   UNL     1      35.280 -16.812 -24.594  0.00  0.00    +0.091 C 
ATOM     27  C   UNL     1      34.858 -17.824 -25.642  0.00  0.00    +0.023 C 
ENDBRANCH  22  26
BRANCH  21  28
ATOM     28  C   UNL     1      33.350 -18.359 -20.315  0.00  0.00    +0.100 C 
BRANCH  28  29
ATOM     29  C   UNL     1      33.407 -19.761 -20.917  0.00  0.00    -0.001 C 
BRANCH  29  30
ATOM     30  C   UNL     1      33.018 -20.881 -19.948  0.00  0.00    -0.076 C 
BRANCH  30  31
ATOM     31  N   UNL     1      34.110 -21.824 -19.739  0.00  0.00    +0.384 N 
ATOM     32  C   UNL     1      33.903 -22.589 -18.507  0.00  0.00    -0.101 C 
ATOM     33  C   UNL     1      35.394 -21.124 -19.690  0.00  0.00    -0.101 C 
ATOM     34  H   UNL     1      34.124 -22.474 -20.526  0.00  0.00    -0.080 HD
ENDBRANCH  30  31
ENDBRANCH  29  30
ENDBRANCH  28  29
ENDBRANCH  21  28
ENDBRANCH   6  23
BRANCH   1  35
ATOM     35  C   UNL     1      33.367 -13.364 -25.125  0.00  0.00    -0.050 C 
BRANCH  35  36
ATOM     36  C   UNL     1      32.674 -14.582 -25.653  0.00  0.00    -0.049 C 
ATOM     37  C   UNL     1      32.746 -14.992 -26.924  0.00  0.00    -0.007 C 
ENDBRANCH  35  36
ENDBRANCH   1  35
TORSDOF 8
ENDMDL
MODEL 6
REMARK VINA RESULT:      -6.0      8.573     12.800
REMARK  Name = 54746
REMARK  8 active torsions:
REMARK  status: ('A' for Active; 'I' for Inactive)
REMARK    1  A    between atoms: N_1  and  C_35
REMARK    2  A    between atoms: C_6  and  C_23
REMARK    3  A    between atoms: N_21  and  C_28
REMARK    4  A    between atoms: N_22  and  C_26
REMARK    5  A    between atoms: C_28  and  C_29
REMARK    6  A    between atoms: C_29  and  C_30
REMARK    7  A    between atoms: C_30  and  N_31
REMARK    8  A    between atoms: C_35  and  C_36
REMARK                            x       y       z     vdW  Elec       q    Type
REMARK                         _______ _______ _______ _____ _____    ______ ____
ROOT
ATOM      1  N   UNL     1      35.389 -22.972 -16.253  0.00  0.00    +0.392 N 
ATOM      2  N   UNL     1      36.565 -19.865 -21.276  0.00  0.00    -0.312 N 
ATOM      3  C   UNL     1      33.955 -21.685 -17.872  0.00  0.00    +0.004 C 
ATOM      4  C   UNL     1      35.341 -22.431 -17.634  0.00  0.00    -0.049 C 
ATOM      5  C   UNL     1      32.787 -22.641 -17.593  0.00  0.00    +0.009 C 
ATOM      6  C   UNL     1      32.919 -23.260 -16.205  0.00  0.00    +0.057 C 
ATOM      7  C   UNL     1      36.578 -21.507 -17.959  0.00  0.00    +0.007 C 
ATOM      8  C   UNL     1      34.286 -23.919 -16.019  0.00  0.00    -0.068 C 
ATOM      9  C   UNL     1      33.899 -21.059 -19.255  0.00  0.00    -0.024 C 
ATOM     10  C   UNL     1      35.122 -20.684 -19.827  0.00  0.00    +0.007 C 
ATOM     11  C   UNL     1      36.413 -20.858 -19.291  0.00  0.00    -0.009 C 
ATOM     12  C   UNL     1      35.220 -20.066 -21.060  0.00  0.00    +0.048 C 
ATOM     13  C   UNL     1      32.753 -20.742 -19.995  0.00  0.00    -0.004 C 
ATOM     14  C   UNL     1      37.298 -20.339 -20.207  0.00  0.00    +0.057 C 
ATOM     15  C   UNL     1      34.086 -19.769 -21.814  0.00  0.00    +0.015 C 
ATOM     16  C   UNL     1      32.849 -20.118 -21.249  0.00  0.00    +0.001 C 
ATOM     17  H   UNL     1      35.297 -22.166 -15.634  0.00  0.00    -0.079 HD
ATOM     18  H   UNL     1      36.949 -19.443 -22.079  0.00  0.00    +0.152 HD
ENDROOT
BRANCH   6  23
ATOM     19  O   UNL     1      31.551 -25.047 -16.912  0.00  0.00    -0.275 OA
ATOM     20  O   UNL     1      31.182 -23.360 -12.558  0.00  0.00    -0.252 OA
ATOM     21  N   UNL     1      31.184 -24.259 -14.733  0.00  0.00    -0.214 N 
ATOM     22  N   UNL     1      33.173 -24.078 -13.451  0.00  0.00    -0.288 N 
ATOM     23  C   UNL     1      31.830 -24.271 -15.993  0.00  0.00    +0.230 C 
ATOM     24  C   UNL     1      31.793 -23.870 -13.500  0.00  0.00    +0.310 C 
ATOM     25  H   UNL     1      33.620 -24.489 -14.226  0.00  0.00    +0.151 HD
BRANCH  22  26
ATOM     26  C   UNL     1      33.967 -23.710 -12.301  0.00  0.00    +0.091 C 
ATOM     27  C   UNL     1      35.156 -24.641 -12.166  0.00  0.00    +0.023 C 
ENDBRANCH  22  26
BRANCH  21  28
ATOM     28  C   UNL     1      29.780 -24.685 -14.739  0.00  0.00    +0.100 C 
BRANCH  28  29
ATOM     29  C   UNL     1      28.961 -23.988 -15.823  0.00  0.00    -0.001 C 
BRANCH  29  30
ATOM     30  C   UNL     1      28.644 -22.518 -15.530  0.00  0.00    -0.076 C 
BRANCH  30  31
ATOM     31  N   UNL     1      27.603 -22.000 -16.409  0.00  0.00    +0.384 N 
ATOM     32  C   UNL     1      26.309 -21.984 -15.722  0.00  0.00    -0.101 C 
ATOM     33  C   UNL     1      27.517 -22.798 -17.633  0.00  0.00    -0.101 C 
ATOM     34  H   UNL     1      27.847 -21.043 -16.662  0.00  0.00    -0.080 HD
ENDBRANCH  30  31
ENDBRANCH  29  30
ENDBRANCH  28  29
ENDBRANCH  21  28
ENDBRANCH   6  23
BRANCH   1  35
ATOM     35  C   UNL     1      36.659 -23.637 -15.945  0.00  0.00    -0.050 C 
BRANCH  35  36
ATOM     36  C   UNL     1      36.443 -24.939 -15.236  0.00  0.00    -0.049 C 
ATOM     37  C   UNL     1      37.421 -25.806 -14.953  0.00  0.00    -0.007 C 
ENDBRANCH  35  36
ENDBRANCH   1  35
TORSDOF 8
ENDMDL
MODEL 7
REMARK VINA RESULT:      -6.0      3.210      7.202
REMARK  Name = 54746
REMARK  8 active torsions:
REMARK  status: ('A' for Active; 'I' for Inactive)
REMARK    1  A    between atoms: N_1  and  C_35
REMARK    2  A    between atoms: C_6  and  C_23
REMARK    3  A    between atoms: N_21  and  C_28
REMARK    4  A    between atoms: N_22  and  C_26
REMARK    5  A    between atoms: C_28  and  C_29
REMARK    6  A    between atoms: C_29  and  C_30
REMARK    7  A    between atoms: C_30  and  N_31
REMARK    8  A    between atoms: C_35  and  C_36
REMARK                            x       y       z     vdW  Elec       q    Type
REMARK                         _______ _______ _______ _____ _____    ______ ____
ROOT
ATOM      1  N   UNL     1      34.944 -18.044 -23.082  0.00  0.00    +0.392 N 
ATOM      2  N   UNL     1      33.260 -12.267 -23.308  0.00  0.00    -0.312 N 
ATOM      3  C   UNL     1      33.853 -16.490 -21.431  0.00  0.00    +0.004 C 
ATOM      4  C   UNL     1      34.172 -16.782 -22.962  0.00  0.00    -0.049 C 
ATOM      5  C   UNL     1      33.106 -17.678 -20.810  0.00  0.00    +0.009 C 
ATOM      6  C   UNL     1      33.875 -18.975 -21.039  0.00  0.00    +0.057 C 
ATOM      7  C   UNL     1      34.894 -15.568 -23.664  0.00  0.00    +0.007 C 
ATOM      8  C   UNL     1      34.191 -19.178 -22.521  0.00  0.00    -0.068 C 
ATOM      9  C   UNL     1      33.122 -15.168 -21.265  0.00  0.00    -0.024 C 
ATOM     10  C   UNL     1      33.361 -14.189 -22.237  0.00  0.00    +0.007 C 
ATOM     11  C   UNL     1      34.171 -14.294 -23.385  0.00  0.00    -0.009 C 
ATOM     12  C   UNL     1      32.797 -12.928 -22.192  0.00  0.00    +0.048 C 
ATOM     13  C   UNL     1      32.290 -14.789 -20.204  0.00  0.00    -0.004 C 
ATOM     14  C   UNL     1      34.097 -13.086 -24.037  0.00  0.00    +0.057 C 
ATOM     15  C   UNL     1      31.949 -12.549 -21.153  0.00  0.00    +0.015 C 
ATOM     16  C   UNL     1      31.712 -13.510 -20.156  0.00  0.00    +0.001 C 
ATOM     17  H   UNL     1      35.804 -17.896 -22.553  0.00  0.00    -0.079 HD
ATOM     18  H   UNL     1      33.027 -11.341 -23.551  0.00  0.00    +0.152 HD
ENDROOT
BRANCH   6  23
ATOM     19  O   UNL     1      31.957 -20.348 -20.996  0.00  0.00    -0.275 OA
ATOM     20  O   UNL     1      35.631 -21.325 -18.261  0.00  0.00    -0.252 OA
ATOM     21  N   UNL     1      33.675 -20.920 -19.504  0.00  0.00    -0.214 N 
ATOM     22  N   UNL     1      35.808 -21.054 -20.535  0.00  0.00    -0.288 N 
ATOM     23  C   UNL     1      33.077 -20.137 -20.522  0.00  0.00    +0.230 C 
ATOM     24  C   UNL     1      35.079 -21.128 -19.346  0.00  0.00    +0.310 C 
ATOM     25  H   UNL     1      35.327 -20.896 -21.379  0.00  0.00    +0.151 HD
BRANCH  22  26
ATOM     26  C   UNL     1      37.245 -21.200 -20.567  0.00  0.00    +0.091 C 
ATOM     27  C   UNL     1      37.908 -19.838 -20.645  0.00  0.00    +0.023 C 
ENDBRANCH  22  26
BRANCH  21  28
ATOM     28  C   UNL     1      32.743 -21.545 -18.559  0.00  0.00    +0.100 C 
BRANCH  28  29
ATOM     29  C   UNL     1      33.222 -22.914 -18.082  0.00  0.00    -0.001 C 
BRANCH  29  30
ATOM     30  C   UNL     1      32.538 -23.415 -16.806  0.00  0.00    -0.076 C 
BRANCH  30  31
ATOM     31  N   UNL     1      33.360 -23.193 -15.623  0.00  0.00    +0.384 N 
ATOM     32  C   UNL     1      34.714 -23.712 -15.832  0.00  0.00    -0.101 C 
ATOM     33  C   UNL     1      32.753 -23.820 -14.449  0.00  0.00    -0.101 C 
ATOM     34  H   UNL     1      33.420 -22.188 -15.461  0.00  0.00    -0.080 HD
ENDBRANCH  30  31
ENDBRANCH  29  30
ENDBRANCH  28  29
ENDBRANCH  21  28
ENDBRANCH   6  23
BRANCH   1  35
ATOM     35  C   UNL     1      35.313 -18.357 -24.466  0.00  0.00    -0.050 C 
BRANCH  35  36
ATOM     36  C   UNL     1      34.482 -19.473 -25.020  0.00  0.00    -0.049 C 
ATOM     37  C   UNL     1      34.978 -20.654 -25.407  0.00  0.00    -0.007 C 
ENDBRANCH  35  36
ENDBRANCH   1  35
TORSDOF 8
ENDMDL
