MODEL 1
REMARK VINA RESULT:      -9.8      0.000      0.000
REMARK  Name = 60164925
REMARK  5 active torsions:
REMARK  status: ('A' for Active; 'I' for Inactive)
REMARK    1  A    between atoms: C_12  and  C_19
REMARK    2  A    between atoms: N_18  and  CA_21
REMARK    3  A    between atoms: CA_21  and  C_22
REMARK    4  A    between atoms: CA_21  and  C_26
REMARK    5  A    between atoms: C_26  and  O_27
REMARK                            x       y       z     vdW  Elec       q    Type
REMARK                         _______ _______ _______ _____ _____    ______ ____
ROOT
ATOM      1  O   UNL     1      27.781 -23.447 -17.462  0.00  0.00    -0.084 OA
ATOM      2  N   UNL     1      32.390 -23.172 -16.683  0.00  0.00    -0.218 N 
ATOM      3  N   UNL     1      32.619 -22.810 -17.971  0.00  0.00    -0.160 NA
ATOM      4  N   UNL     1      30.950 -23.784 -14.930  0.00  0.00    -0.225 NA
ATOM      5  N   UNL     1      28.772 -23.554 -16.671  0.00  0.00    -0.196 N 
ATOM      6  C   UNL     1      35.550 -23.337 -14.691  0.00  0.00    +0.010 C 
ATOM      7  C   UNL     1      34.027 -23.556 -14.567  0.00  0.00    +0.040 C 
ATOM      8  C   UNL     1      34.989 -24.688 -14.332  0.00  0.00    +0.007 C 
ATOM      9  C   UNL     1      35.892 -22.951 -16.145  0.00  0.00    +0.030 C 
ATOM     10  C   UNL     1      33.531 -23.238 -15.978  0.00  0.00    +0.059 A 
ATOM     11  C   UNL     1      34.566 -22.912 -16.807  0.00  0.00    +0.015 A 
ATOM     12  C   UNL     1      33.956 -22.654 -18.032  0.00  0.00    +0.152 A 
ATOM     13  C   UNL     1      31.104 -23.427 -16.220  0.00  0.00    +0.165 C 
ATOM     14  C   UNL     1      30.052 -23.303 -17.110  0.00  0.00    +0.200 C 
ATOM     15  C   UNL     1      29.686 -24.024 -14.525  0.00  0.00    +0.121 C 
ATOM     16  C   UNL     1      28.586 -23.921 -15.358  0.00  0.00    +0.124 C 
ENDROOT
BRANCH  12  19
ATOM     17  O   UNL     1      34.897 -23.119 -20.129  0.00  0.00    -0.268 OA
ATOM     18  N   UNL     1      34.788 -20.896 -19.483  0.00  0.00    -0.299 N 
ATOM     19  C   UNL     1      34.597 -22.253 -19.311  0.00  0.00    +0.265 C 
ATOM     20  H   UNL     1      34.514 -20.282 -18.764  0.00  0.00    +0.150 HD
BRANCH  18  21
ATOM     21  CA  UNL     1      35.381 -20.345 -20.691  0.00  0.00    +0.101 C 
BRANCH  21  22
ATOM     22  C   UNL     1      34.446 -19.289 -21.372  0.00  0.00    +0.019 C 
ATOM     23  C   UNL     1      32.971 -19.483 -20.966  0.00  0.00    +0.002 C 
ATOM     24  C   UNL     1      34.875 -17.858 -20.985  0.00  0.00    +0.002 C 
ATOM     25  C   UNL     1      34.548 -19.395 -22.910  0.00  0.00    +0.002 C 
ENDBRANCH  21  22
BRANCH  21  26
ATOM     26  C   UNL     1      36.785 -19.823 -20.354  0.00  0.00    +0.157 C 
BRANCH  26  27
ATOM     27  O   UNL     1      37.068 -20.092 -18.982  0.00  0.00    -0.380 OA
ATOM     28  H   UNL     1      37.151 -21.049 -18.851  0.00  0.00    +0.211 HD
ENDBRANCH  26  27
ENDBRANCH  21  26
ENDBRANCH  18  21
ENDBRANCH  12  19
TORSDOF 5
ENDMDL
MODEL 2
REMARK VINA RESULT:      -9.5      2.411      4.518
REMARK  Name = 60164925
REMARK  5 active torsions:
REMARK  status: ('A' for Active; 'I' for Inactive)
REMARK    1  A    between atoms: C_12  and  C_19
REMARK    2  A    between atoms: N_18  and  CA_21
REMARK    3  A    between atoms: CA_21  and  C_22
REMARK    4  A    between atoms: CA_21  and  C_26
REMARK    5  A    between atoms: C_26  and  O_27
REMARK                            x       y       z     vdW  Elec       q    Type
REMARK                         _______ _______ _______ _____ _____    ______ ____
ROOT
ATOM      1  O   UNL     1      38.989 -24.317 -13.632  0.00  0.00    -0.084 OA
ATOM      2  N   UNL     1      34.865 -23.493 -15.691  0.00  0.00    -0.218 N 
ATOM      3  N   UNL     1      35.477 -23.154 -16.855  0.00  0.00    -0.160 NA
ATOM      4  N   UNL     1      34.925 -24.197 -13.450  0.00  0.00    -0.225 NA
ATOM      5  N   UNL     1      37.719 -24.278 -13.575  0.00  0.00    -0.196 N 
ATOM      6  C   UNL     1      31.141 -23.279 -15.952  0.00  0.00    +0.010 C 
ATOM      7  C   UNL     1      32.268 -23.614 -14.952  0.00  0.00    +0.040 C 
ATOM      8  C   UNL     1      31.324 -22.473 -14.694  0.00  0.00    +0.007 C 
ATOM      9  C   UNL     1      31.765 -22.852 -17.298  0.00  0.00    +0.030 C 
ATOM     10  C   UNL     1      33.528 -23.404 -15.791  0.00  0.00    +0.059 A 
ATOM     11  C   UNL     1      33.221 -22.994 -17.056  0.00  0.00    +0.015 A 
ATOM     12  C   UNL     1      34.458 -22.851 -17.682  0.00  0.00    +0.152 A 
ATOM     13  C   UNL     1      35.597 -23.875 -14.572  0.00  0.00    +0.165 C 
ATOM     14  C   UNL     1      36.977 -23.904 -14.672  0.00  0.00    +0.200 C 
ATOM     15  C   UNL     1      35.675 -24.560 -12.390  0.00  0.00    +0.121 C 
ATOM     16  C   UNL     1      37.057 -24.611 -12.415  0.00  0.00    +0.124 C 
ENDROOT
BRANCH  12  19
ATOM     17  O   UNL     1      34.591 -23.229 -19.992  0.00  0.00    -0.268 OA
ATOM     18  N   UNL     1      35.129 -21.108 -19.230  0.00  0.00    -0.299 N 
ATOM     19  C   UNL     1      34.737 -22.423 -19.077  0.00  0.00    +0.265 C 
ATOM     20  H   UNL     1      35.218 -20.541 -18.430  0.00  0.00    +0.150 HD
BRANCH  18  21
ATOM     21  CA  UNL     1      35.414 -20.532 -20.535  0.00  0.00    +0.101 C 
BRANCH  21  22
ATOM     22  C   UNL     1      34.244 -19.622 -21.041  0.00  0.00    +0.019 C 
ATOM     23  C   UNL     1      32.882 -20.076 -20.481  0.00  0.00    +0.002 C 
ATOM     24  C   UNL     1      34.481 -18.156 -20.623  0.00  0.00    +0.002 C 
ATOM     25  C   UNL     1      34.173 -19.650 -22.585  0.00  0.00    +0.002 C 
ENDBRANCH  21  22
BRANCH  21  26
ATOM     26  C   UNL     1      36.780 -19.833 -20.475  0.00  0.00    +0.157 C 
BRANCH  26  27
ATOM     27  O   UNL     1      37.258 -19.855 -19.131  0.00  0.00    -0.380 OA
ATOM     28  H   UNL     1      37.008 -20.693 -18.712  0.00  0.00    +0.211 HD
ENDBRANCH  26  27
ENDBRANCH  21  26
ENDBRANCH  18  21
ENDBRANCH  12  19
TORSDOF 5
ENDMDL
MODEL 3
REMARK VINA RESULT:      -9.5      2.632      6.081
REMARK  Name = 60164925
REMARK  5 active torsions:
REMARK  status: ('A' for Active; 'I' for Inactive)
REMARK    1  A    between atoms: C_12  and  C_19
REMARK    2  A    between atoms: N_18  and  CA_21
REMARK    3  A    between atoms: CA_21  and  C_22
REMARK    4  A    between atoms: CA_21  and  C_26
REMARK    5  A    between atoms: C_26  and  O_27
REMARK                            x       y       z     vdW  Elec       q    Type
REMARK                         _______ _______ _______ _____ _____    ______ ____
ROOT
ATOM      1  O   UNL     1      29.793 -24.288 -13.535  0.00  0.00    -0.084 OA
ATOM      2  N   UNL     1      33.035 -22.972 -16.647  0.00  0.00    -0.218 N 
ATOM      3  N   UNL     1      34.035 -23.256 -15.774  0.00  0.00    -0.160 NA
ATOM      4  N   UNL     1      30.759 -22.856 -17.221  0.00  0.00    -0.225 NA
ATOM      5  N   UNL     1      30.095 -23.839 -14.687  0.00  0.00    -0.196 N 
ATOM      6  C   UNL     1      34.345 -21.714 -19.916  0.00  0.00    +0.010 C 
ATOM      7  C   UNL     1      33.024 -22.022 -19.178  0.00  0.00    +0.040 C 
ATOM      8  C   UNL     1      33.337 -20.628 -19.645  0.00  0.00    +0.007 C 
ATOM      9  C   UNL     1      35.532 -21.984 -18.968  0.00  0.00    +0.030 C 
ATOM     10  C   UNL     1      33.514 -22.512 -17.814  0.00  0.00    +0.059 A 
ATOM     11  C   UNL     1      34.877 -22.481 -17.735  0.00  0.00    +0.015 A 
ATOM     12  C   UNL     1      35.157 -22.950 -16.453  0.00  0.00    +0.152 A 
ATOM     13  C   UNL     1      31.700 -23.160 -16.305  0.00  0.00    +0.165 C 
ATOM     14  C   UNL     1      31.410 -23.648 -15.044  0.00  0.00    +0.200 C 
ATOM     15  C   UNL     1      29.479 -23.052 -16.846  0.00  0.00    +0.121 C 
ATOM     16  C   UNL     1      29.113 -23.535 -15.602  0.00  0.00    +0.124 C 
ENDROOT
BRANCH  12  19
ATOM     17  O   UNL     1      37.367 -22.301 -16.017  0.00  0.00    -0.268 OA
ATOM     18  N   UNL     1      36.608 -24.238 -14.997  0.00  0.00    -0.299 N 
ATOM     19  C   UNL     1      36.485 -23.130 -15.812  0.00  0.00    +0.265 C 
ATOM     20  H   UNL     1      35.839 -24.845 -14.899  0.00  0.00    +0.150 HD
BRANCH  18  21
ATOM     21  CA  UNL     1      37.837 -24.539 -14.280  0.00  0.00    +0.101 C 
BRANCH  21  22
ATOM     22  C   UNL     1      37.610 -24.598 -12.731  0.00  0.00    +0.019 C 
ATOM     23  C   UNL     1      38.681 -23.798 -11.964  0.00  0.00    +0.002 C 
ATOM     24  C   UNL     1      36.222 -24.030 -12.366  0.00  0.00    +0.002 C 
ATOM     25  C   UNL     1      37.646 -26.062 -12.239  0.00  0.00    +0.002 C 
ENDBRANCH  21  22
BRANCH  21  26
ATOM     26  C   UNL     1      38.457 -25.809 -14.878  0.00  0.00    +0.157 C 
BRANCH  26  27
ATOM     27  O   UNL     1      37.491 -26.456 -15.705  0.00  0.00    -0.380 OA
ATOM     28  H   UNL     1      37.053 -25.798 -16.267  0.00  0.00    +0.211 HD
ENDBRANCH  26  27
ENDBRANCH  21  26
ENDBRANCH  18  21
ENDBRANCH  12  19
TORSDOF 5
ENDMDL
MODEL 4
REMARK VINA RESULT:      -9.1      3.179      7.308
REMARK  Name = 60164925
REMARK  5 active torsions:
REMARK  status: ('A' for Active; 'I' for Inactive)
REMARK    1  A    between atoms: C_12  and  C_19
REMARK    2  A    between atoms: N_18  and  CA_21
REMARK    3  A    between atoms: CA_21  and  C_22
REMARK    4  A    between atoms: CA_21  and  C_26
REMARK    5  A    between atoms: C_26  and  O_27
REMARK                            x       y       z     vdW  Elec       q    Type
REMARK                         _______ _______ _______ _____ _____    ______ ____
ROOT
ATOM      1  O   UNL     1      36.333 -21.658 -19.801  0.00  0.00    -0.084 OA
ATOM      2  N   UNL     1      33.027 -22.840 -16.702  0.00  0.00    -0.218 N 
ATOM      3  N   UNL     1      33.960 -23.325 -15.843  0.00  0.00    -0.160 NA
ATOM      4  N   UNL     1      32.409 -21.832 -18.733  0.00  0.00    -0.225 NA
ATOM      5  N   UNL     1      35.106 -21.714 -19.467  0.00  0.00    -0.196 N 
ATOM      6  C   UNL     1      29.561 -23.162 -15.335  0.00  0.00    +0.010 C 
ATOM      7  C   UNL     1      30.332 -22.670 -16.579  0.00  0.00    +0.040 C 
ATOM      8  C   UNL     1      29.327 -23.782 -16.686  0.00  0.00    +0.007 C 
ATOM      9  C   UNL     1      30.560 -23.759 -14.321  0.00  0.00    +0.030 C 
ATOM     10  C   UNL     1      31.785 -22.969 -16.207  0.00  0.00    +0.059 A 
ATOM     11  C   UNL     1      31.873 -23.556 -14.978  0.00  0.00    +0.015 A 
ATOM     12  C   UNL     1      33.239 -23.760 -14.792  0.00  0.00    +0.152 A 
ATOM     13  C   UNL     1      33.387 -22.292 -17.929  0.00  0.00    +0.165 C 
ATOM     14  C   UNL     1      34.730 -22.250 -18.258  0.00  0.00    +0.200 C 
ATOM     15  C   UNL     1      32.803 -21.311 -19.912  0.00  0.00    +0.121 C 
ATOM     16  C   UNL     1      34.127 -21.237 -20.309  0.00  0.00    +0.124 C 
ENDROOT
BRANCH  12  19
ATOM     17  O   UNL     1      33.264 -24.995 -12.799  0.00  0.00    -0.268 OA
ATOM     18  N   UNL     1      35.295 -24.197 -13.579  0.00  0.00    -0.299 N 
ATOM     19  C   UNL     1      33.925 -24.371 -13.624  0.00  0.00    +0.265 C 
ATOM     20  H   UNL     1      35.732 -23.677 -14.291  0.00  0.00    +0.150 HD
BRANCH  18  21
ATOM     21  CA  UNL     1      36.111 -24.756 -12.514  0.00  0.00    +0.101 C 
BRANCH  21  22
ATOM     22  C   UNL     1      37.640 -24.670 -12.842  0.00  0.00    +0.019 C 
ATOM     23  C   UNL     1      38.379 -23.716 -11.883  0.00  0.00    +0.002 C 
ATOM     24  C   UNL     1      38.293 -26.065 -12.743  0.00  0.00    +0.002 C 
ATOM     25  C   UNL     1      37.852 -24.170 -14.288  0.00  0.00    +0.002 C 
ENDBRANCH  21  22
BRANCH  21  26
ATOM     26  C   UNL     1      35.709 -24.093 -11.188  0.00  0.00    +0.157 C 
BRANCH  26  27
ATOM     27  O   UNL     1      35.194 -25.088 -10.305  0.00  0.00    -0.380 OA
ATOM     28  H   UNL     1      34.551 -25.638 -10.778  0.00  0.00    +0.211 HD
ENDBRANCH  26  27
ENDBRANCH  21  26
ENDBRANCH  18  21
ENDBRANCH  12  19
TORSDOF 5
ENDMDL
MODEL 5
REMARK VINA RESULT:      -8.4      6.731     11.071
REMARK  Name = 60164925
REMARK  5 active torsions:
REMARK  status: ('A' for Active; 'I' for Inactive)
REMARK    1  A    between atoms: C_12  and  C_19
REMARK    2  A    between atoms: N_18  and  CA_21
REMARK    3  A    between atoms: CA_21  and  C_22
REMARK    4  A    between atoms: CA_21  and  C_26
REMARK    5  A    between atoms: C_26  and  O_27
REMARK                            x       y       z     vdW  Elec       q    Type
REMARK                         _______ _______ _______ _____ _____    ______ ____
ROOT
ATOM      1  O   UNL     1      35.083 -19.429 -20.250  0.00  0.00    -0.084 OA
ATOM      2  N   UNL     1      33.841 -15.958 -23.137  0.00  0.00    -0.218 N 
ATOM      3  N   UNL     1      33.498 -15.165 -22.089  0.00  0.00    -0.160 NA
ATOM      4  N   UNL     1      34.650 -17.976 -24.027  0.00  0.00    -0.225 NA
ATOM      5  N   UNL     1      34.946 -18.975 -21.430  0.00  0.00    -0.196 N 
ATOM      6  C   UNL     1      33.322 -14.243 -26.419  0.00  0.00    +0.010 C 
ATOM      7  C   UNL     1      33.790 -15.583 -25.813  0.00  0.00    +0.040 C 
ATOM      8  C   UNL     1      32.591 -15.525 -26.718  0.00  0.00    +0.007 C 
ATOM      9  C   UNL     1      32.883 -13.296 -25.282  0.00  0.00    +0.030 C 
ATOM     10  C   UNL     1      33.642 -15.337 -24.311  0.00  0.00    +0.059 A 
ATOM     11  C   UNL     1      33.151 -14.089 -24.058  0.00  0.00    +0.015 A 
ATOM     12  C   UNL     1      33.077 -14.024 -22.668  0.00  0.00    +0.152 A 
ATOM     13  C   UNL     1      34.331 -17.244 -22.942  0.00  0.00    +0.165 C 
ATOM     14  C   UNL     1      34.464 -17.704 -21.644  0.00  0.00    +0.200 C 
ATOM     15  C   UNL     1      35.120 -19.217 -23.791  0.00  0.00    +0.121 C 
ATOM     16  C   UNL     1      35.279 -19.745 -22.522  0.00  0.00    +0.124 C 
ENDROOT
BRANCH  12  19
ATOM     17  O   UNL     1      32.363 -13.092 -20.639  0.00  0.00    -0.268 OA
ATOM     18  N   UNL     1      32.509 -11.674 -22.466  0.00  0.00    -0.299 N 
ATOM     19  C   UNL     1      32.609 -12.894 -21.825  0.00  0.00    +0.265 C 
ATOM     20  H   UNL     1      32.729 -11.620 -23.424  0.00  0.00    +0.150 HD
BRANCH  18  21
ATOM     21  CA  UNL     1      32.089 -10.468 -21.772  0.00  0.00    +0.101 C 
BRANCH  21  22
ATOM     22  C   UNL     1      32.415  -9.176 -22.594  0.00  0.00    +0.019 C 
ATOM     23  C   UNL     1      31.159  -8.600 -23.278  0.00  0.00    +0.002 C 
ATOM     24  C   UNL     1      33.014  -8.088 -21.677  0.00  0.00    +0.002 C 
ATOM     25  C   UNL     1      33.468  -9.483 -23.683  0.00  0.00    +0.002 C 
ENDBRANCH  21  22
BRANCH  21  26
ATOM     26  C   UNL     1      30.611 -10.615 -21.382  0.00  0.00    +0.157 C 
BRANCH  26  27
ATOM     27  O   UNL     1      30.514 -10.770 -19.967  0.00  0.00    -0.380 OA
ATOM     28  H   UNL     1      30.476 -11.714 -19.747  0.00  0.00    +0.211 HD
ENDBRANCH  26  27
ENDBRANCH  21  26
ENDBRANCH  18  21
ENDBRANCH  12  19
TORSDOF 5
ENDMDL
MODEL 6
REMARK VINA RESULT:      -8.3      8.480     12.849
REMARK  Name = 60164925
REMARK  5 active torsions:
REMARK  status: ('A' for Active; 'I' for Inactive)
REMARK    1  A    between atoms: C_12  and  C_19
REMARK    2  A    between atoms: N_18  and  CA_21
REMARK    3  A    between atoms: CA_21  and  C_22
REMARK    4  A    between atoms: CA_21  and  C_26
REMARK    5  A    between atoms: C_26  and  O_27
REMARK                            x       y       z     vdW  Elec       q    Type
REMARK                         _______ _______ _______ _____ _____    ______ ____
ROOT
ATOM      1  O   UNL     1      34.958 -16.162 -19.813  0.00  0.00    -0.084 OA
ATOM      2  N   UNL     1      34.056 -13.647 -23.658  0.00  0.00    -0.218 N 
ATOM      3  N   UNL     1      34.144 -12.486 -22.960  0.00  0.00    -0.160 NA
ATOM      4  N   UNL     1      34.135 -15.991 -23.796  0.00  0.00    -0.225 NA
ATOM      5  N   UNL     1      34.699 -16.108 -21.057  0.00  0.00    -0.196 N 
ATOM      6  C   UNL     1      33.318 -13.051 -27.276  0.00  0.00    +0.010 C 
ATOM      7  C   UNL     1      33.551 -14.189 -26.258  0.00  0.00    +0.040 C 
ATOM      8  C   UNL     1      32.245 -14.070 -26.993  0.00  0.00    +0.007 C 
ATOM      9  C   UNL     1      33.373 -11.694 -26.543  0.00  0.00    +0.030 C 
ATOM     10  C   UNL     1      33.781 -13.424 -24.954  0.00  0.00    +0.059 A 
ATOM     11  C   UNL     1      33.680 -12.076 -25.144  0.00  0.00    +0.015 A 
ATOM     12  C   UNL     1      33.912 -11.533 -23.882  0.00  0.00    +0.152 A 
ATOM     13  C   UNL     1      34.239 -14.879 -23.041  0.00  0.00    +0.165 C 
ATOM     14  C   UNL     1      34.517 -14.898 -21.686  0.00  0.00    +0.200 C 
ATOM     15  C   UNL     1      34.318 -17.164 -23.156  0.00  0.00    +0.121 C 
ATOM     16  C   UNL     1      34.598 -17.260 -21.804  0.00  0.00    +0.124 C 
ENDROOT
BRANCH  12  19
ATOM     17  O   UNL     1      34.804  -9.364 -23.926  0.00  0.00    -0.268 OA
ATOM     18  N   UNL     1      32.899  -9.704 -22.650  0.00  0.00    -0.299 N 
ATOM     19  C   UNL     1      33.924 -10.100 -23.487  0.00  0.00    +0.265 C 
ATOM     20  H   UNL     1      32.242 -10.373 -22.352  0.00  0.00    +0.150 HD
BRANCH  18  21
ATOM     21  CA  UNL     1      32.759  -8.330 -22.196  0.00  0.00    +0.101 C 
BRANCH  21  22
ATOM     22  C   UNL     1      31.907  -7.469 -23.188  0.00  0.00    +0.019 C 
ATOM     23  C   UNL     1      32.794  -6.673 -24.165  0.00  0.00    +0.002 C 
ATOM     24  C   UNL     1      30.962  -8.370 -24.010  0.00  0.00    +0.002 C 
ATOM     25  C   UNL     1      31.021  -6.471 -22.408  0.00  0.00    +0.002 C 
ENDBRANCH  21  22
BRANCH  21  26
ATOM     26  C   UNL     1      32.233  -8.341 -20.753  0.00  0.00    +0.157 C 
BRANCH  26  27
ATOM     27  O   UNL     1      33.159  -7.657 -19.912  0.00  0.00    -0.380 OA
ATOM     28  H   UNL     1      33.254  -6.740 -20.213  0.00  0.00    +0.211 HD
ENDBRANCH  26  27
ENDBRANCH  21  26
ENDBRANCH  18  21
ENDBRANCH  12  19
TORSDOF 5
ENDMDL
MODEL 7
REMARK VINA RESULT:      -8.3      2.782      6.950
REMARK  Name = 60164925
REMARK  5 active torsions:
REMARK  status: ('A' for Active; 'I' for Inactive)
REMARK    1  A    between atoms: C_12  and  C_19
REMARK    2  A    between atoms: N_18  and  CA_21
REMARK    3  A    between atoms: CA_21  and  C_22
REMARK    4  A    between atoms: CA_21  and  C_26
REMARK    5  A    between atoms: C_26  and  O_27
REMARK                            x       y       z     vdW  Elec       q    Type
REMARK                         _______ _______ _______ _____ _____    ______ ____
ROOT
ATOM      1  O   UNL     1      36.076 -20.465 -21.182  0.00  0.00    -0.084 OA
ATOM      2  N   UNL     1      33.823 -22.527 -17.633  0.00  0.00    -0.218 N 
ATOM      3  N   UNL     1      34.975 -23.089 -17.185  0.00  0.00    -0.160 NA
ATOM      4  N   UNL     1      32.624 -21.195 -19.152  0.00  0.00    -0.225 NA
ATOM      5  N   UNL     1      34.997 -20.694 -20.548  0.00  0.00    -0.196 N 
ATOM      6  C   UNL     1      30.900 -23.420 -15.479  0.00  0.00    +0.010 C 
ATOM      7  C   UNL     1      31.270 -22.624 -16.749  0.00  0.00    +0.040 C 
ATOM      8  C   UNL     1      30.309 -23.778 -16.817  0.00  0.00    +0.007 C 
ATOM      9  C   UNL     1      32.162 -24.116 -14.927  0.00  0.00    +0.030 C 
ATOM     10  C   UNL     1      32.777 -22.862 -16.859  0.00  0.00    +0.059 A 
ATOM     11  C   UNL     1      33.228 -23.671 -15.857  0.00  0.00    +0.015 A 
ATOM     12  C   UNL     1      34.596 -23.786 -16.097  0.00  0.00    +0.152 A 
ATOM     13  C   UNL     1      33.804 -21.717 -18.763  0.00  0.00    +0.165 C 
ATOM     14  C   UNL     1      34.996 -21.492 -19.427  0.00  0.00    +0.200 C 
ATOM     15  C   UNL     1      32.652 -20.417 -20.253  0.00  0.00    +0.121 C 
ATOM     16  C   UNL     1      33.805 -20.148 -20.969  0.00  0.00    +0.124 C 
ENDROOT
BRANCH  12  19
ATOM     17  O   UNL     1      35.396 -25.739 -15.076  0.00  0.00    -0.268 OA
ATOM     18  N   UNL     1      36.731 -23.850 -14.946  0.00  0.00    -0.299 N 
ATOM     19  C   UNL     1      35.603 -24.554 -15.320  0.00  0.00    +0.265 C 
ATOM     20  H   UNL     1      36.801 -22.899 -15.190  0.00  0.00    +0.150 HD
BRANCH  18  21
ATOM     21  CA  UNL     1      37.818 -24.467 -14.204  0.00  0.00    +0.101 C 
BRANCH  21  22
ATOM     22  C   UNL     1      37.525 -24.512 -12.666  0.00  0.00    +0.019 C 
ATOM     23  C   UNL     1      36.251 -23.725 -12.302  0.00  0.00    +0.002 C 
ATOM     24  C   UNL     1      37.351 -25.970 -12.192  0.00  0.00    +0.002 C 
ATOM     25  C   UNL     1      38.711 -23.915 -11.876  0.00  0.00    +0.002 C 
ENDBRANCH  21  22
BRANCH  21  26
ATOM     26  C   UNL     1      38.125 -25.835 -14.830  0.00  0.00    +0.157 C 
BRANCH  26  27
ATOM     27  O   UNL     1      39.405 -25.784 -15.458  0.00  0.00    -0.380 OA
ATOM     28  H   UNL     1      40.090 -25.643 -14.786  0.00  0.00    +0.211 HD
ENDBRANCH  26  27
ENDBRANCH  21  26
ENDBRANCH  18  21
ENDBRANCH  12  19
TORSDOF 5
ENDMDL
MODEL 8
REMARK VINA RESULT:      -8.3      7.708     12.231
REMARK  Name = 60164925
REMARK  5 active torsions:
REMARK  status: ('A' for Active; 'I' for Inactive)
REMARK    1  A    between atoms: C_12  and  C_19
REMARK    2  A    between atoms: N_18  and  CA_21
REMARK    3  A    between atoms: CA_21  and  C_22
REMARK    4  A    between atoms: CA_21  and  C_26
REMARK    5  A    between atoms: C_26  and  O_27
REMARK                            x       y       z     vdW  Elec       q    Type
REMARK                         _______ _______ _______ _____ _____    ______ ____
ROOT
ATOM      1  O   UNL     1      31.667  -8.451 -19.487  0.00  0.00    -0.084 OA
ATOM      2  N   UNL     1      32.787 -11.436 -22.917  0.00  0.00    -0.218 N 
ATOM      3  N   UNL     1      32.714 -12.492 -22.066  0.00  0.00    -0.160 NA
ATOM      4  N   UNL     1      32.633  -9.138 -23.381  0.00  0.00    -0.225 NA
ATOM      5  N   UNL     1      31.970  -8.666 -20.704  0.00  0.00    -0.196 N 
ATOM      6  C   UNL     1      33.669 -12.497 -26.393  0.00  0.00    +0.010 C 
ATOM      7  C   UNL     1      33.362 -11.240 -25.551  0.00  0.00    +0.040 C 
ATOM      8  C   UNL     1      34.696 -11.409 -26.223  0.00  0.00    +0.007 C 
ATOM      9  C   UNL     1      33.636 -13.741 -25.480  0.00  0.00    +0.030 C 
ATOM     10  C   UNL     1      33.114 -11.826 -24.160  0.00  0.00    +0.059 A 
ATOM     11  C   UNL     1      33.268 -13.182 -24.158  0.00  0.00    +0.015 A 
ATOM     12  C   UNL     1      33.011 -13.554 -22.839  0.00  0.00    +0.152 A 
ATOM     13  C   UNL     1      32.541 -10.139 -22.483  0.00  0.00    +0.165 C 
ATOM     14  C   UNL     1      32.215  -9.944 -21.152  0.00  0.00    +0.200 C 
ATOM     15  C   UNL     1      32.387  -7.897 -22.917  0.00  0.00    +0.121 C 
ATOM     16  C   UNL     1      32.058  -7.625 -21.601  0.00  0.00    +0.124 C 
ENDROOT
BRANCH  12  19
ATOM     17  O   UNL     1      32.099 -15.281 -21.540  0.00  0.00    -0.268 OA
ATOM     18  N   UNL     1      34.130 -15.691 -22.578  0.00  0.00    -0.299 N 
ATOM     19  C   UNL     1      33.034 -14.918 -22.249  0.00  0.00    +0.265 C 
ATOM     20  H   UNL     1      34.829 -15.306 -23.154  0.00  0.00    +0.150 HD
BRANCH  18  21
ATOM     21  CA  UNL     1      34.286 -17.055 -22.100  0.00  0.00    +0.101 C 
BRANCH  21  22
ATOM     22  C   UNL     1      34.997 -17.967 -23.155  0.00  0.00    +0.019 C 
ATOM     23  C   UNL     1      34.991 -17.332 -24.559  0.00  0.00    +0.002 C 
ATOM     24  C   UNL     1      36.462 -18.228 -22.744  0.00  0.00    +0.002 C 
ATOM     25  C   UNL     1      34.296 -19.342 -23.237  0.00  0.00    +0.002 C 
ENDBRANCH  21  22
BRANCH  21  26
ATOM     26  C   UNL     1      34.974 -17.019 -20.727  0.00  0.00    +0.157 C 
BRANCH  26  27
ATOM     27  O   UNL     1      34.962 -15.681 -20.233  0.00  0.00    -0.380 OA
ATOM     28  H   UNL     1      34.065 -15.320 -20.299  0.00  0.00    +0.211 HD
ENDBRANCH  26  27
ENDBRANCH  21  26
ENDBRANCH  18  21
ENDBRANCH  12  19
TORSDOF 5
ENDMDL
MODEL 9
REMARK VINA RESULT:      -7.8      2.790      5.205
REMARK  Name = 60164925
REMARK  5 active torsions:
REMARK  status: ('A' for Active; 'I' for Inactive)
REMARK    1  A    between atoms: C_12  and  C_19
REMARK    2  A    between atoms: N_18  and  CA_21
REMARK    3  A    between atoms: CA_21  and  C_22
REMARK    4  A    between atoms: CA_21  and  C_26
REMARK    5  A    between atoms: C_26  and  O_27
REMARK                            x       y       z     vdW  Elec       q    Type
REMARK                         _______ _______ _______ _____ _____    ______ ____
ROOT
ATOM      1  O   UNL     1      38.324 -23.394 -12.782  0.00  0.00    -0.084 OA
ATOM      2  N   UNL     1      33.927 -23.894 -14.313  0.00  0.00    -0.218 N 
ATOM      3  N   UNL     1      34.256 -23.379 -15.525  0.00  0.00    -0.160 NA
ATOM      4  N   UNL     1      34.477 -24.549 -12.125  0.00  0.00    -0.225 NA
ATOM      5  N   UNL     1      37.121 -23.753 -12.577  0.00  0.00    -0.196 N 
ATOM      6  C   UNL     1      30.317 -24.854 -14.132  0.00  0.00    +0.010 C 
ATOM      7  C   UNL     1      31.607 -24.822 -13.283  0.00  0.00    +0.040 C 
ATOM      8  C   UNL     1      30.395 -24.033 -12.871  0.00  0.00    +0.007 C 
ATOM      9  C   UNL     1      30.608 -24.250 -15.522  0.00  0.00    +0.030 C 
ATOM     10  C   UNL     1      32.627 -24.226 -14.254  0.00  0.00    +0.059 A 
ATOM     11  C   UNL     1      32.054 -23.930 -15.457  0.00  0.00    +0.015 A 
ATOM     12  C   UNL     1      33.100 -23.407 -16.216  0.00  0.00    +0.152 A 
ATOM     13  C   UNL     1      34.874 -24.031 -13.304  0.00  0.00    +0.165 C 
ATOM     14  C   UNL     1      36.171 -23.628 -13.564  0.00  0.00    +0.200 C 
ATOM     15  C   UNL     1      35.427 -24.662 -11.175  0.00  0.00    +0.121 C 
ATOM     16  C   UNL     1      36.743 -24.279 -11.362  0.00  0.00    +0.124 C 
ENDROOT
BRANCH  12  19
ATOM     17  O   UNL     1      32.054 -22.330 -18.017  0.00  0.00    -0.268 OA
ATOM     18  N   UNL     1      34.201 -23.132 -18.360  0.00  0.00    -0.299 N 
ATOM     19  C   UNL     1      33.059 -22.910 -17.615  0.00  0.00    +0.265 C 
ATOM     20  H   UNL     1      34.955 -23.609 -17.945  0.00  0.00    +0.150 HD
BRANCH  18  21
ATOM     21  CA  UNL     1      34.326 -22.683 -19.738  0.00  0.00    +0.101 C 
BRANCH  21  22
ATOM     22  C   UNL     1      35.362 -21.518 -19.882  0.00  0.00    +0.019 C 
ATOM     23  C   UNL     1      34.676 -20.180 -20.219  0.00  0.00    +0.002 C 
ATOM     24  C   UNL     1      36.162 -21.341 -18.574  0.00  0.00    +0.002 C 
ATOM     25  C   UNL     1      36.381 -21.841 -20.998  0.00  0.00    +0.002 C 
ENDBRANCH  21  22
BRANCH  21  26
ATOM     26  C   UNL     1      34.615 -23.902 -20.626  0.00  0.00    +0.157 C 
BRANCH  26  27
ATOM     27  O   UNL     1      33.862 -25.017 -20.151  0.00  0.00    -0.380 OA
ATOM     28  H   UNL     1      34.468 -25.711 -19.849  0.00  0.00    +0.211 HD
ENDBRANCH  26  27
ENDBRANCH  21  26
ENDBRANCH  18  21
ENDBRANCH  12  19
TORSDOF 5
ENDMDL
