MODEL 1
REMARK VINA RESULT:     -10.2      0.000      0.000
REMARK  Name = 5744
REMARK  6 active torsions:
REMARK  status: ('A' for Active; 'I' for Inactive)
REMARK    1  A    between atoms: C_6  and  O_21
REMARK    2  A    between atoms: C_6  and  C_26
REMARK    3  A    between atoms: C_9  and  O_23
REMARK    4  A    between atoms: C_26  and  C_27
REMARK    5  A    between atoms: C_27  and  O_28
REMARK    6  A    between atoms: O_28  and  C_30
REMARK                            x       y       z     vdW  Elec       q    Type
REMARK                         _______ _______ _______ _____ _____    ______ ____
ROOT
ATOM      1  O   UNL     1      40.114 -26.191 -14.232  0.00  0.00    -0.291 OA
ATOM      2  C   UNL     1      32.071 -23.671 -14.808  0.00  0.00    +0.031 C 
ATOM      3  C   UNL     1      33.172 -23.578 -15.886  0.00  0.00    +0.003 C 
ATOM      4  C   UNL     1      34.564 -23.261 -15.318  0.00  0.00    +0.003 C 
ATOM      5  C   UNL     1      34.968 -24.391 -14.316  0.00  0.00    +0.030 C 
ATOM      6  C   UNL     1      30.840 -23.923 -15.721  0.00  0.00    +0.143 C 
ATOM      7  C   UNL     1      32.454 -24.821 -13.855  0.00  0.00    +0.032 C 
ATOM      8  C   UNL     1      36.438 -24.217 -13.752  0.00  0.00    +0.018 C 
ATOM      9  C   UNL     1      33.865 -24.661 -13.247  0.00  0.00    +0.111 C 
ATOM     10  C   UNL     1      32.570 -22.638 -16.927  0.00  0.00    +0.003 C 
ATOM     11  C   UNL     1      31.068 -22.991 -16.933  0.00  0.00    +0.034 C 
ATOM     12  C   UNL     1      35.595 -23.161 -16.454  0.00  0.00    +0.004 C 
ATOM     13  C   UNL     1      31.871 -22.347 -14.020  0.00  0.00    +0.003 C 
ATOM     14  C   UNL     1      37.403 -23.987 -14.922  0.00  0.00    -0.042 C 
ATOM     15  C   UNL     1      37.001 -22.931 -15.923  0.00  0.00    +0.022 C 
ATOM     16  C   UNL     1      36.820 -25.523 -12.996  0.00  0.00    +0.012 C 
ATOM     17  C   UNL     1      36.594 -23.017 -12.790  0.00  0.00    +0.004 C 
ATOM     18  C   UNL     1      38.314 -25.665 -12.745  0.00  0.00    +0.069 C 
ATOM     19  C   UNL     1      38.571 -24.634 -15.076  0.00  0.00    +0.029 C 
ATOM     20  C   UNL     1      39.070 -25.571 -14.043  0.00  0.00    +0.173 C 
ENDROOT
BRANCH   6  21
ATOM     21  O   UNL     1      30.799 -25.275 -16.170  0.00  0.00    -0.380 OA
ATOM     22  H   UNL     1      31.172 -25.331 -17.064  0.00  0.00    +0.211 HD
ENDBRANCH   6  21
BRANCH   9  23
ATOM     23  O   UNL     1      33.839 -23.641 -12.259  0.00  0.00    -0.384 OA
ATOM     24  H   UNL     1      34.691 -23.618 -11.796  0.00  0.00    +0.210 HD
ENDBRANCH   9  23
BRANCH   6  26
ATOM     25  O   UNL     1      29.059 -24.540 -14.262  0.00  0.00    -0.290 OA
ATOM     26  C   UNL     1      29.523 -23.705 -15.037  0.00  0.00    +0.218 C 
BRANCH  26  27
ATOM     27  C   UNL     1      28.807 -22.410 -15.357  0.00  0.00    +0.274 C 
BRANCH  27  28
ATOM     28  O   UNL     1      27.485 -22.665 -15.783  0.00  0.00    -0.440 OA
BRANCH  28  30
ATOM     29  O   UNL     1      27.724 -23.270 -18.001  0.00  0.00    -0.250 OA
ATOM     30  C   UNL     1      27.250 -22.551 -17.130  0.00  0.00    +0.318 C 
ATOM     31  C   UNL     1      26.319 -21.409 -17.401  0.00  0.00    +0.121 C 
ENDBRANCH  28  30
ENDBRANCH  27  28
ENDBRANCH  26  27
ENDBRANCH   6  26
TORSDOF 6
ENDMDL
MODEL 2
REMARK VINA RESULT:      -8.6      9.799     12.502
REMARK  Name = 5744
REMARK  6 active torsions:
REMARK  status: ('A' for Active; 'I' for Inactive)
REMARK    1  A    between atoms: C_6  and  O_21
REMARK    2  A    between atoms: C_6  and  C_26
REMARK    3  A    between atoms: C_9  and  O_23
REMARK    4  A    between atoms: C_26  and  C_27
REMARK    5  A    between atoms: C_27  and  O_28
REMARK    6  A    between atoms: O_28  and  C_30
REMARK                            x       y       z     vdW  Elec       q    Type
REMARK                         _______ _______ _______ _____ _____    ______ ____
ROOT
ATOM      1  O   UNL     1      34.307 -10.137 -25.862  0.00  0.00    -0.291 OA
ATOM      2  C   UNL     1      34.793 -17.662 -22.053  0.00  0.00    +0.031 C 
ATOM      3  C   UNL     1      34.793 -17.366 -23.568  0.00  0.00    +0.003 C 
ATOM      4  C   UNL     1      33.872 -16.203 -23.967  0.00  0.00    +0.003 C 
ATOM      5  C   UNL     1      34.345 -14.910 -23.225  0.00  0.00    +0.030 C 
ATOM      6  C   UNL     1      35.742 -18.893 -22.034  0.00  0.00    +0.143 C 
ATOM      7  C   UNL     1      35.310 -16.399 -21.335  0.00  0.00    +0.032 C 
ATOM      8  C   UNL     1      33.527 -13.622 -23.650  0.00  0.00    +0.018 C 
ATOM      9  C   UNL     1      34.505 -15.129 -21.689  0.00  0.00    +0.111 C 
ATOM     10  C   UNL     1      34.560 -18.738 -24.197  0.00  0.00    +0.003 C 
ATOM     11  C   UNL     1      35.329 -19.711 -23.278  0.00  0.00    +0.034 C 
ATOM     12  C   UNL     1      33.908 -15.990 -25.488  0.00  0.00    +0.004 C 
ATOM     13  C   UNL     1      33.399 -18.073 -21.507  0.00  0.00    +0.003 C 
ATOM     14  C   UNL     1      33.484 -13.535 -25.181  0.00  0.00    -0.042 C 
ATOM     15  C   UNL     1      33.074 -14.790 -25.911  0.00  0.00    +0.022 C 
ATOM     16  C   UNL     1      34.255 -12.376 -23.067  0.00  0.00    +0.012 C 
ATOM     17  C   UNL     1      32.064 -13.626 -23.152  0.00  0.00    +0.004 C 
ATOM     18  C   UNL     1      33.826 -11.065 -23.708  0.00  0.00    +0.069 C 
ATOM     19  C   UNL     1      33.749 -12.419 -25.881  0.00  0.00    +0.029 C 
ATOM     20  C   UNL     1      34.014 -11.131 -25.200  0.00  0.00    +0.173 C 
ENDROOT
BRANCH   6  21
ATOM     21  O   UNL     1      37.105 -18.496 -22.163  0.00  0.00    -0.380 OA
ATOM     22  H   UNL     1      37.164 -17.528 -22.124  0.00  0.00    +0.211 HD
ENDBRANCH   6  21
BRANCH   9  23
ATOM     23  O   UNL     1      33.244 -15.174 -21.037  0.00  0.00    -0.384 OA
ATOM     24  H   UNL     1      33.374 -15.138 -20.077  0.00  0.00    +0.210 HD
ENDBRANCH   9  23
BRANCH   6  26
ATOM     25  O   UNL     1      36.543 -19.532 -19.881  0.00  0.00    -0.290 OA
ATOM     26  C   UNL     1      35.691 -19.678 -20.757  0.00  0.00    +0.218 C 
BRANCH  26  27
ATOM     27  C   UNL     1      34.541 -20.653 -20.614  0.00  0.00    +0.274 C 
BRANCH  27  28
ATOM     28  O   UNL     1      34.873 -21.687 -19.711  0.00  0.00    -0.440 OA
BRANCH  28  30
ATOM     29  O   UNL     1      32.661 -22.034 -19.138  0.00  0.00    -0.250 OA
ATOM     30  C   UNL     1      33.859 -22.133 -18.902  0.00  0.00    +0.318 C 
ATOM     31  C   UNL     1      34.421 -22.770 -17.669  0.00  0.00    +0.121 C 
ENDBRANCH  28  30
ENDBRANCH  27  28
ENDBRANCH  26  27
ENDBRANCH   6  26
TORSDOF 6
ENDMDL
MODEL 3
REMARK VINA RESULT:      -8.5      1.590      8.176
REMARK  Name = 5744
REMARK  6 active torsions:
REMARK  status: ('A' for Active; 'I' for Inactive)
REMARK    1  A    between atoms: C_6  and  O_21
REMARK    2  A    between atoms: C_6  and  C_26
REMARK    3  A    between atoms: C_9  and  O_23
REMARK    4  A    between atoms: C_26  and  C_27
REMARK    5  A    between atoms: C_27  and  O_28
REMARK    6  A    between atoms: O_28  and  C_30
REMARK                            x       y       z     vdW  Elec       q    Type
REMARK                         _______ _______ _______ _____ _____    ______ ____
ROOT
ATOM      1  O   UNL     1      27.797 -21.660 -16.311  0.00  0.00    -0.291 OA
ATOM      2  C   UNL     1      35.455 -24.214 -13.821  0.00  0.00    +0.031 C 
ATOM      3  C   UNL     1      35.106 -23.271 -14.993  0.00  0.00    +0.003 C 
ATOM      4  C   UNL     1      33.817 -23.661 -15.732  0.00  0.00    +0.003 C 
ATOM      5  C   UNL     1      32.627 -23.628 -14.718  0.00  0.00    +0.030 C 
ATOM      6  C   UNL     1      36.801 -23.578 -13.374  0.00  0.00    +0.143 C 
ATOM      7  C   UNL     1      34.300 -24.134 -12.803  0.00  0.00    +0.032 C 
ATOM      8  C   UNL     1      31.227 -23.909 -15.402  0.00  0.00    +0.018 C 
ATOM      9  C   UNL     1      32.922 -24.450 -13.426  0.00  0.00    +0.111 C 
ATOM     10  C   UNL     1      36.410 -23.189 -15.782  0.00  0.00    +0.003 C 
ATOM     11  C   UNL     1      37.511 -23.219 -14.700  0.00  0.00    +0.034 C 
ATOM     12  C   UNL     1      33.554 -22.692 -16.895  0.00  0.00    +0.004 C 
ATOM     13  C   UNL     1      35.697 -25.683 -14.265  0.00  0.00    +0.003 C 
ATOM     14  C   UNL     1      31.078 -23.008 -16.635  0.00  0.00    -0.042 C 
ATOM     15  C   UNL     1      32.240 -22.995 -17.598  0.00  0.00    +0.022 C 
ATOM     16  C   UNL     1      30.111 -23.582 -14.368  0.00  0.00    +0.012 C 
ATOM     17  C   UNL     1      31.054 -25.369 -15.881  0.00  0.00    +0.004 C 
ATOM     18  C   UNL     1      28.732 -23.424 -14.990  0.00  0.00    +0.069 C 
ATOM     19  C   UNL     1      29.982 -22.281 -16.911  0.00  0.00    +0.029 C 
ATOM     20  C   UNL     1      28.767 -22.376 -16.070  0.00  0.00    +0.173 C 
ENDROOT
BRANCH   6  21
ATOM     21  O   UNL     1      36.584 -22.388 -12.620  0.00  0.00    -0.380 OA
ATOM     22  H   UNL     1      36.267 -21.686 -13.209  0.00  0.00    +0.211 HD
ENDBRANCH   6  21
BRANCH   9  23
ATOM     23  O   UNL     1      32.823 -25.847 -13.666  0.00  0.00    -0.384 OA
ATOM     24  H   UNL     1      33.707 -26.212 -13.825  0.00  0.00    +0.210 HD
ENDBRANCH   9  23
BRANCH   6  26
ATOM     25  O   UNL     1      37.133 -24.972 -11.470  0.00  0.00    -0.290 OA
ATOM     26  C   UNL     1      37.619 -24.458 -12.477  0.00  0.00    +0.218 C 
BRANCH  26  27
ATOM     27  C   UNL     1      39.063 -24.672 -12.880  0.00  0.00    +0.274 C 
BRANCH  27  28
ATOM     28  O   UNL     1      39.248 -25.972 -13.398  0.00  0.00    -0.440 OA
BRANCH  28  30
ATOM     29  O   UNL     1      41.287 -26.877 -14.002  0.00  0.00    -0.250 OA
ATOM     30  C   UNL     1      40.331 -26.146 -14.223  0.00  0.00    +0.318 C 
ATOM     31  C   UNL     1      40.186 -25.305 -15.454  0.00  0.00    +0.121 C 
ENDBRANCH  28  30
ENDBRANCH  27  28
ENDBRANCH  26  27
ENDBRANCH   6  26
TORSDOF 6
ENDMDL
MODEL 4
REMARK VINA RESULT:      -7.8     13.543     16.338
REMARK  Name = 5744
REMARK  6 active torsions:
REMARK  status: ('A' for Active; 'I' for Inactive)
REMARK    1  A    between atoms: C_6  and  O_21
REMARK    2  A    between atoms: C_6  and  C_26
REMARK    3  A    between atoms: C_9  and  O_23
REMARK    4  A    between atoms: C_26  and  C_27
REMARK    5  A    between atoms: C_27  and  O_28
REMARK    6  A    between atoms: O_28  and  C_30
REMARK                            x       y       z     vdW  Elec       q    Type
REMARK                         _______ _______ _______ _____ _____    ______ ____
ROOT
ATOM      1  O   UNL     1      30.585  -4.635 -23.301  0.00  0.00    -0.291 OA
ATOM      2  C   UNL     1      33.318 -12.628 -23.295  0.00  0.00    +0.031 C 
ATOM      3  C   UNL     1      32.291 -11.978 -22.344  0.00  0.00    +0.003 C 
ATOM      4  C   UNL     1      32.624 -10.523 -21.981  0.00  0.00    +0.003 C 
ATOM      5  C   UNL     1      32.666  -9.675 -23.294  0.00  0.00    +0.030 C 
ATOM      6  C   UNL     1      32.718 -14.059 -23.380  0.00  0.00    +0.143 C 
ATOM      7  C   UNL     1      33.315 -11.815 -24.605  0.00  0.00    +0.032 C 
ATOM      8  C   UNL     1      32.896  -8.131 -23.022  0.00  0.00    +0.018 C 
ATOM      9  C   UNL     1      33.583 -10.310 -24.384  0.00  0.00    +0.111 C 
ATOM     10  C   UNL     1      32.150 -13.003 -21.221  0.00  0.00    +0.003 C 
ATOM     11  C   UNL     1      32.261 -14.366 -21.936  0.00  0.00    +0.034 C 
ATOM     12  C   UNL     1      31.571  -9.959 -21.014  0.00  0.00    +0.004 C 
ATOM     13  C   UNL     1      34.750 -12.701 -22.696  0.00  0.00    +0.003 C 
ATOM     14  C   UNL     1      31.905  -7.655 -21.952  0.00  0.00    -0.042 C 
ATOM     15  C   UNL     1      31.821  -8.492 -20.699  0.00  0.00    +0.022 C 
ATOM     16  C   UNL     1      32.647  -7.366 -24.355  0.00  0.00    +0.012 C 
ATOM     17  C   UNL     1      34.315  -7.798 -22.510  0.00  0.00    +0.004 C 
ATOM     18  C   UNL     1      32.442  -5.871 -24.168  0.00  0.00    +0.069 C 
ATOM     19  C   UNL     1      31.159  -6.542 -22.056  0.00  0.00    +0.029 C 
ATOM     20  C   UNL     1      31.317  -5.617 -23.202  0.00  0.00    +0.173 C 
ENDROOT
BRANCH   6  21
ATOM     21  O   UNL     1      31.588 -14.094 -24.248  0.00  0.00    -0.380 OA
ATOM     22  H   UNL     1      31.348 -13.188 -24.502  0.00  0.00    +0.211 HD
ENDBRANCH   6  21
BRANCH   9  23
ATOM     23  O   UNL     1      34.958 -10.116 -24.083  0.00  0.00    -0.384 OA
ATOM     24  H   UNL     1      35.348  -9.505 -24.728  0.00  0.00    +0.210 HD
ENDBRANCH   9  23
BRANCH   6  26
ATOM     25  O   UNL     1      33.866 -15.169 -25.150  0.00  0.00    -0.290 OA
ATOM     26  C   UNL     1      33.663 -15.081 -23.940  0.00  0.00    +0.218 C 
BRANCH  26  27
ATOM     27  C   UNL     1      34.342 -15.988 -22.935  0.00  0.00    +0.274 C 
BRANCH  27  28
ATOM     28  O   UNL     1      35.260 -16.846 -23.579  0.00  0.00    -0.440 OA
BRANCH  28  30
ATOM     29  O   UNL     1      35.062 -18.890 -22.519  0.00  0.00    -0.250 OA
ATOM     30  C   UNL     1      34.980 -18.187 -23.518  0.00  0.00    +0.318 C 
ATOM     31  C   UNL     1      34.551 -18.689 -24.863  0.00  0.00    +0.121 C 
ENDBRANCH  28  30
ENDBRANCH  27  28
ENDBRANCH  26  27
ENDBRANCH   6  26
TORSDOF 6
ENDMDL
MODEL 5
REMARK VINA RESULT:      -7.8      3.289      7.676
REMARK  Name = 5744
REMARK  6 active torsions:
REMARK  status: ('A' for Active; 'I' for Inactive)
REMARK    1  A    between atoms: C_6  and  O_21
REMARK    2  A    between atoms: C_6  and  C_26
REMARK    3  A    between atoms: C_9  and  O_23
REMARK    4  A    between atoms: C_26  and  C_27
REMARK    5  A    between atoms: C_27  and  O_28
REMARK    6  A    between atoms: O_28  and  C_30
REMARK                            x       y       z     vdW  Elec       q    Type
REMARK                         _______ _______ _______ _____ _____    ______ ____
ROOT
ATOM      1  O   UNL     1      33.561 -18.521 -21.724  0.00  0.00    -0.291 OA
ATOM      2  C   UNL     1      35.439 -23.613 -15.250  0.00  0.00    +0.031 C 
ATOM      3  C   UNL     1      36.361 -22.589 -15.948  0.00  0.00    +0.003 C 
ATOM      4  C   UNL     1      36.137 -22.495 -17.465  0.00  0.00    +0.003 C 
ATOM      5  C   UNL     1      34.656 -22.067 -17.729  0.00  0.00    +0.030 C 
ATOM      6  C   UNL     1      35.977 -23.490 -13.797  0.00  0.00    +0.143 C 
ATOM      7  C   UNL     1      33.984 -23.153 -15.473  0.00  0.00    +0.032 C 
ATOM      8  C   UNL     1      34.348 -21.835 -19.265  0.00  0.00    +0.018 C 
ATOM      9  C   UNL     1      33.632 -22.962 -16.965  0.00  0.00    +0.111 C 
ATOM     10  C   UNL     1      37.750 -22.951 -15.429  0.00  0.00    +0.003 C 
ATOM     11  C   UNL     1      37.508 -23.379 -13.966  0.00  0.00    +0.034 C 
ATOM     12  C   UNL     1      37.106 -21.477 -18.086  0.00  0.00    +0.004 C 
ATOM     13  C   UNL     1      35.641 -25.067 -15.757  0.00  0.00    +0.003 C 
ATOM     14  C   UNL     1      35.424 -20.918 -19.863  0.00  0.00    -0.042 C 
ATOM     15  C   UNL     1      36.857 -21.294 -19.575  0.00  0.00    +0.022 C 
ATOM     16  C   UNL     1      32.951 -21.157 -19.378  0.00  0.00    +0.012 C 
ATOM     17  C   UNL     1      34.343 -23.136 -20.099  0.00  0.00    +0.004 C 
ATOM     18  C   UNL     1      32.692 -20.520 -20.735  0.00  0.00    +0.069 C 
ATOM     19  C   UNL     1      35.162 -19.852 -20.637  0.00  0.00    +0.029 C 
ATOM     20  C   UNL     1      33.779 -19.533 -21.061  0.00  0.00    +0.173 C 
ENDROOT
BRANCH   6  21
ATOM     21  O   UNL     1      35.486 -22.311 -13.163  0.00  0.00    -0.380 OA
ATOM     22  H   UNL     1      35.078 -21.734 -13.827  0.00  0.00    +0.211 HD
ENDBRANCH   6  21
BRANCH   9  23
ATOM     23  O   UNL     1      33.491 -24.233 -17.583  0.00  0.00    -0.384 OA
ATOM     24  H   UNL     1      32.804 -24.187 -18.266  0.00  0.00    +0.210 HD
ENDBRANCH   9  23
BRANCH   6  26
ATOM     25  O   UNL     1      34.365 -24.856 -12.693  0.00  0.00    -0.290 OA
ATOM     26  C   UNL     1      35.553 -24.614 -12.897  0.00  0.00    +0.218 C 
BRANCH  26  27
ATOM     27  C   UNL     1      36.666 -25.421 -12.263  0.00  0.00    +0.274 C 
BRANCH  27  28
ATOM     28  O   UNL     1      36.863 -26.633 -12.961  0.00  0.00    -0.440 OA
BRANCH  28  30
ATOM     29  O   UNL     1      38.030 -27.318 -14.834  0.00  0.00    -0.250 OA
ATOM     30  C   UNL     1      37.955 -26.683 -13.790  0.00  0.00    +0.318 C 
ATOM     31  C   UNL     1      39.064 -25.840 -13.238  0.00  0.00    +0.121 C 
ENDBRANCH  28  30
ENDBRANCH  27  28
ENDBRANCH  26  27
ENDBRANCH   6  26
TORSDOF 6
ENDMDL
MODEL 6
REMARK VINA RESULT:      -7.5     14.696     16.712
REMARK  Name = 5744
REMARK  6 active torsions:
REMARK  status: ('A' for Active; 'I' for Inactive)
REMARK    1  A    between atoms: C_6  and  O_21
REMARK    2  A    between atoms: C_6  and  C_26
REMARK    3  A    between atoms: C_9  and  O_23
REMARK    4  A    between atoms: C_26  and  C_27
REMARK    5  A    between atoms: C_27  and  O_28
REMARK    6  A    between atoms: O_28  and  C_30
REMARK                            x       y       z     vdW  Elec       q    Type
REMARK                         _______ _______ _______ _____ _____    ______ ____
ROOT
ATOM      1  O   UNL     1      34.782 -16.836 -20.873  0.00  0.00    -0.291 OA
ATOM      2  C   UNL     1      32.965  -9.011 -23.490  0.00  0.00    +0.031 C 
ATOM      3  C   UNL     1      32.646  -9.650 -22.120  0.00  0.00    +0.003 C 
ATOM      4  C   UNL     1      32.270 -11.137 -22.208  0.00  0.00    +0.003 C 
ATOM      5  C   UNL     1      33.467 -11.922 -22.838  0.00  0.00    +0.030 C 
ATOM      6  C   UNL     1      33.222  -7.548 -23.035  0.00  0.00    +0.143 C 
ATOM      7  C   UNL     1      34.178  -9.760 -24.078  0.00  0.00    +0.032 C 
ATOM      8  C   UNL     1      33.225 -13.487 -22.875  0.00  0.00    +0.018 C 
ATOM      9  C   UNL     1      33.960 -11.286 -24.174  0.00  0.00    +0.111 C 
ATOM     10  C   UNL     1      31.651  -8.674 -21.497  0.00  0.00    +0.003 C 
ATOM     11  C   UNL     1      32.139  -7.286 -21.965  0.00  0.00    +0.034 C 
ATOM     12  C   UNL     1      31.944 -11.689 -20.812  0.00  0.00    +0.004 C 
ATOM     13  C   UNL     1      31.766  -9.045 -24.477  0.00  0.00    +0.003 C 
ATOM     14  C   UNL     1      32.773 -13.960 -21.487  0.00  0.00    -0.042 C 
ATOM     15  C   UNL     1      31.649 -13.181 -20.848  0.00  0.00    +0.022 C 
ATOM     16  C   UNL     1      34.569 -14.172 -23.257  0.00  0.00    +0.012 C 
ATOM     17  C   UNL     1      32.136 -13.921 -23.882  0.00  0.00    +0.004 C 
ATOM     18  C   UNL     1      34.601 -15.662 -22.951  0.00  0.00    +0.069 C 
ATOM     19  C   UNL     1      33.286 -15.024 -20.848  0.00  0.00    +0.029 C 
ATOM     20  C   UNL     1      34.288 -15.900 -21.499  0.00  0.00    +0.173 C 
ENDROOT
BRANCH   6  21
ATOM     21  O   UNL     1      34.511  -7.411 -22.442  0.00  0.00    -0.380 OA
ATOM     22  H   UNL     1      34.440  -7.532 -21.482  0.00  0.00    +0.211 HD
ENDBRANCH   6  21
BRANCH   9  23
ATOM     23  O   UNL     1      33.069 -11.568 -25.243  0.00  0.00    -0.384 OA
ATOM     24  H   UNL     1      32.174 -11.279 -25.004  0.00  0.00    +0.210 HD
ENDBRANCH   9  23
BRANCH   6  26
ATOM     25  O   UNL     1      34.208  -6.349 -24.844  0.00  0.00    -0.290 OA
ATOM     26  C   UNL     1      33.207  -6.553 -24.158  0.00  0.00    +0.218 C 
BRANCH  26  27
ATOM     27  C   UNL     1      31.902  -5.822 -24.389  0.00  0.00    +0.274 C 
BRANCH  27  28
ATOM     28  O   UNL     1      32.077  -4.429 -24.236  0.00  0.00    -0.440 OA
BRANCH  28  30
ATOM     29  O   UNL     1      30.444  -4.377 -22.601  0.00  0.00    -0.250 OA
ATOM     30  C   UNL     1      31.278  -3.819 -23.302  0.00  0.00    +0.318 C 
ATOM     31  C   UNL     1      31.569  -2.350 -23.251  0.00  0.00    +0.121 C 
ENDBRANCH  28  30
ENDBRANCH  27  28
ENDBRANCH  26  27
ENDBRANCH   6  26
TORSDOF 6
ENDMDL
