MODEL 1
REMARK VINA RESULT:      -5.9      0.000      0.000
REMARK  Name = 108223
REMARK  9 active torsions:
REMARK  status: ('A' for Active; 'I' for Inactive)
REMARK    1  A    between atoms: C_1  and  O_2
REMARK    2  A    between atoms: C_1  and  C_4
REMARK    3  A    between atoms: C_1  and  C_10
REMARK    4  A    between atoms: C_4  and  O_5
REMARK    5  A    between atoms: C_4  and  C_7
REMARK    6  A    between atoms: C_7  and  C_9
REMARK    7  A    between atoms: C_10  and  O_11
REMARK    8  A    between atoms: C_10  and  C_13
REMARK    9  A    between atoms: C_13  and  O_14
REMARK                            x       y       z     vdW  Elec       q    Type
REMARK                         _______ _______ _______ _____ _____    ______ ____
ROOT
ATOM      1  C   UNL     1      38.005 -25.594 -13.954  0.00  0.00    +0.167 C 
ENDROOT
BRANCH   1   2
ATOM      2  O   UNL     1      38.113 -26.953 -14.396  0.00  0.00    -0.379 OA
ATOM      3  H   UNL     1      38.037 -26.985 -15.363  0.00  0.00    +0.211 HD
ENDBRANCH   1   2
BRANCH   1   4
ATOM      4  C   UNL     1      37.768 -25.647 -12.434  0.00  0.00    +0.147 C 
BRANCH   4   5
ATOM      5  O   UNL     1      36.836 -26.706 -12.175  0.00  0.00    -0.381 OA
ATOM      6  H   UNL     1      36.262 -26.828 -12.948  0.00  0.00    +0.210 HD
ENDBRANCH   4   5
BRANCH   4   7
ATOM      7  C   UNL     1      37.165 -24.366 -11.858  0.00  0.00    +0.104 C 
BRANCH   7   9
ATOM      8  O   UNL     1      35.359 -25.033 -10.406  0.00  0.00    -0.288 OA
ATOM      9  C   UNL     1      35.719 -24.587 -11.491  0.00  0.00    +0.210 C 
ENDBRANCH   7   9
ENDBRANCH   4   7
ENDBRANCH   1   4
BRANCH   1  10
ATOM     10  C   UNL     1      39.257 -24.818 -14.398  0.00  0.00    +0.169 C 
BRANCH  10  11
ATOM     11  O   UNL     1      38.976 -24.062 -15.579  0.00  0.00    -0.379 OA
ATOM     12  H   UNL     1      38.674 -24.661 -16.281  0.00  0.00    +0.211 HD
ENDBRANCH  10  11
BRANCH  10  13
ATOM     13  C   UNL     1      40.438 -25.735 -14.716  0.00  0.00    +0.169 C 
BRANCH  13  14
ATOM     14  O   UNL     1      40.480 -25.960 -16.122  0.00  0.00    -0.379 OA
ATOM     15  H   UNL     1      40.693 -26.891 -16.295  0.00  0.00    +0.211 HD
ENDBRANCH  13  14
ENDBRANCH  10  13
ENDBRANCH   1  10
TORSDOF 9
ENDMDL
MODEL 2
REMARK VINA RESULT:      -5.5      1.310      4.498
REMARK  Name = 108223
REMARK  9 active torsions:
REMARK  status: ('A' for Active; 'I' for Inactive)
REMARK    1  A    between atoms: C_1  and  O_2
REMARK    2  A    between atoms: C_1  and  C_4
REMARK    3  A    between atoms: C_1  and  C_10
REMARK    4  A    between atoms: C_4  and  O_5
REMARK    5  A    between atoms: C_4  and  C_7
REMARK    6  A    between atoms: C_7  and  C_9
REMARK    7  A    between atoms: C_10  and  O_11
REMARK    8  A    between atoms: C_10  and  C_13
REMARK    9  A    between atoms: C_13  and  O_14
REMARK                            x       y       z     vdW  Elec       q    Type
REMARK                         _______ _______ _______ _____ _____    ______ ____
ROOT
ATOM      1  C   UNL     1      37.714 -25.719 -12.798  0.00  0.00    +0.167 C 
ENDROOT
BRANCH   1   2
ATOM      2  O   UNL     1      36.814 -26.780 -12.452  0.00  0.00    -0.379 OA
ATOM      3  H   UNL     1      35.977 -26.661 -12.926  0.00  0.00    +0.211 HD
ENDBRANCH   1   2
BRANCH   1   4
ATOM      4  C   UNL     1      37.920 -25.799 -14.321  0.00  0.00    +0.147 C 
BRANCH   4   5
ATOM      5  O   UNL     1      38.083 -27.182 -14.666  0.00  0.00    -0.381 OA
ATOM      6  H   UNL     1      37.514 -27.726 -14.098  0.00  0.00    +0.210 HD
ENDBRANCH   4   5
BRANCH   4   7
ATOM      7  C   UNL     1      39.164 -25.063 -14.816  0.00  0.00    +0.104 C 
BRANCH   7   9
ATOM      8  O   UNL     1      40.968 -26.654 -14.642  0.00  0.00    -0.288 OA
ATOM      9  C   UNL     1      40.405 -25.658 -14.199  0.00  0.00    +0.210 C 
ENDBRANCH   7   9
ENDBRANCH   4   7
ENDBRANCH   1   4
BRANCH   1  10
ATOM     10  C   UNL     1      37.144 -24.386 -12.281  0.00  0.00    +0.169 C 
BRANCH  10  11
ATOM     11  O   UNL     1      38.143 -23.674 -11.547  0.00  0.00    -0.379 OA
ATOM     12  H   UNL     1      38.981 -23.700 -12.034  0.00  0.00    +0.211 HD
ENDBRANCH  10  11
BRANCH  10  13
ATOM     13  C   UNL     1      35.946 -24.578 -11.350  0.00  0.00    +0.169 C 
BRANCH  13  14
ATOM     14  O   UNL     1      34.806 -24.922 -12.132  0.00  0.00    -0.379 OA
ATOM     15  H   UNL     1      34.175 -24.185 -12.125  0.00  0.00    +0.211 HD
ENDBRANCH  13  14
ENDBRANCH  10  13
ENDBRANCH   1  10
TORSDOF 9
ENDMDL
MODEL 3
REMARK VINA RESULT:      -5.5      1.880      4.636
REMARK  Name = 108223
REMARK  9 active torsions:
REMARK  status: ('A' for Active; 'I' for Inactive)
REMARK    1  A    between atoms: C_1  and  O_2
REMARK    2  A    between atoms: C_1  and  C_4
REMARK    3  A    between atoms: C_1  and  C_10
REMARK    4  A    between atoms: C_4  and  O_5
REMARK    5  A    between atoms: C_4  and  C_7
REMARK    6  A    between atoms: C_7  and  C_9
REMARK    7  A    between atoms: C_10  and  O_11
REMARK    8  A    between atoms: C_10  and  C_13
REMARK    9  A    between atoms: C_13  and  O_14
REMARK                            x       y       z     vdW  Elec       q    Type
REMARK                         _______ _______ _______ _____ _____    ______ ____
ROOT
ATOM      1  C   UNL     1      37.032 -25.796 -14.542  0.00  0.00    +0.167 C 
ENDROOT
BRANCH   1   2
ATOM      2  O   UNL     1      37.408 -26.412 -15.781  0.00  0.00    -0.379 OA
ATOM      3  H   UNL     1      37.676 -27.330 -15.617  0.00  0.00    +0.211 HD
ENDBRANCH   1   2
BRANCH   1   4
ATOM      4  C   UNL     1      38.173 -24.831 -14.171  0.00  0.00    +0.147 C 
BRANCH   4   5
ATOM      5  O   UNL     1      38.498 -24.070 -15.343  0.00  0.00    -0.381 OA
ATOM      6  H   UNL     1      37.850 -23.356 -15.455  0.00  0.00    +0.210 HD
ENDBRANCH   4   5
BRANCH   4   7
ATOM      7  C   UNL     1      39.453 -25.533 -13.721  0.00  0.00    +0.104 C 
BRANCH   7   9
ATOM      8  O   UNL     1      40.529 -26.051 -15.816  0.00  0.00    -0.288 OA
ATOM      9  C   UNL     1      40.523 -25.400 -14.777  0.00  0.00    +0.210 C 
ENDBRANCH   7   9
ENDBRANCH   4   7
ENDBRANCH   1   4
BRANCH   1  10
ATOM     10  C   UNL     1      35.646 -25.146 -14.703  0.00  0.00    +0.169 C 
BRANCH  10  11
ATOM     11  O   UNL     1      35.606 -24.360 -15.896  0.00  0.00    -0.379 OA
ATOM     12  H   UNL     1      36.496 -24.311 -16.280  0.00  0.00    +0.211 HD
ENDBRANCH  10  11
BRANCH  10  13
ATOM     13  C   UNL     1      35.289 -24.222 -13.538  0.00  0.00    +0.169 C 
BRANCH  13  14
ATOM     14  O   UNL     1      34.140 -24.741 -12.875  0.00  0.00    -0.379 OA
ATOM     15  H   UNL     1      33.349 -24.268 -13.181  0.00  0.00    +0.211 HD
ENDBRANCH  13  14
ENDBRANCH  10  13
ENDBRANCH   1  10
TORSDOF 9
ENDMDL
MODEL 4
REMARK VINA RESULT:      -5.3      1.870      3.443
REMARK  Name = 108223
REMARK  9 active torsions:
REMARK  status: ('A' for Active; 'I' for Inactive)
REMARK    1  A    between atoms: C_1  and  O_2
REMARK    2  A    between atoms: C_1  and  C_4
REMARK    3  A    between atoms: C_1  and  C_10
REMARK    4  A    between atoms: C_4  and  O_5
REMARK    5  A    between atoms: C_4  and  C_7
REMARK    6  A    between atoms: C_7  and  C_9
REMARK    7  A    between atoms: C_10  and  O_11
REMARK    8  A    between atoms: C_10  and  C_13
REMARK    9  A    between atoms: C_13  and  O_14
REMARK                            x       y       z     vdW  Elec       q    Type
REMARK                         _______ _______ _______ _____ _____    ______ ____
ROOT
ATOM      1  C   UNL     1      37.890 -25.871 -14.215  0.00  0.00    +0.167 C 
ENDROOT
BRANCH   1   2
ATOM      2  O   UNL     1      38.610 -27.000 -14.727  0.00  0.00    -0.379 OA
ATOM      3  H   UNL     1      38.457 -27.075 -15.682  0.00  0.00    +0.211 HD
ENDBRANCH   1   2
BRANCH   1   4
ATOM      4  C   UNL     1      36.455 -25.986 -14.759  0.00  0.00    +0.147 C 
BRANCH   4   5
ATOM      5  O   UNL     1      36.509 -26.741 -15.977  0.00  0.00    -0.381 OA
ATOM      6  H   UNL     1      35.608 -26.896 -16.302  0.00  0.00    +0.210 HD
ENDBRANCH   4   5
BRANCH   4   7
ATOM      7  C   UNL     1      35.811 -24.641 -15.092  0.00  0.00    +0.104 C 
BRANCH   7   9
ATOM      8  O   UNL     1      34.790 -24.447 -12.916  0.00  0.00    -0.288 OA
ATOM      9  C   UNL     1      34.683 -24.348 -14.134  0.00  0.00    +0.210 C 
ENDBRANCH   7   9
ENDBRANCH   4   7
ENDBRANCH   1   4
BRANCH   1  10
ATOM     10  C   UNL     1      38.012 -25.849 -12.681  0.00  0.00    +0.169 C 
BRANCH  10  11
ATOM     11  O   UNL     1      36.848 -26.425 -12.085  0.00  0.00    -0.379 OA
ATOM     12  H   UNL     1      36.677 -25.998 -11.231  0.00  0.00    +0.211 HD
ENDBRANCH  10  11
BRANCH  10  13
ATOM     13  C   UNL     1      38.157 -24.434 -12.120  0.00  0.00    +0.169 C 
BRANCH  13  14
ATOM     14  O   UNL     1      37.211 -24.256 -11.071  0.00  0.00    -0.379 OA
ATOM     15  H   UNL     1      37.403 -23.431 -10.598  0.00  0.00    +0.211 HD
ENDBRANCH  13  14
ENDBRANCH  10  13
ENDBRANCH   1  10
TORSDOF 9
ENDMDL
MODEL 5
REMARK VINA RESULT:      -5.3      1.630      4.405
REMARK  Name = 108223
REMARK  9 active torsions:
REMARK  status: ('A' for Active; 'I' for Inactive)
REMARK    1  A    between atoms: C_1  and  O_2
REMARK    2  A    between atoms: C_1  and  C_4
REMARK    3  A    between atoms: C_1  and  C_10
REMARK    4  A    between atoms: C_4  and  O_5
REMARK    5  A    between atoms: C_4  and  C_7
REMARK    6  A    between atoms: C_7  and  C_9
REMARK    7  A    between atoms: C_10  and  O_11
REMARK    8  A    between atoms: C_10  and  C_13
REMARK    9  A    between atoms: C_13  and  O_14
REMARK                            x       y       z     vdW  Elec       q    Type
REMARK                         _______ _______ _______ _____ _____    ______ ____
ROOT
ATOM      1  C   UNL     1      37.139 -25.046 -13.882  0.00  0.00    +0.167 C 
ENDROOT
BRANCH   1   2
ATOM      2  O   UNL     1      37.103 -23.649 -14.202  0.00  0.00    -0.379 OA
ATOM      3  H   UNL     1      37.317 -23.526 -15.140  0.00  0.00    +0.211 HD
ENDBRANCH   1   2
BRANCH   1   4
ATOM      4  C   UNL     1      38.114 -25.697 -14.880  0.00  0.00    +0.147 C 
BRANCH   4   5
ATOM      5  O   UNL     1      38.259 -27.075 -14.510  0.00  0.00    -0.381 OA
ATOM      6  H   UNL     1      39.157 -27.227 -14.177  0.00  0.00    +0.210 HD
ENDBRANCH   4   5
BRANCH   4   7
ATOM      7  C   UNL     1      39.511 -25.080 -14.870  0.00  0.00    +0.104 C 
BRANCH   7   9
ATOM      8  O   UNL     1      41.073 -26.605 -13.846  0.00  0.00    -0.288 OA
ATOM      9  C   UNL     1      40.562 -26.162 -14.869  0.00  0.00    +0.210 C 
ENDBRANCH   7   9
ENDBRANCH   4   7
ENDBRANCH   1   4
BRANCH   1  10
ATOM     10  C   UNL     1      37.507 -25.214 -12.397  0.00  0.00    +0.169 C 
BRANCH  10  11
ATOM     11  O   UNL     1      36.742 -26.273 -11.817  0.00  0.00    -0.379 OA
ATOM     12  H   UNL     1      36.620 -26.979 -12.471  0.00  0.00    +0.211 HD
ENDBRANCH  10  11
BRANCH  10  13
ATOM     13  C   UNL     1      37.235 -23.953 -11.576  0.00  0.00    +0.169 C 
BRANCH  13  14
ATOM     14  O   UNL     1      38.391 -23.122 -11.614  0.00  0.00    -0.379 OA
ATOM     15  H   UNL     1      38.244 -22.337 -11.062  0.00  0.00    +0.211 HD
ENDBRANCH  13  14
ENDBRANCH  10  13
ENDBRANCH   1  10
TORSDOF 9
ENDMDL
MODEL 6
REMARK VINA RESULT:      -5.1     13.660     14.951
REMARK  Name = 108223
REMARK  9 active torsions:
REMARK  status: ('A' for Active; 'I' for Inactive)
REMARK    1  A    between atoms: C_1  and  O_2
REMARK    2  A    between atoms: C_1  and  C_4
REMARK    3  A    between atoms: C_1  and  C_10
REMARK    4  A    between atoms: C_4  and  O_5
REMARK    5  A    between atoms: C_4  and  C_7
REMARK    6  A    between atoms: C_7  and  C_9
REMARK    7  A    between atoms: C_10  and  O_11
REMARK    8  A    between atoms: C_10  and  C_13
REMARK    9  A    between atoms: C_13  and  O_14
REMARK                            x       y       z     vdW  Elec       q    Type
REMARK                         _______ _______ _______ _____ _____    ______ ____
ROOT
ATOM      1  C   UNL     1      34.198 -16.155 -23.676  0.00  0.00    +0.167 C 
ENDROOT
BRANCH   1   2
ATOM      2  O   UNL     1      35.626 -16.089 -23.561  0.00  0.00    -0.379 OA
ATOM      3  H   UNL     1      36.013 -16.930 -23.850  0.00  0.00    +0.211 HD
ENDBRANCH   1   2
BRANCH   1   4
ATOM      4  C   UNL     1      33.645 -14.904 -22.971  0.00  0.00    +0.147 C 
BRANCH   4   5
ATOM      5  O   UNL     1      34.743 -14.012 -22.739  0.00  0.00    -0.381 OA
ATOM      6  H   UNL     1      34.685 -13.261 -23.351  0.00  0.00    +0.210 HD
ENDBRANCH   4   5
BRANCH   4   7
ATOM      7  C   UNL     1      33.006 -15.193 -21.613  0.00  0.00    +0.104 C 
BRANCH   7   9
ATOM      8  O   UNL     1      34.999 -15.820 -20.410  0.00  0.00    -0.288 OA
ATOM      9  C   UNL     1      34.032 -15.072 -20.514  0.00  0.00    +0.210 C 
ENDBRANCH   7   9
ENDBRANCH   4   7
ENDBRANCH   1   4
BRANCH   1  10
ATOM     10  C   UNL     1      33.819 -16.296 -25.161  0.00  0.00    +0.169 C 
BRANCH  10  11
ATOM     11  O   UNL     1      34.979 -16.599 -25.940  0.00  0.00    -0.379 OA
ATOM     12  H   UNL     1      34.739 -17.219 -26.647  0.00  0.00    +0.211 HD
ENDBRANCH  10  11
BRANCH  10  13
ATOM     13  C   UNL     1      33.206 -15.019 -25.737  0.00  0.00    +0.169 C 
BRANCH  13  14
ATOM     14  O   UNL     1      33.672 -14.847 -27.072  0.00  0.00    -0.379 OA
ATOM     15  H   UNL     1      34.542 -14.415 -27.058  0.00  0.00    +0.211 HD
ENDBRANCH  13  14
ENDBRANCH  10  13
ENDBRANCH   1  10
TORSDOF 9
ENDMDL
MODEL 7
REMARK VINA RESULT:      -5.1     13.079     14.734
REMARK  Name = 108223
REMARK  9 active torsions:
REMARK  status: ('A' for Active; 'I' for Inactive)
REMARK    1  A    between atoms: C_1  and  O_2
REMARK    2  A    between atoms: C_1  and  C_4
REMARK    3  A    between atoms: C_1  and  C_10
REMARK    4  A    between atoms: C_4  and  O_5
REMARK    5  A    between atoms: C_4  and  C_7
REMARK    6  A    between atoms: C_7  and  C_9
REMARK    7  A    between atoms: C_10  and  O_11
REMARK    8  A    between atoms: C_10  and  C_13
REMARK    9  A    between atoms: C_13  and  O_14
REMARK                            x       y       z     vdW  Elec       q    Type
REMARK                         _______ _______ _______ _____ _____    ______ ____
ROOT
ATOM      1  C   UNL     1      34.699 -16.978 -23.461  0.00  0.00    +0.167 C 
ENDROOT
BRANCH   1   2
ATOM      2  O   UNL     1      35.690 -15.966 -23.241  0.00  0.00    -0.379 OA
ATOM      3  H   UNL     1      36.384 -16.041 -23.915  0.00  0.00    +0.211 HD
ENDBRANCH   1   2
BRANCH   1   4
ATOM      4  C   UNL     1      34.036 -16.653 -24.811  0.00  0.00    +0.147 C 
BRANCH   4   5
ATOM      5  O   UNL     1      35.028 -16.813 -25.834  0.00  0.00    -0.381 OA
ATOM      6  H   UNL     1      34.601 -17.099 -26.657  0.00  0.00    +0.210 HD
ENDBRANCH   4   5
BRANCH   4   7
ATOM      7  C   UNL     1      33.511 -15.222 -24.913  0.00  0.00    +0.104 C 
BRANCH   7   9
ATOM      8  O   UNL     1      33.632 -14.660 -27.255  0.00  0.00    -0.288 OA
ATOM      9  C   UNL     1      32.944 -14.968 -26.288  0.00  0.00    +0.210 C 
ENDBRANCH   7   9
ENDBRANCH   4   7
ENDBRANCH   1   4
BRANCH   1  10
ATOM     10  C   UNL     1      35.364 -18.363 -23.370  0.00  0.00    +0.169 C 
BRANCH  10  11
ATOM     11  O   UNL     1      34.757 -19.262 -24.301  0.00  0.00    -0.379 OA
ATOM     12  H   UNL     1      34.784 -18.874 -25.190  0.00  0.00    +0.211 HD
ENDBRANCH  10  11
BRANCH  10  13
ATOM     13  C   UNL     1      35.236 -18.990 -21.982  0.00  0.00    +0.169 C 
BRANCH  13  14
ATOM     14  O   UNL     1      35.570 -18.011 -21.003  0.00  0.00    -0.379 OA
ATOM     15  H   UNL     1      35.613 -18.429 -20.128  0.00  0.00    +0.211 HD
ENDBRANCH  13  14
ENDBRANCH  10  13
ENDBRANCH   1  10
TORSDOF 9
ENDMDL
MODEL 8
REMARK VINA RESULT:      -5.0      2.032      2.598
REMARK  Name = 108223
REMARK  9 active torsions:
REMARK  status: ('A' for Active; 'I' for Inactive)
REMARK    1  A    between atoms: C_1  and  O_2
REMARK    2  A    between atoms: C_1  and  C_4
REMARK    3  A    between atoms: C_1  and  C_10
REMARK    4  A    between atoms: C_4  and  O_5
REMARK    5  A    between atoms: C_4  and  C_7
REMARK    6  A    between atoms: C_7  and  C_9
REMARK    7  A    between atoms: C_10  and  O_11
REMARK    8  A    between atoms: C_10  and  C_13
REMARK    9  A    between atoms: C_13  and  O_14
REMARK                            x       y       z     vdW  Elec       q    Type
REMARK                         _______ _______ _______ _____ _____    ______ ____
ROOT
ATOM      1  C   UNL     1      37.479 -24.771 -14.579  0.00  0.00    +0.167 C 
ENDROOT
BRANCH   1   2
ATOM      2  O   UNL     1      37.621 -24.128 -15.853  0.00  0.00    -0.379 OA
ATOM      3  H   UNL     1      37.999 -24.754 -16.490  0.00  0.00    +0.211 HD
ENDBRANCH   1   2
BRANCH   1   4
ATOM      4  C   UNL     1      36.051 -25.344 -14.537  0.00  0.00    +0.147 C 
BRANCH   4   5
ATOM      5  O   UNL     1      35.994 -26.443 -15.456  0.00  0.00    -0.381 OA
ATOM      6  H   UNL     1      36.896 -26.723 -15.681  0.00  0.00    +0.210 HD
ENDBRANCH   4   5
BRANCH   4   7
ATOM      7  C   UNL     1      34.973 -24.347 -14.961  0.00  0.00    +0.104 C 
BRANCH   7   9
ATOM      8  O   UNL     1      34.157 -24.338 -12.692  0.00  0.00    -0.288 OA
ATOM      9  C   UNL     1      33.917 -24.229 -13.890  0.00  0.00    +0.210 C 
ENDBRANCH   7   9
ENDBRANCH   4   7
ENDBRANCH   1   4
BRANCH   1  10
ATOM     10  C   UNL     1      38.607 -25.804 -14.407  0.00  0.00    +0.169 C 
BRANCH  10  11
ATOM     11  O   UNL     1      38.744 -26.159 -13.029  0.00  0.00    -0.379 OA
ATOM     12  H   UNL     1      38.864 -27.119 -12.954  0.00  0.00    +0.211 HD
ENDBRANCH  10  11
BRANCH  10  13
ATOM     13  C   UNL     1      39.964 -25.280 -14.879  0.00  0.00    +0.169 C 
BRANCH  13  14
ATOM     14  O   UNL     1      40.277 -25.878 -16.132  0.00  0.00    -0.379 OA
ATOM     15  H   UNL     1      40.588 -26.787 -15.989  0.00  0.00    +0.211 HD
ENDBRANCH  13  14
ENDBRANCH  10  13
ENDBRANCH   1  10
TORSDOF 9
ENDMDL
MODEL 9
REMARK VINA RESULT:      -5.0      2.066      4.462
REMARK  Name = 108223
REMARK  9 active torsions:
REMARK  status: ('A' for Active; 'I' for Inactive)
REMARK    1  A    between atoms: C_1  and  O_2
REMARK    2  A    between atoms: C_1  and  C_4
REMARK    3  A    between atoms: C_1  and  C_10
REMARK    4  A    between atoms: C_4  and  O_5
REMARK    5  A    between atoms: C_4  and  C_7
REMARK    6  A    between atoms: C_7  and  C_9
REMARK    7  A    between atoms: C_10  and  O_11
REMARK    8  A    between atoms: C_10  and  C_13
REMARK    9  A    between atoms: C_13  and  O_14
REMARK                            x       y       z     vdW  Elec       q    Type
REMARK                         _______ _______ _______ _____ _____    ______ ____
ROOT
ATOM      1  C   UNL     1      36.601 -25.232 -14.806  0.00  0.00    +0.167 C 
ENDROOT
BRANCH   1   2
ATOM      2  O   UNL     1      37.100 -24.285 -15.760  0.00  0.00    -0.379 OA
ATOM      3  H   UNL     1      37.333 -23.460 -15.305  0.00  0.00    +0.211 HD
ENDBRANCH   1   2
BRANCH   1   4
ATOM      4  C   UNL     1      37.772 -26.174 -14.474  0.00  0.00    +0.147 C 
BRANCH   4   5
ATOM      5  O   UNL     1      37.249 -27.262 -13.698  0.00  0.00    -0.381 OA
ATOM      6  H   UNL     1      36.726 -26.909 -12.959  0.00  0.00    +0.210 HD
ENDBRANCH   4   5
BRANCH   4   7
ATOM      7  C   UNL     1      38.875 -25.520 -13.644  0.00  0.00    +0.104 C 
BRANCH   7   9
ATOM      8  O   UNL     1      40.970 -26.501 -14.328  0.00  0.00    -0.288 OA
ATOM      9  C   UNL     1      40.186 -25.560 -14.391  0.00  0.00    +0.210 C 
ENDBRANCH   7   9
ENDBRANCH   4   7
ENDBRANCH   1   4
BRANCH   1  10
ATOM     10  C   UNL     1      36.007 -24.473 -13.606  0.00  0.00    +0.169 C 
BRANCH  10  11
ATOM     11  O   UNL     1      35.683 -25.387 -12.556  0.00  0.00    -0.379 OA
ATOM     12  H   UNL     1      35.319 -26.202 -12.938  0.00  0.00    +0.211 HD
ENDBRANCH  10  11
BRANCH  10  13
ATOM     13  C   UNL     1      34.727 -23.716 -13.961  0.00  0.00    +0.169 C 
BRANCH  13  14
ATOM     14  O   UNL     1      35.072 -22.555 -14.710  0.00  0.00    -0.379 OA
ATOM     15  H   UNL     1      35.466 -22.821 -15.557  0.00  0.00    +0.211 HD
ENDBRANCH  13  14
ENDBRANCH  10  13
ENDBRANCH   1  10
TORSDOF 9
ENDMDL
