MODEL 1
REMARK VINA RESULT:      -7.3      0.000      0.000
REMARK  Name = 5084146
REMARK  7 active torsions:
REMARK  status: ('A' for Active; 'I' for Inactive)
REMARK    1  A    between atoms: C_1  and  C_11
REMARK    2  A    between atoms: C_4  and  O_7
REMARK    3  A    between atoms: C_6  and  O_9
REMARK    4  A    between atoms: C_11  and  O_12
REMARK    5  A    between atoms: O_12  and  C_13
REMARK    6  A    between atoms: C_13  and  C_14
REMARK    7  A    between atoms: C_14  and  C_15
REMARK                            x       y       z     vdW  Elec       q    Type
REMARK                         _______ _______ _______ _____ _____    ______ ____
ROOT
ATOM      1  C   UNL     1      34.898 -19.466 -21.054  0.00  0.00    +0.010 C 
ATOM      2  C   UNL     1      35.620 -20.406 -20.326  0.00  0.00    +0.038 C 
ATOM      3  C   UNL     1      33.508 -19.474 -21.041  0.00  0.00    +0.001 C 
ATOM      4  C   UNL     1      34.941 -21.366 -19.573  0.00  0.00    +0.172 C 
ATOM      5  C   UNL     1      32.830 -20.433 -20.289  0.00  0.00    +0.040 C 
ATOM      6  C   UNL     1      33.546 -21.378 -19.555  0.00  0.00    +0.168 C 
ENDROOT
BRANCH   4   7
ATOM      7  O   UNL     1      35.651 -22.284 -18.861  0.00  0.00    -0.468 OA
ATOM      8  C   UNL     1      36.614 -21.785 -17.935  0.00  0.00    +0.253 C 
ENDBRANCH   4   7
BRANCH   6   9
ATOM      9  O   UNL     1      32.872 -22.310 -18.824  0.00  0.00    -0.503 OA
ATOM     10  H   UNL     1      33.216 -22.599 -18.002  0.00  0.00    +0.292 HD
ENDBRANCH   6   9
BRANCH   1  11
ATOM     11  C   UNL     1      35.628 -18.435 -21.863  0.00  0.00    +0.169 C 
BRANCH  11  12
ATOM     12  O   UNL     1      34.680 -17.596 -22.509  0.00  0.00    -0.349 OA
BRANCH  12  13
ATOM     13  C   UNL     1      34.982 -16.221 -22.316  0.00  0.00    +0.143 C 
BRANCH  13  14
ATOM     14  C   UNL     1      34.546 -15.812 -20.917  0.00  0.00    +0.032 C 
BRANCH  14  15
ATOM     15  C   UNL     1      33.041 -15.571 -20.843  0.00  0.00    +0.003 C 
ATOM     16  C   UNL     1      32.715 -14.085 -20.827  0.00  0.00    +0.000 C 
ENDBRANCH  14  15
ENDBRANCH  13  14
ENDBRANCH  12  13
ENDBRANCH  11  12
ENDBRANCH   1  11
TORSDOF 7
ENDMDL
MODEL 2
REMARK VINA RESULT:      -7.0      2.425      6.673
REMARK  Name = 5084146
REMARK  7 active torsions:
REMARK  status: ('A' for Active; 'I' for Inactive)
REMARK    1  A    between atoms: C_1  and  C_11
REMARK    2  A    between atoms: C_4  and  O_7
REMARK    3  A    between atoms: C_6  and  O_9
REMARK    4  A    between atoms: C_11  and  O_12
REMARK    5  A    between atoms: O_12  and  C_13
REMARK    6  A    between atoms: C_13  and  C_14
REMARK    7  A    between atoms: C_14  and  C_15
REMARK                            x       y       z     vdW  Elec       q    Type
REMARK                         _______ _______ _______ _____ _____    ______ ____
ROOT
ATOM      1  C   UNL     1      34.528 -16.160 -22.149  0.00  0.00    +0.010 C 
ATOM      2  C   UNL     1      34.467 -15.405 -23.314  0.00  0.00    +0.038 C 
ATOM      3  C   UNL     1      33.676 -15.890 -21.083  0.00  0.00    +0.001 C 
ATOM      4  C   UNL     1      33.540 -14.367 -23.417  0.00  0.00    +0.172 C 
ATOM      5  C   UNL     1      32.750 -14.852 -21.186  0.00  0.00    +0.040 C 
ATOM      6  C   UNL     1      32.682 -14.091 -22.352  0.00  0.00    +0.168 C 
ENDROOT
BRANCH   4   7
ATOM      7  O   UNL     1      33.483 -13.630 -24.561  0.00  0.00    -0.468 OA
ATOM      8  C   UNL     1      32.912 -14.255 -25.708  0.00  0.00    +0.253 C 
ENDBRANCH   4   7
BRANCH   6   9
ATOM      9  O   UNL     1      31.773 -13.080 -22.441  0.00  0.00    -0.503 OA
ATOM     10  H   UNL     1      31.494 -12.631 -21.667  0.00  0.00    +0.292 HD
ENDBRANCH   6   9
BRANCH   1  11
ATOM     11  C   UNL     1      35.524 -17.276 -22.039  0.00  0.00    +0.169 C 
BRANCH  11  12
ATOM     12  O   UNL     1      35.390 -17.894 -20.766  0.00  0.00    -0.349 OA
BRANCH  12  13
ATOM     13  C   UNL     1      35.282 -19.306 -20.879  0.00  0.00    +0.143 C 
BRANCH  13  14
ATOM     14  C   UNL     1      33.937 -19.648 -21.503  0.00  0.00    +0.032 C 
BRANCH  14  15
ATOM     15  C   UNL     1      32.917 -20.072 -20.450  0.00  0.00    +0.003 C 
ATOM     16  C   UNL     1      33.423 -21.245 -19.625  0.00  0.00    +0.000 C 
ENDBRANCH  14  15
ENDBRANCH  13  14
ENDBRANCH  12  13
ENDBRANCH  11  12
ENDBRANCH   1  11
TORSDOF 7
ENDMDL
MODEL 3
REMARK VINA RESULT:      -6.9      2.402      6.741
REMARK  Name = 5084146
REMARK  7 active torsions:
REMARK  status: ('A' for Active; 'I' for Inactive)
REMARK    1  A    between atoms: C_1  and  C_11
REMARK    2  A    between atoms: C_4  and  O_7
REMARK    3  A    between atoms: C_6  and  O_9
REMARK    4  A    between atoms: C_11  and  O_12
REMARK    5  A    between atoms: O_12  and  C_13
REMARK    6  A    between atoms: C_13  and  C_14
REMARK    7  A    between atoms: C_14  and  C_15
REMARK                            x       y       z     vdW  Elec       q    Type
REMARK                         _______ _______ _______ _____ _____    ______ ____
ROOT
ATOM      1  C   UNL     1      34.779 -16.940 -22.960  0.00  0.00    +0.010 C 
ATOM      2  C   UNL     1      34.156 -15.698 -23.006  0.00  0.00    +0.038 C 
ATOM      3  C   UNL     1      34.966 -17.683 -24.121  0.00  0.00    +0.001 C 
ATOM      4  C   UNL     1      33.716 -15.190 -24.230  0.00  0.00    +0.172 C 
ATOM      5  C   UNL     1      34.525 -17.176 -25.343  0.00  0.00    +0.040 C 
ATOM      6  C   UNL     1      33.901 -15.931 -25.398  0.00  0.00    +0.168 C 
ENDROOT
BRANCH   4   7
ATOM      7  O   UNL     1      33.107 -13.973 -24.270  0.00  0.00    -0.468 OA
ATOM      8  C   UNL     1      32.529 -13.495 -23.057  0.00  0.00    +0.253 C 
ENDBRANCH   4   7
BRANCH   6   9
ATOM      9  O   UNL     1      33.475 -15.446 -26.598  0.00  0.00    -0.503 OA
ATOM     10  H   UNL     1      34.012 -14.847 -27.078  0.00  0.00    +0.292 HD
ENDBRANCH   6   9
BRANCH   1  11
ATOM     11  C   UNL     1      35.252 -17.485 -21.645  0.00  0.00    +0.169 C 
BRANCH  11  12
ATOM     12  O   UNL     1      34.169 -18.141 -20.998  0.00  0.00    -0.349 OA
BRANCH  12  13
ATOM     13  C   UNL     1      34.303 -19.554 -21.061  0.00  0.00    +0.143 C 
BRANCH  13  14
ATOM     14  C   UNL     1      33.040 -20.194 -20.503  0.00  0.00    +0.032 C 
BRANCH  14  15
ATOM     15  C   UNL     1      33.362 -21.337 -19.545  0.00  0.00    +0.003 C 
ATOM     16  C   UNL     1      34.858 -21.594 -19.466  0.00  0.00    +0.000 C 
ENDBRANCH  14  15
ENDBRANCH  13  14
ENDBRANCH  12  13
ENDBRANCH  11  12
ENDBRANCH   1  11
TORSDOF 7
ENDMDL
MODEL 4
REMARK VINA RESULT:      -6.7      4.227      6.065
REMARK  Name = 5084146
REMARK  7 active torsions:
REMARK  status: ('A' for Active; 'I' for Inactive)
REMARK    1  A    between atoms: C_1  and  C_11
REMARK    2  A    between atoms: C_4  and  O_7
REMARK    3  A    between atoms: C_6  and  O_9
REMARK    4  A    between atoms: C_11  and  O_12
REMARK    5  A    between atoms: O_12  and  C_13
REMARK    6  A    between atoms: C_13  and  C_14
REMARK    7  A    between atoms: C_14  and  C_15
REMARK                            x       y       z     vdW  Elec       q    Type
REMARK                         _______ _______ _______ _____ _____    ______ ____
ROOT
ATOM      1  C   UNL     1      32.762 -23.295 -16.506  0.00  0.00    +0.010 C 
ATOM      2  C   UNL     1      33.492 -23.695 -15.393  0.00  0.00    +0.038 C 
ATOM      3  C   UNL     1      31.412 -22.980 -16.394  0.00  0.00    +0.001 C 
ATOM      4  C   UNL     1      32.865 -23.778 -14.149  0.00  0.00    +0.172 C 
ATOM      5  C   UNL     1      30.786 -23.064 -15.150  0.00  0.00    +0.040 C 
ATOM      6  C   UNL     1      31.512 -23.463 -14.029  0.00  0.00    +0.168 C 
ENDROOT
BRANCH   4   7
ATOM      7  O   UNL     1      33.585 -24.169 -13.061  0.00  0.00    -0.468 OA
ATOM      8  C   UNL     1      35.005 -24.070 -13.151  0.00  0.00    +0.253 C 
ENDBRANCH   4   7
BRANCH   6   9
ATOM      9  O   UNL     1      30.889 -23.541 -12.819  0.00  0.00    -0.503 OA
ATOM     10  H   UNL     1      30.147 -24.101 -12.710  0.00  0.00    +0.292 HD
ENDBRANCH   6   9
BRANCH   1  11
ATOM     11  C   UNL     1      33.436 -23.206 -17.844  0.00  0.00    +0.169 C 
BRANCH  11  12
ATOM     12  O   UNL     1      32.745 -22.260 -18.649  0.00  0.00    -0.349 OA
BRANCH  12  13
ATOM     13  C   UNL     1      33.640 -21.514 -19.463  0.00  0.00    +0.143 C 
BRANCH  13  14
ATOM     14  C   UNL     1      32.861 -20.420 -20.177  0.00  0.00    +0.032 C 
BRANCH  14  15
ATOM     15  C   UNL     1      33.768 -19.561 -21.053  0.00  0.00    +0.003 C 
ATOM     16  C   UNL     1      35.227 -19.967 -20.912  0.00  0.00    +0.000 C 
ENDBRANCH  14  15
ENDBRANCH  13  14
ENDBRANCH  12  13
ENDBRANCH  11  12
ENDBRANCH   1  11
TORSDOF 7
ENDMDL
MODEL 5
REMARK VINA RESULT:      -6.7      2.821      6.772
REMARK  Name = 5084146
REMARK  7 active torsions:
REMARK  status: ('A' for Active; 'I' for Inactive)
REMARK    1  A    between atoms: C_1  and  C_11
REMARK    2  A    between atoms: C_4  and  O_7
REMARK    3  A    between atoms: C_6  and  O_9
REMARK    4  A    between atoms: C_11  and  O_12
REMARK    5  A    between atoms: O_12  and  C_13
REMARK    6  A    between atoms: C_13  and  C_14
REMARK    7  A    between atoms: C_14  and  C_15
REMARK                            x       y       z     vdW  Elec       q    Type
REMARK                         _______ _______ _______ _____ _____    ______ ____
ROOT
ATOM      1  C   UNL     1      34.136 -15.645 -21.436  0.00  0.00    +0.010 C 
ATOM      2  C   UNL     1      34.245 -15.084 -22.704  0.00  0.00    +0.038 C 
ATOM      3  C   UNL     1      33.217 -15.149 -20.517  0.00  0.00    +0.001 C 
ATOM      4  C   UNL     1      33.424 -14.013 -23.058  0.00  0.00    +0.172 C 
ATOM      5  C   UNL     1      32.397 -14.078 -20.872  0.00  0.00    +0.040 C 
ATOM      6  C   UNL     1      32.500 -13.511 -22.141  0.00  0.00    +0.168 C 
ENDROOT
BRANCH   4   7
ATOM      7  O   UNL     1      33.534 -13.467 -24.301  0.00  0.00    -0.468 OA
ATOM      8  C   UNL     1      32.993 -14.213 -25.389  0.00  0.00    +0.253 C 
ENDBRANCH   4   7
BRANCH   6   9
ATOM      9  O   UNL     1      31.692 -12.465 -22.476  0.00  0.00    -0.503 OA
ATOM     10  H   UNL     1      31.100 -12.110 -21.844  0.00  0.00    +0.292 HD
ENDBRANCH   6   9
BRANCH   1  11
ATOM     11  C   UNL     1      35.019 -16.797 -21.055  0.00  0.00    +0.169 C 
BRANCH  11  12
ATOM     12  O   UNL     1      34.272 -18.003 -21.142  0.00  0.00    -0.349 OA
BRANCH  12  13
ATOM     13  C   UNL     1      35.046 -19.059 -21.692  0.00  0.00    +0.143 C 
BRANCH  13  14
ATOM     14  C   UNL     1      35.630 -18.601 -23.020  0.00  0.00    +0.032 C 
BRANCH  14  15
ATOM     15  C   UNL     1      34.741 -18.999 -24.195  0.00  0.00    +0.003 C 
ATOM     16  C   UNL     1      34.475 -17.819 -25.117  0.00  0.00    +0.000 C 
ENDBRANCH  14  15
ENDBRANCH  13  14
ENDBRANCH  12  13
ENDBRANCH  11  12
ENDBRANCH   1  11
TORSDOF 7
ENDMDL
MODEL 6
REMARK VINA RESULT:      -6.7      4.201      6.429
REMARK  Name = 5084146
REMARK  7 active torsions:
REMARK  status: ('A' for Active; 'I' for Inactive)
REMARK    1  A    between atoms: C_1  and  C_11
REMARK    2  A    between atoms: C_4  and  O_7
REMARK    3  A    between atoms: C_6  and  O_9
REMARK    4  A    between atoms: C_11  and  O_12
REMARK    5  A    between atoms: O_12  and  C_13
REMARK    6  A    between atoms: C_13  and  C_14
REMARK    7  A    between atoms: C_14  and  C_15
REMARK                            x       y       z     vdW  Elec       q    Type
REMARK                         _______ _______ _______ _____ _____    ______ ____
ROOT
ATOM      1  C   UNL     1      32.736 -23.268 -16.555  0.00  0.00    +0.010 C 
ATOM      2  C   UNL     1      31.363 -23.070 -16.451  0.00  0.00    +0.038 C 
ATOM      3  C   UNL     1      33.497 -23.563 -15.429  0.00  0.00    +0.001 C 
ATOM      4  C   UNL     1      30.744 -23.170 -15.204  0.00  0.00    +0.172 C 
ATOM      5  C   UNL     1      32.877 -23.662 -14.184  0.00  0.00    +0.040 C 
ATOM      6  C   UNL     1      31.502 -23.466 -14.071  0.00  0.00    +0.168 C 
ENDROOT
BRANCH   4   7
ATOM      7  O   UNL     1      29.399 -22.977 -15.107  0.00  0.00    -0.468 OA
ATOM      8  C   UNL     1      28.587 -23.521 -16.145  0.00  0.00    +0.253 C 
ENDBRANCH   4   7
BRANCH   6   9
ATOM      9  O   UNL     1      30.908 -23.567 -12.849  0.00  0.00    -0.503 OA
ATOM     10  H   UNL     1      31.081 -24.308 -12.304  0.00  0.00    +0.292 HD
ENDBRANCH   6   9
BRANCH   1  11
ATOM     11  C   UNL     1      33.401 -23.160 -17.895  0.00  0.00    +0.169 C 
BRANCH  11  12
ATOM     12  O   UNL     1      32.734 -22.170 -18.666  0.00  0.00    -0.349 OA
BRANCH  12  13
ATOM     13  C   UNL     1      33.620 -21.529 -19.573  0.00  0.00    +0.143 C 
BRANCH  13  14
ATOM     14  C   UNL     1      32.895 -20.363 -20.229  0.00  0.00    +0.032 C 
BRANCH  14  15
ATOM     15  C   UNL     1      33.853 -19.473 -21.016  0.00  0.00    +0.003 C 
ATOM     16  C   UNL     1      35.298 -19.907 -20.828  0.00  0.00    +0.000 C 
ENDBRANCH  14  15
ENDBRANCH  13  14
ENDBRANCH  12  13
ENDBRANCH  11  12
ENDBRANCH   1  11
TORSDOF 7
ENDMDL
MODEL 7
REMARK VINA RESULT:      -6.6      3.581      5.430
REMARK  Name = 5084146
REMARK  7 active torsions:
REMARK  status: ('A' for Active; 'I' for Inactive)
REMARK    1  A    between atoms: C_1  and  C_11
REMARK    2  A    between atoms: C_4  and  O_7
REMARK    3  A    between atoms: C_6  and  O_9
REMARK    4  A    between atoms: C_11  and  O_12
REMARK    5  A    between atoms: O_12  and  C_13
REMARK    6  A    between atoms: C_13  and  C_14
REMARK    7  A    between atoms: C_14  and  C_15
REMARK                            x       y       z     vdW  Elec       q    Type
REMARK                         _______ _______ _______ _____ _____    ______ ____
ROOT
ATOM      1  C   UNL     1      34.239 -14.618 -22.606  0.00  0.00    +0.010 C 
ATOM      2  C   UNL     1      34.647 -15.707 -23.368  0.00  0.00    +0.038 C 
ATOM      3  C   UNL     1      34.247 -14.680 -21.217  0.00  0.00    +0.001 C 
ATOM      4  C   UNL     1      35.071 -16.874 -22.731  0.00  0.00    +0.172 C 
ATOM      5  C   UNL     1      34.671 -15.847 -20.582  0.00  0.00    +0.040 C 
ATOM      6  C   UNL     1      35.082 -16.943 -21.338  0.00  0.00    +0.168 C 
ENDROOT
BRANCH   4   7
ATOM      7  O   UNL     1      35.471 -17.939 -23.481  0.00  0.00    -0.468 OA
ATOM      8  C   UNL     1      34.647 -18.300 -24.587  0.00  0.00    +0.253 C 
ENDBRANCH   4   7
BRANCH   6   9
ATOM      9  O   UNL     1      35.495 -18.077 -20.705  0.00  0.00    -0.503 OA
ATOM     10  H   UNL     1      35.583 -18.876 -21.186  0.00  0.00    +0.292 HD
ENDBRANCH   6   9
BRANCH   1  11
ATOM     11  C   UNL     1      33.783 -13.363 -23.291  0.00  0.00    +0.169 C 
BRANCH  11  12
ATOM     12  O   UNL     1      32.403 -13.158 -23.014  0.00  0.00    -0.349 OA
BRANCH  12  13
ATOM     13  C   UNL     1      32.159 -11.850 -22.517  0.00  0.00    +0.143 C 
BRANCH  13  14
ATOM     14  C   UNL     1      31.458 -11.958 -21.171  0.00  0.00    +0.032 C 
BRANCH  14  15
ATOM     15  C   UNL     1      31.427 -10.618 -20.441  0.00  0.00    +0.003 C 
ATOM     16  C   UNL     1      31.377 -10.805 -18.933  0.00  0.00    +0.000 C 
ENDBRANCH  14  15
ENDBRANCH  13  14
ENDBRANCH  12  13
ENDBRANCH  11  12
ENDBRANCH   1  11
TORSDOF 7
ENDMDL
MODEL 8
REMARK VINA RESULT:      -6.5      3.396      5.865
REMARK  Name = 5084146
REMARK  7 active torsions:
REMARK  status: ('A' for Active; 'I' for Inactive)
REMARK    1  A    between atoms: C_1  and  C_11
REMARK    2  A    between atoms: C_4  and  O_7
REMARK    3  A    between atoms: C_6  and  O_9
REMARK    4  A    between atoms: C_11  and  O_12
REMARK    5  A    between atoms: O_12  and  C_13
REMARK    6  A    between atoms: C_13  and  C_14
REMARK    7  A    between atoms: C_14  and  C_15
REMARK                            x       y       z     vdW  Elec       q    Type
REMARK                         _______ _______ _______ _____ _____    ______ ____
ROOT
ATOM      1  C   UNL     1      36.246 -22.619 -16.525  0.00  0.00    +0.010 C 
ATOM      2  C   UNL     1      37.364 -22.988 -15.785  0.00  0.00    +0.038 C 
ATOM      3  C   UNL     1      34.976 -23.047 -16.154  0.00  0.00    +0.001 C 
ATOM      4  C   UNL     1      37.209 -23.793 -14.656  0.00  0.00    +0.172 C 
ATOM      5  C   UNL     1      34.823 -23.853 -15.026  0.00  0.00    +0.040 C 
ATOM      6  C   UNL     1      35.938 -24.226 -14.277  0.00  0.00    +0.168 C 
ENDROOT
BRANCH   4   7
ATOM      7  O   UNL     1      38.307 -24.151 -13.933  0.00  0.00    -0.468 OA
ATOM      8  C   UNL     1      39.104 -25.216 -14.447  0.00  0.00    +0.253 C 
ENDBRANCH   4   7
BRANCH   6   9
ATOM      9  O   UNL     1      35.775 -25.013 -13.177  0.00  0.00    -0.503 OA
ATOM     10  H   UNL     1      35.923 -24.659 -12.323  0.00  0.00    +0.292 HD
ENDBRANCH   6   9
BRANCH   1  11
ATOM     11  C   UNL     1      36.412 -21.753 -17.739  0.00  0.00    +0.169 C 
BRANCH  11  12
ATOM     12  O   UNL     1      35.631 -22.286 -18.800  0.00  0.00    -0.349 OA
BRANCH  12  13
ATOM     13  C   UNL     1      35.105 -21.259 -19.629  0.00  0.00    +0.143 C 
BRANCH  13  14
ATOM     14  C   UNL     1      33.586 -21.287 -19.544  0.00  0.00    +0.032 C 
BRANCH  14  15
ATOM     15  C   UNL     1      32.951 -20.235 -20.448  0.00  0.00    +0.003 C 
ATOM     16  C   UNL     1      33.999 -19.320 -21.061  0.00  0.00    +0.000 C 
ENDBRANCH  14  15
ENDBRANCH  13  14
ENDBRANCH  12  13
ENDBRANCH  11  12
ENDBRANCH   1  11
TORSDOF 7
ENDMDL
MODEL 9
REMARK VINA RESULT:      -6.4      2.635      4.294
REMARK  Name = 5084146
REMARK  7 active torsions:
REMARK  status: ('A' for Active; 'I' for Inactive)
REMARK    1  A    between atoms: C_1  and  C_11
REMARK    2  A    between atoms: C_4  and  O_7
REMARK    3  A    between atoms: C_6  and  O_9
REMARK    4  A    between atoms: C_11  and  O_12
REMARK    5  A    between atoms: O_12  and  C_13
REMARK    6  A    between atoms: C_13  and  C_14
REMARK    7  A    between atoms: C_14  and  C_15
REMARK                            x       y       z     vdW  Elec       q    Type
REMARK                         _______ _______ _______ _____ _____    ______ ____
ROOT
ATOM      1  C   UNL     1      34.807 -17.685 -23.951  0.00  0.00    +0.010 C 
ATOM      2  C   UNL     1      34.938 -16.869 -22.833  0.00  0.00    +0.038 C 
ATOM      3  C   UNL     1      34.837 -19.070 -23.828  0.00  0.00    +0.001 C 
ATOM      4  C   UNL     1      35.097 -17.447 -21.572  0.00  0.00    +0.172 C 
ATOM      5  C   UNL     1      34.997 -19.646 -22.568  0.00  0.00    +0.040 C 
ATOM      6  C   UNL     1      35.128 -18.836 -21.441  0.00  0.00    +0.168 C 
ENDROOT
BRANCH   4   7
ATOM      7  O   UNL     1      35.224 -16.645 -20.479  0.00  0.00    -0.468 OA
ATOM      8  C   UNL     1      34.527 -15.401 -20.502  0.00  0.00    +0.253 C 
ENDBRANCH   4   7
BRANCH   6   9
ATOM      9  O   UNL     1      35.283 -19.411 -20.215  0.00  0.00    -0.503 OA
ATOM     10  H   UNL     1      34.581 -19.390 -19.596  0.00  0.00    +0.292 HD
ENDBRANCH   6   9
BRANCH   1  11
ATOM     11  C   UNL     1      34.635 -17.064 -25.306  0.00  0.00    +0.169 C 
BRANCH  11  12
ATOM     12  O   UNL     1      34.420 -15.667 -25.153  0.00  0.00    -0.349 OA
BRANCH  12  13
ATOM     13  C   UNL     1      33.261 -15.237 -25.852  0.00  0.00    +0.143 C 
BRANCH  13  14
ATOM     14  C   UNL     1      33.005 -13.772 -25.529  0.00  0.00    +0.032 C 
BRANCH  14  15
ATOM     15  C   UNL     1      33.563 -13.391 -24.160  0.00  0.00    +0.003 C 
ATOM     16  C   UNL     1      32.513 -13.535 -23.070  0.00  0.00    +0.000 C 
ENDBRANCH  14  15
ENDBRANCH  13  14
ENDBRANCH  12  13
ENDBRANCH  11  12
ENDBRANCH   1  11
TORSDOF 7
ENDMDL
