MODEL 1
REMARK VINA RESULT:      -6.6      0.000      0.000
REMARK  Name = 5289288
REMARK  6 active torsions:
REMARK  status: ('A' for Active; 'I' for Inactive)
REMARK    1  A    between atoms: C_3  and  C_15
REMARK    2  A    between atoms: C_8  and  N_32
REMARK    3  A    between atoms: C_13  and  N_35
REMARK    4  A    between atoms: C_16  and  C_29
REMARK    5  A    between atoms: C_18  and  N_23
REMARK    6  A    between atoms: C_29  and  O_30
REMARK                            x       y       z     vdW  Elec       q    Type
REMARK                         _______ _______ _______ _____ _____    ______ ____
ROOT
ATOM      1  O   UNL     1      34.978 -24.646 -14.159  0.00  0.00    -0.454 OA
ATOM      2  C   UNL     1      36.304 -23.513 -15.907  0.00  0.00    +0.017 C 
ATOM      3  C   UNL     1      35.193 -22.980 -16.475  0.00  0.00    +0.002 C 
ATOM      4  C   UNL     1      33.887 -23.295 -15.850  0.00  0.00    +0.034 C 
ATOM      5  C   UNL     1      37.705 -23.261 -16.458  0.00  0.00    +0.057 C 
ATOM      6  C   UNL     1      36.220 -24.370 -14.720  0.00  0.00    +0.143 C 
ATOM      7  C   UNL     1      33.847 -24.114 -14.721  0.00  0.00    +0.146 C 
ATOM      8  C   UNL     1      38.656 -24.699 -14.627  0.00  0.00    +0.047 C 
ATOM      9  C   UNL     1      38.828 -23.926 -15.713  0.00  0.00    -0.007 C 
ATOM     10  C   UNL     1      37.306 -24.908 -14.142  0.00  0.00    +0.051 C 
ATOM     11  C   UNL     1      32.675 -22.798 -16.354  0.00  0.00    +0.004 C 
ATOM     12  C   UNL     1      32.635 -24.436 -14.103  0.00  0.00    +0.052 C 
ATOM     13  C   UNL     1      31.441 -23.935 -14.614  0.00  0.00    +0.051 C 
ATOM     14  C   UNL     1      31.461 -23.116 -15.739  0.00  0.00    +0.015 C 
ENDROOT
BRANCH   3  15
ATOM     15  C   UNL     1      35.353 -22.134 -17.660  0.00  0.00    +0.006 C 
ATOM     16  C   UNL     1      34.541 -22.296 -18.778  0.00  0.00    +0.077 C 
ATOM     17  C   UNL     1      36.342 -21.156 -17.641  0.00  0.00    +0.001 C 
ATOM     18  C   UNL     1      35.712 -20.492 -19.877  0.00  0.00    +0.061 C 
ATOM     19  C   UNL     1      34.722 -21.472 -19.890  0.00  0.00    +0.022 C 
ATOM     20  C   UNL     1      36.523 -20.332 -18.753  0.00  0.00    +0.015 C 
BRANCH  18  23
ATOM     21  O   UNL     1      38.231 -19.212 -20.974  0.00  0.00    -0.269 OA
ATOM     22  O   UNL     1      33.698 -19.465 -21.895  0.00  0.00    -0.269 OA
ATOM     23  N   UNL     1      35.898 -19.645 -21.019  0.00  0.00    -0.201 N 
ATOM     24  C   UNL     1      37.107 -19.128 -21.439  0.00  0.00    +0.259 C 
ATOM     25  C   UNL     1      34.894 -19.223 -21.866  0.00  0.00    +0.259 C 
ATOM     26  C   UNL     1      36.833 -18.328 -22.640  0.00  0.00    +0.063 C 
ATOM     27  C   UNL     1      35.527 -18.375 -22.887  0.00  0.00    +0.063 C 
ENDBRANCH  18  23
BRANCH  16  29
ATOM     28  O   UNL     1      33.683 -24.522 -18.957  0.00  0.00    -0.245 OA
ATOM     29  C   UNL     1      33.495 -23.310 -18.831  0.00  0.00    +0.338 C 
BRANCH  29  30
ATOM     30  O   UNL     1      32.250 -22.775 -18.719  0.00  0.00    -0.477 OA
ATOM     31  H   UNL     1      32.138 -21.844 -18.732  0.00  0.00    +0.295 HD
ENDBRANCH  29  30
ENDBRANCH  16  29
ENDBRANCH   3  15
BRANCH   8  32
ATOM     32  N   UNL     1      39.683 -25.300 -13.954  0.00  0.00    -0.304 N 
ATOM     33  C   UNL     1      39.548 -25.691 -12.559  0.00  0.00    +0.112 C 
ATOM     34  C   UNL     1      40.858 -25.799 -14.654  0.00  0.00    +0.112 C 
ENDBRANCH   8  32
BRANCH  13  35
ATOM     35  N   UNL     1      30.217 -24.255 -13.993  0.00  0.00    -0.304 N 
ATOM     36  C   UNL     1      29.063 -24.623 -14.790  0.00  0.00    +0.112 C 
ATOM     37  C   UNL     1      30.097 -24.235 -12.549  0.00  0.00    +0.112 C 
ENDBRANCH  13  35
TORSDOF 6
ENDMDL
MODEL 2
REMARK VINA RESULT:      -6.2     11.434     15.678
REMARK  Name = 5289288
REMARK  6 active torsions:
REMARK  status: ('A' for Active; 'I' for Inactive)
REMARK    1  A    between atoms: C_3  and  C_15
REMARK    2  A    between atoms: C_8  and  N_32
REMARK    3  A    between atoms: C_13  and  N_35
REMARK    4  A    between atoms: C_16  and  C_29
REMARK    5  A    between atoms: C_18  and  N_23
REMARK    6  A    between atoms: C_29  and  O_30
REMARK                            x       y       z     vdW  Elec       q    Type
REMARK                         _______ _______ _______ _____ _____    ______ ____
ROOT
ATOM      1  O   UNL     1      32.441 -12.603 -21.709  0.00  0.00    -0.454 OA
ATOM      2  C   UNL     1      32.125 -10.155 -21.634  0.00  0.00    +0.017 C 
ATOM      3  C   UNL     1      32.341 -10.036 -22.968  0.00  0.00    +0.002 C 
ATOM      4  C   UNL     1      32.625 -11.275 -23.728  0.00  0.00    +0.034 C 
ATOM      5  C   UNL     1      31.822  -8.952 -20.744  0.00  0.00    +0.057 C 
ATOM      6  C   UNL     1      32.171 -11.459 -20.965  0.00  0.00    +0.143 C 
ATOM      7  C   UNL     1      32.660 -12.498 -23.057  0.00  0.00    +0.146 C 
ATOM      8  C   UNL     1      31.672 -10.491 -18.760  0.00  0.00    +0.047 C 
ATOM      9  C   UNL     1      31.610  -9.256 -19.287  0.00  0.00    -0.007 C 
ATOM     10  C   UNL     1      31.962 -11.600 -19.646  0.00  0.00    +0.051 C 
ATOM     11  C   UNL     1      32.863 -11.269 -25.112  0.00  0.00    +0.004 C 
ATOM     12  C   UNL     1      32.925 -13.690 -23.738  0.00  0.00    +0.052 C 
ATOM     13  C   UNL     1      33.159 -13.668 -25.111  0.00  0.00    +0.051 C 
ATOM     14  C   UNL     1      33.127 -12.458 -25.797  0.00  0.00    +0.015 C 
ENDROOT
BRANCH   3  15
ATOM     15  C   UNL     1      32.280  -8.701 -23.568  0.00  0.00    +0.006 C 
ATOM     16  C   UNL     1      33.435  -7.968 -23.820  0.00  0.00    +0.077 C 
ATOM     17  C   UNL     1      31.029  -8.179 -23.885  0.00  0.00    +0.001 C 
ATOM     18  C   UNL     1      32.089  -6.170 -24.709  0.00  0.00    +0.061 C 
ATOM     19  C   UNL     1      33.339  -6.699 -24.391  0.00  0.00    +0.022 C 
ATOM     20  C   UNL     1      30.933  -6.910 -24.456  0.00  0.00    +0.015 C 
BRANCH  18  23
ATOM     21  O   UNL     1      33.275  -5.091 -27.282  0.00  0.00    -0.269 OA
ATOM     22  O   UNL     1      30.633  -3.695 -23.741  0.00  0.00    -0.269 OA
ATOM     23  N   UNL     1      31.991  -4.867 -25.297  0.00  0.00    -0.201 N 
ATOM     24  C   UNL     1      32.564  -4.489 -26.495  0.00  0.00    +0.259 C 
ATOM     25  C   UNL     1      31.307  -3.799 -24.753  0.00  0.00    +0.259 C 
ATOM     26  C   UNL     1      32.205  -3.080 -26.711  0.00  0.00    +0.063 C 
ATOM     27  C   UNL     1      31.473  -2.670 -25.680  0.00  0.00    +0.063 C 
ENDBRANCH  18  23
BRANCH  16  29
ATOM     28  O   UNL     1      35.296  -9.455 -24.045  0.00  0.00    -0.245 OA
ATOM     29  C   UNL     1      34.760  -8.486 -23.501  0.00  0.00    +0.338 C 
BRANCH  29  30
ATOM     30  O   UNL     1      35.372  -7.773 -22.518  0.00  0.00    -0.477 OA
ATOM     31  H   UNL     1      36.084  -7.202 -22.729  0.00  0.00    +0.295 HD
ENDBRANCH  29  30
ENDBRANCH  16  29
ENDBRANCH   3  15
BRANCH   8  32
ATOM     32  N   UNL     1      31.477 -10.758 -17.434  0.00  0.00    -0.304 N 
ATOM     33  C   UNL     1      30.864 -12.004 -16.995  0.00  0.00    +0.112 C 
ATOM     34  C   UNL     1      32.087  -9.938 -16.398  0.00  0.00    +0.112 C 
ENDBRANCH   8  32
BRANCH  13  35
ATOM     35  N   UNL     1      33.425 -14.868 -25.802  0.00  0.00    -0.304 N 
ATOM     36  C   UNL     1      34.306 -15.866 -25.227  0.00  0.00    +0.112 C 
ATOM     37  C   UNL     1      32.813 -15.126 -27.089  0.00  0.00    +0.112 C 
ENDBRANCH  13  35
TORSDOF 6
ENDMDL
MODEL 3
REMARK VINA RESULT:      -5.6     11.499     15.586
REMARK  Name = 5289288
REMARK  6 active torsions:
REMARK  status: ('A' for Active; 'I' for Inactive)
REMARK    1  A    between atoms: C_3  and  C_15
REMARK    2  A    between atoms: C_8  and  N_32
REMARK    3  A    between atoms: C_13  and  N_35
REMARK    4  A    between atoms: C_16  and  C_29
REMARK    5  A    between atoms: C_18  and  N_23
REMARK    6  A    between atoms: C_29  and  O_30
REMARK                            x       y       z     vdW  Elec       q    Type
REMARK                         _______ _______ _______ _____ _____    ______ ____
ROOT
ATOM      1  O   UNL     1      32.456 -12.480 -21.716  0.00  0.00    -0.454 OA
ATOM      2  C   UNL     1      32.589 -10.951 -23.650  0.00  0.00    +0.017 C 
ATOM      3  C   UNL     1      32.309  -9.870 -22.879  0.00  0.00    +0.002 C 
ATOM      4  C   UNL     1      32.088 -10.101 -21.433  0.00  0.00    +0.034 C 
ATOM      5  C   UNL     1      32.837 -10.840 -25.152  0.00  0.00    +0.057 C 
ATOM      6  C   UNL     1      32.669 -12.298 -23.078  0.00  0.00    +0.143 C 
ATOM      7  C   UNL     1      32.173 -11.398 -20.924  0.00  0.00    +0.146 C 
ATOM      8  C   UNL     1      33.186 -13.329 -25.251  0.00  0.00    +0.047 C 
ATOM      9  C   UNL     1      33.132 -12.132 -25.861  0.00  0.00    -0.007 C 
ATOM     10  C   UNL     1      32.944 -13.382 -23.823  0.00  0.00    +0.051 C 
ATOM     11  C   UNL     1      31.792  -9.057 -20.542  0.00  0.00    +0.004 C 
ATOM     12  C   UNL     1      31.970 -11.658 -19.566  0.00  0.00    +0.052 C 
ATOM     13  C   UNL     1      31.678 -10.612 -18.695  0.00  0.00    +0.051 C 
ATOM     14  C   UNL     1      31.590  -9.312 -19.183  0.00  0.00    +0.015 C 
ENDROOT
BRANCH   3  15
ATOM     15  C   UNL     1      32.244  -8.554 -23.518  0.00  0.00    +0.006 C 
ATOM     16  C   UNL     1      33.394  -7.806 -23.751  0.00  0.00    +0.077 C 
ATOM     17  C   UNL     1      30.996  -8.064 -23.891  0.00  0.00    +0.001 C 
ATOM     18  C   UNL     1      32.048  -6.059 -24.736  0.00  0.00    +0.061 C 
ATOM     19  C   UNL     1      33.295  -6.555 -24.361  0.00  0.00    +0.022 C 
ATOM     20  C   UNL     1      30.897  -6.814 -24.502  0.00  0.00    +0.015 C 
BRANCH  18  23
ATOM     21  O   UNL     1      30.598  -3.554 -23.838  0.00  0.00    -0.269 OA
ATOM     22  O   UNL     1      33.222  -5.062 -27.345  0.00  0.00    -0.269 OA
ATOM     23  N   UNL     1      31.946  -4.775 -25.364  0.00  0.00    -0.201 N 
ATOM     24  C   UNL     1      31.265  -3.690 -24.850  0.00  0.00    +0.259 C 
ATOM     25  C   UNL     1      32.514  -4.435 -26.574  0.00  0.00    +0.259 C 
ATOM     26  C   UNL     1      31.427  -2.592 -25.813  0.00  0.00    +0.063 C 
ATOM     27  C   UNL     1      32.154  -3.034 -26.834  0.00  0.00    +0.063 C 
ENDBRANCH  18  23
BRANCH  16  29
ATOM     28  O   UNL     1      35.362  -9.147 -23.982  0.00  0.00    -0.245 OA
ATOM     29  C   UNL     1      34.717  -8.289 -23.373  0.00  0.00    +0.338 C 
BRANCH  29  30
ATOM     30  O   UNL     1      35.189  -7.683 -22.252  0.00  0.00    -0.477 OA
ATOM     31  H   UNL     1      35.922  -7.101 -22.309  0.00  0.00    +0.295 HD
ENDBRANCH  29  30
ENDBRANCH  16  29
ENDBRANCH   3  15
BRANCH   8  32
ATOM     32  N   UNL     1      33.456 -14.499 -25.903  0.00  0.00    -0.304 N 
ATOM     33  C   UNL     1      33.865 -15.693 -25.177  0.00  0.00    +0.112 C 
ATOM     34  C   UNL     1      33.113 -14.682 -27.306  0.00  0.00    +0.112 C 
ENDBRANCH   8  32
BRANCH  13  35
ATOM     35  N   UNL     1      31.474 -10.870 -17.324  0.00  0.00    -0.304 N 
ATOM     36  C   UNL     1      30.783 -12.071 -16.897  0.00  0.00    +0.112 C 
ATOM     37  C   UNL     1      31.964  -9.945 -16.321  0.00  0.00    +0.112 C 
ENDBRANCH  13  35
TORSDOF 6
ENDMDL
MODEL 4
REMARK VINA RESULT:      -4.9      1.665      6.894
REMARK  Name = 5289288
REMARK  6 active torsions:
REMARK  status: ('A' for Active; 'I' for Inactive)
REMARK    1  A    between atoms: C_3  and  C_15
REMARK    2  A    between atoms: C_8  and  N_32
REMARK    3  A    between atoms: C_13  and  N_35
REMARK    4  A    between atoms: C_16  and  C_29
REMARK    5  A    between atoms: C_18  and  N_23
REMARK    6  A    between atoms: C_29  and  O_30
REMARK                            x       y       z     vdW  Elec       q    Type
REMARK                         _______ _______ _______ _____ _____    ______ ____
ROOT
ATOM      1  O   UNL     1      37.895 -21.952 -17.731  0.00  0.00    -0.454 OA
ATOM      2  C   UNL     1      36.150 -23.101 -16.415  0.00  0.00    +0.017 C 
ATOM      3  C   UNL     1      35.156 -22.537 -17.147  0.00  0.00    +0.002 C 
ATOM      4  C   UNL     1      35.549 -21.622 -18.243  0.00  0.00    +0.034 C 
ATOM      5  C   UNL     1      35.872 -24.061 -15.261  0.00  0.00    +0.057 C 
ATOM      6  C   UNL     1      37.561 -22.816 -16.694  0.00  0.00    +0.143 C 
ATOM      7  C   UNL     1      36.902 -21.376 -18.480  0.00  0.00    +0.146 C 
ATOM      8  C   UNL     1      38.348 -24.277 -14.879  0.00  0.00    +0.047 C 
ATOM      9  C   UNL     1      37.084 -24.596 -14.552  0.00  0.00    -0.007 C 
ATOM     10  C   UNL     1      38.560 -23.362 -15.982  0.00  0.00    +0.051 C 
ATOM     11  C   UNL     1      34.605 -20.984 -19.064  0.00  0.00    +0.004 C 
ATOM     12  C   UNL     1      37.315 -20.517 -19.503  0.00  0.00    +0.052 C 
ATOM     13  C   UNL     1      36.366 -19.893 -20.309  0.00  0.00    +0.051 C 
ATOM     14  C   UNL     1      35.012 -20.126 -20.089  0.00  0.00    +0.015 C 
ENDROOT
BRANCH   3  15
ATOM     15  C   UNL     1      33.769 -22.867 -16.812  0.00  0.00    +0.006 C 
ATOM     16  C   UNL     1      32.875 -23.307 -17.783  0.00  0.00    +0.077 C 
ATOM     17  C   UNL     1      33.362 -22.729 -15.488  0.00  0.00    +0.001 C 
ATOM     18  C   UNL     1      31.147 -23.474 -16.104  0.00  0.00    +0.061 C 
ATOM     19  C   UNL     1      31.561 -23.611 -17.428  0.00  0.00    +0.022 C 
ATOM     20  C   UNL     1      32.047 -23.033 -15.133  0.00  0.00    +0.015 C 
BRANCH  18  23
ATOM     21  O   UNL     1      30.015 -25.914 -14.707  0.00  0.00    -0.269 OA
ATOM     22  O   UNL     1      28.597 -21.886 -16.503  0.00  0.00    -0.269 OA
ATOM     23  N   UNL     1      29.797 -23.787 -15.739  0.00  0.00    -0.201 N 
ATOM     24  C   UNL     1      29.395 -24.933 -15.083  0.00  0.00    +0.259 C 
ATOM     25  C   UNL     1      28.701 -22.987 -15.989  0.00  0.00    +0.259 C 
ATOM     26  C   UNL     1      27.939 -24.835 -14.909  0.00  0.00    +0.063 C 
ATOM     27  C   UNL     1      27.528 -23.693 -15.452  0.00  0.00    +0.063 C 
ENDBRANCH  18  23
BRANCH  16  29
ATOM     28  O   UNL     1      33.956 -24.385 -19.625  0.00  0.00    -0.245 OA
ATOM     29  C   UNL     1      33.269 -23.463 -19.178  0.00  0.00    +0.338 C 
BRANCH  29  30
ATOM     30  O   UNL     1      32.789 -22.465 -19.966  0.00  0.00    -0.477 OA
ATOM     31  H   UNL     1      33.382 -21.925 -20.451  0.00  0.00    +0.295 HD
ENDBRANCH  29  30
ENDBRANCH  16  29
ENDBRANCH   3  15
BRANCH   8  32
ATOM     32  N   UNL     1      39.445 -24.769 -14.228  0.00  0.00    -0.304 N 
ATOM     33  C   UNL     1      39.418 -25.042 -12.799  0.00  0.00    +0.112 C 
ATOM     34  C   UNL     1      40.598 -25.272 -14.961  0.00  0.00    +0.112 C 
ENDBRANCH   8  32
BRANCH  13  35
ATOM     35  N   UNL     1      36.777 -19.027 -21.343  0.00  0.00    -0.304 N 
ATOM     36  C   UNL     1      35.807 -18.208 -22.044  0.00  0.00    +0.112 C 
ATOM     37  C   UNL     1      38.176 -18.934 -21.712  0.00  0.00    +0.112 C 
ENDBRANCH  13  35
TORSDOF 6
ENDMDL
MODEL 5
REMARK VINA RESULT:      -4.4      1.174      2.336
REMARK  Name = 5289288
REMARK  6 active torsions:
REMARK  status: ('A' for Active; 'I' for Inactive)
REMARK    1  A    between atoms: C_3  and  C_15
REMARK    2  A    between atoms: C_8  and  N_32
REMARK    3  A    between atoms: C_13  and  N_35
REMARK    4  A    between atoms: C_16  and  C_29
REMARK    5  A    between atoms: C_18  and  N_23
REMARK    6  A    between atoms: C_29  and  O_30
REMARK                            x       y       z     vdW  Elec       q    Type
REMARK                         _______ _______ _______ _____ _____    ______ ____
ROOT
ATOM      1  O   UNL     1      34.813 -24.959 -14.182  0.00  0.00    -0.454 OA
ATOM      2  C   UNL     1      36.167 -23.780 -15.877  0.00  0.00    +0.017 C 
ATOM      3  C   UNL     1      35.065 -23.235 -16.451  0.00  0.00    +0.002 C 
ATOM      4  C   UNL     1      33.750 -23.567 -15.857  0.00  0.00    +0.034 C 
ATOM      5  C   UNL     1      37.577 -23.512 -16.398  0.00  0.00    +0.057 C 
ATOM      6  C   UNL     1      36.064 -24.667 -14.715  0.00  0.00    +0.143 C 
ATOM      7  C   UNL     1      33.691 -24.414 -14.750  0.00  0.00    +0.146 C 
ATOM      8  C   UNL     1      38.499 -24.995 -14.588  0.00  0.00    +0.047 C 
ATOM      9  C   UNL     1      38.688 -24.194 -15.651  0.00  0.00    -0.007 C 
ATOM     10  C   UNL     1      37.141 -25.218 -14.131  0.00  0.00    +0.051 C 
ATOM     11  C   UNL     1      32.545 -23.060 -16.369  0.00  0.00    +0.004 C 
ATOM     12  C   UNL     1      32.470 -24.753 -14.161  0.00  0.00    +0.052 C 
ATOM     13  C   UNL     1      31.283 -24.241 -14.679  0.00  0.00    +0.051 C 
ATOM     14  C   UNL     1      31.322 -23.395 -15.783  0.00  0.00    +0.015 C 
ENDROOT
BRANCH   3  15
ATOM     15  C   UNL     1      35.243 -22.359 -17.611  0.00  0.00    +0.006 C 
ATOM     16  C   UNL     1      36.185 -21.334 -17.605  0.00  0.00    +0.077 C 
ATOM     17  C   UNL     1      34.443 -22.576 -18.729  0.00  0.00    +0.001 C 
ATOM     18  C   UNL     1      35.527 -20.730 -19.850  0.00  0.00    +0.061 C 
ATOM     19  C   UNL     1      36.326 -20.517 -18.728  0.00  0.00    +0.022 C 
ATOM     20  C   UNL     1      34.585 -21.759 -19.852  0.00  0.00    +0.015 C 
BRANCH  18  23
ATOM     21  O   UNL     1      33.475 -19.846 -21.897  0.00  0.00    -0.269 OA
ATOM     22  O   UNL     1      37.979 -19.326 -20.946  0.00  0.00    -0.269 OA
ATOM     23  N   UNL     1      35.673 -19.892 -21.003  0.00  0.00    -0.201 N 
ATOM     24  C   UNL     1      34.654 -19.538 -21.865  0.00  0.00    +0.259 C 
ATOM     25  C   UNL     1      36.855 -19.314 -21.421  0.00  0.00    +0.259 C 
ATOM     26  C   UNL     1      35.248 -18.672 -22.893  0.00  0.00    +0.063 C 
ATOM     27  C   UNL     1      36.547 -18.548 -22.638  0.00  0.00    +0.063 C 
ENDBRANCH  18  23
BRANCH  16  29
ATOM     28  O   UNL     1      36.788 -21.416 -15.292  0.00  0.00    -0.245 OA
ATOM     29  C   UNL     1      37.039 -21.079 -16.451  0.00  0.00    +0.338 C 
BRANCH  29  30
ATOM     30  O   UNL     1      38.178 -20.418 -16.787  0.00  0.00    -0.477 OA
ATOM     31  H   UNL     1      38.610 -20.611 -17.596  0.00  0.00    +0.295 HD
ENDBRANCH  29  30
ENDBRANCH  16  29
ENDBRANCH   3  15
BRANCH   8  32
ATOM     32  N   UNL     1      39.515 -25.611 -13.913  0.00  0.00    -0.304 N 
ATOM     33  C   UNL     1      39.391 -25.951 -12.503  0.00  0.00    +0.112 C 
ATOM     34  C   UNL     1      40.658 -26.176 -14.616  0.00  0.00    +0.112 C 
ENDBRANCH   8  32
BRANCH  13  35
ATOM     35  N   UNL     1      30.049 -24.579 -14.088  0.00  0.00    -0.304 N 
ATOM     36  C   UNL     1      29.905 -24.591 -12.645  0.00  0.00    +0.112 C 
ATOM     37  C   UNL     1      28.904 -24.907 -14.913  0.00  0.00    +0.112 C 
ENDBRANCH  13  35
TORSDOF 6
ENDMDL
MODEL 6
REMARK VINA RESULT:      -4.0      1.779      7.585
REMARK  Name = 5289288
REMARK  6 active torsions:
REMARK  status: ('A' for Active; 'I' for Inactive)
REMARK    1  A    between atoms: C_3  and  C_15
REMARK    2  A    between atoms: C_8  and  N_32
REMARK    3  A    between atoms: C_13  and  N_35
REMARK    4  A    between atoms: C_16  and  C_29
REMARK    5  A    between atoms: C_18  and  N_23
REMARK    6  A    between atoms: C_29  and  O_30
REMARK                            x       y       z     vdW  Elec       q    Type
REMARK                         _______ _______ _______ _____ _____    ______ ____
ROOT
ATOM      1  O   UNL     1      37.846 -22.046 -17.692  0.00  0.00    -0.454 OA
ATOM      2  C   UNL     1      35.422 -21.813 -18.105  0.00  0.00    +0.017 C 
ATOM      3  C   UNL     1      35.117 -22.657 -17.088  0.00  0.00    +0.002 C 
ATOM      4  C   UNL     1      36.242 -23.236 -16.318  0.00  0.00    +0.034 C 
ATOM      5  C   UNL     1      34.351 -21.153 -18.969  0.00  0.00    +0.057 C 
ATOM      6  C   UNL     1      36.813 -21.484 -18.434  0.00  0.00    +0.143 C 
ATOM      7  C   UNL     1      37.552 -22.899 -16.661  0.00  0.00    +0.146 C 
ATOM      8  C   UNL     1      36.159 -20.002 -20.285  0.00  0.00    +0.047 C 
ATOM      9  C   UNL     1      34.857 -20.246 -20.055  0.00  0.00    -0.007 C 
ATOM     10  C   UNL     1      37.138 -20.652 -19.437  0.00  0.00    +0.051 C 
ATOM     11  C   UNL     1      36.043 -24.121 -15.246  0.00  0.00    +0.004 C 
ATOM     12  C   UNL     1      38.642 -23.425 -15.960  0.00  0.00    +0.052 C 
ATOM     13  C   UNL     1      38.428 -24.301 -14.899  0.00  0.00    +0.051 C 
ATOM     14  C   UNL     1      37.128 -24.648 -14.543  0.00  0.00    +0.015 C 
ENDROOT
BRANCH   3  15
ATOM     15  C   UNL     1      33.706 -22.941 -16.816  0.00  0.00    +0.006 C 
ATOM     16  C   UNL     1      32.939 -23.701 -17.694  0.00  0.00    +0.077 C 
ATOM     17  C   UNL     1      33.144 -22.428 -15.651  0.00  0.00    +0.001 C 
ATOM     18  C   UNL     1      31.029 -23.438 -16.239  0.00  0.00    +0.061 C 
ATOM     19  C   UNL     1      31.597 -23.951 -17.404  0.00  0.00    +0.022 C 
ATOM     20  C   UNL     1      31.802 -22.677 -15.361  0.00  0.00    +0.015 C 
BRANCH  18  23
ATOM     21  O   UNL     1      28.544 -21.870 -16.978  0.00  0.00    -0.269 OA
ATOM     22  O   UNL     1      29.757 -25.708 -14.686  0.00  0.00    -0.269 OA
ATOM     23  N   UNL     1      29.652 -23.695 -15.940  0.00  0.00    -0.201 N 
ATOM     24  C   UNL     1      28.590 -22.913 -16.348  0.00  0.00    +0.259 C 
ATOM     25  C   UNL     1      29.184 -24.763 -15.201  0.00  0.00    +0.259 C 
ATOM     26  C   UNL     1      27.370 -23.546 -15.826  0.00  0.00    +0.063 C 
ATOM     27  C   UNL     1      27.721 -24.630 -15.141  0.00  0.00    +0.063 C 
ENDBRANCH  18  23
BRANCH  16  29
ATOM     28  O   UNL     1      33.806 -23.600 -19.922  0.00  0.00    -0.245 OA
ATOM     29  C   UNL     1      33.496 -24.254 -18.923  0.00  0.00    +0.338 C 
BRANCH  29  30
ATOM     30  O   UNL     1      33.651 -25.603 -18.860  0.00  0.00    -0.477 OA
ATOM     31  H   UNL     1      32.918 -26.166 -19.018  0.00  0.00    +0.295 HD
ENDBRANCH  29  30
ENDBRANCH  16  29
ENDBRANCH   3  15
BRANCH   8  32
ATOM     32  N   UNL     1      36.611 -19.175 -21.275  0.00  0.00    -0.304 N 
ATOM     33  C   UNL     1      35.733 -18.204 -21.911  0.00  0.00    +0.112 C 
ATOM     34  C   UNL     1      38.032 -19.048 -21.567  0.00  0.00    +0.112 C 
ENDBRANCH   8  32
BRANCH  13  35
ATOM     35  N   UNL     1      39.523 -24.832 -14.188  0.00  0.00    -0.304 N 
ATOM     36  C   UNL     1      39.689 -24.551 -12.776  0.00  0.00    +0.112 C 
ATOM     37  C   UNL     1      40.491 -25.678 -14.857  0.00  0.00    +0.112 C 
ENDBRANCH  13  35
TORSDOF 6
ENDMDL
