MODEL 1
REMARK VINA RESULT:      -3.7      0.000      0.000
REMARK  Name = 25113120
REMARK  3 active torsions:
REMARK  status: ('A' for Active; 'I' for Inactive)
REMARK    1  A    between atoms: C_4  and  O_27
REMARK    2  A    between atoms: C_8  and  C_23
REMARK    3  A    between atoms: C_10  and  C_16
REMARK                            x       y       z     vdW  Elec       q    Type
REMARK                         _______ _______ _______ _____ _____    ______ ____
ROOT
ATOM      1  N   UNL     1      37.296 -23.472 -14.253  0.00  0.00    -0.280 N 
ATOM      2  N   UNL     1      36.408 -22.305 -16.055  0.00  0.00    -0.393 NA
ATOM      3  N   UNL     1      34.348 -24.407 -15.490  0.00  0.00    -0.259 NA
ATOM      4  C   UNL     1      38.059 -22.554 -12.594  0.00  0.00    +0.150 C 
ATOM      5  C   UNL     1      36.702 -23.135 -12.995  0.00  0.00    +0.124 C 
ATOM      6  C   UNL     1      38.343 -22.508 -14.096  0.00  0.00    +0.124 C 
ATOM      7  C   UNL     1      36.517 -23.423 -15.386  0.00  0.00    +0.187 C 
ATOM      8  C   UNL     1      35.752 -24.682 -15.818  0.00  0.00    +0.197 C 
ATOM      9  C   UNL     1      35.595 -22.212 -17.200  0.00  0.00    +0.116 C 
ATOM     10  C   UNL     1      33.700 -23.520 -16.170  0.00  0.00    +0.079 C 
ATOM     11  C   UNL     1      34.296 -22.743 -17.295  0.00  0.00    +0.043 C 
ATOM     12  C   UNL     1      36.104 -21.494 -18.292  0.00  0.00    +0.085 C 
ATOM     13  C   UNL     1      33.552 -22.593 -18.475  0.00  0.00    +0.003 C 
ATOM     14  C   UNL     1      35.356 -21.333 -19.459  0.00  0.00    -0.019 C 
ATOM     15  C   UNL     1      34.083 -21.885 -19.552  0.00  0.00    -0.004 C 
ENDROOT
BRANCH  10  16
ATOM     16  C   UNL     1      32.282 -23.267 -15.787  0.00  0.00    +0.017 C 
ATOM     17  C   UNL     1      31.326 -23.026 -16.774  0.00  0.00    +0.001 C 
ATOM     18  C   UNL     1      31.910 -23.275 -14.443  0.00  0.00    +0.001 C 
ATOM     19  C   UNL     1      29.998 -22.790 -16.417  0.00  0.00    +0.000 C 
ATOM     20  C   UNL     1      30.582 -23.040 -14.086  0.00  0.00    +0.000 C 
ATOM     21  C   UNL     1      29.627 -22.798 -15.072  0.00  0.00    +0.000 C 
ENDBRANCH  10  16
BRANCH   8  23
ATOM     22  S   UNL     1      36.447 -26.070 -13.497  0.00  0.00    -0.088 S 
ATOM     23  C   UNL     1      36.261 -25.971 -15.196  0.00  0.00    +0.037 C 
ATOM     24  C   UNL     1      36.619 -27.143 -15.826  0.00  0.00    +0.005 C 
ATOM     25  C   UNL     1      37.051 -28.136 -14.900  0.00  0.00    +0.007 C 
ATOM     26  C   UNL     1      37.007 -27.686 -13.599  0.00  0.00    +0.035 C 
ENDBRANCH   8  23
BRANCH   4  27
ATOM     27  O   UNL     1      38.032 -21.289 -11.910  0.00  0.00    -0.381 OA
ATOM     28  H   UNL     1      38.758 -20.732 -12.230  0.00  0.00    +0.210 HD
ENDBRANCH   4  27
TORSDOF 3
ENDMDL
MODEL 2
REMARK VINA RESULT:      -3.1      2.059      4.918
REMARK  Name = 25113120
REMARK  3 active torsions:
REMARK  status: ('A' for Active; 'I' for Inactive)
REMARK    1  A    between atoms: C_4  and  O_27
REMARK    2  A    between atoms: C_8  and  C_23
REMARK    3  A    between atoms: C_10  and  C_16
REMARK                            x       y       z     vdW  Elec       q    Type
REMARK                         _______ _______ _______ _____ _____    ______ ____
ROOT
ATOM      1  N   UNL     1      36.130 -25.745 -14.397  0.00  0.00    -0.280 N 
ATOM      2  N   UNL     1      34.044 -25.375 -15.350  0.00  0.00    -0.393 NA
ATOM      3  N   UNL     1      35.461 -22.760 -15.714  0.00  0.00    -0.259 NA
ATOM      4  C   UNL     1      37.265 -27.396 -14.800  0.00  0.00    +0.150 C 
ATOM      5  C   UNL     1      37.171 -25.973 -15.353  0.00  0.00    +0.124 C 
ATOM      6  C   UNL     1      35.859 -27.144 -14.255  0.00  0.00    +0.124 C 
ATOM      7  C   UNL     1      35.096 -24.903 -14.735  0.00  0.00    +0.187 C 
ATOM      8  C   UNL     1      35.223 -23.406 -14.418  0.00  0.00    +0.197 C 
ATOM      9  C   UNL     1      32.983 -24.536 -15.738  0.00  0.00    +0.116 C 
ATOM     10  C   UNL     1      34.507 -22.714 -16.584  0.00  0.00    +0.079 C 
ATOM     11  C   UNL     1      33.148 -23.282 -16.352  0.00  0.00    +0.043 C 
ATOM     12  C   UNL     1      31.680 -25.017 -15.542  0.00  0.00    +0.085 C 
ATOM     13  C   UNL     1      32.029 -22.516 -16.716  0.00  0.00    +0.003 C 
ATOM     14  C   UNL     1      30.570 -24.260 -15.918  0.00  0.00    -0.019 C 
ATOM     15  C   UNL     1      30.744 -23.009 -16.501  0.00  0.00    -0.004 C 
ENDROOT
BRANCH  10  16
ATOM     16  C   UNL     1      34.806 -22.060 -17.890  0.00  0.00    +0.017 C 
ATOM     17  C   UNL     1      36.115 -21.694 -18.204  0.00  0.00    +0.001 C 
ATOM     18  C   UNL     1      33.777 -21.818 -18.801  0.00  0.00    +0.001 C 
ATOM     19  C   UNL     1      36.395 -21.083 -19.426  0.00  0.00    +0.000 C 
ATOM     20  C   UNL     1      34.057 -21.207 -20.023  0.00  0.00    +0.000 C 
ATOM     21  C   UNL     1      35.365 -20.841 -20.336  0.00  0.00    +0.000 C 
ENDBRANCH  10  16
BRANCH   8  23
ATOM     22  S   UNL     1      36.005 -23.436 -11.738  0.00  0.00    -0.088 S 
ATOM     23  C   UNL     1      36.286 -23.069 -13.387  0.00  0.00    +0.037 C 
ATOM     24  C   UNL     1      37.514 -22.477 -13.584  0.00  0.00    +0.005 C 
ATOM     25  C   UNL     1      38.235 -22.324 -12.365  0.00  0.00    +0.007 C 
ATOM     26  C   UNL     1      37.530 -22.803 -11.282  0.00  0.00    +0.035 C 
ENDBRANCH   8  23
BRANCH   4  27
ATOM     27  O   UNL     1      37.394 -28.450 -15.772  0.00  0.00    -0.381 OA
ATOM     28  H   UNL     1      38.034 -29.105 -15.456  0.00  0.00    +0.210 HD
ENDBRANCH   4  27
TORSDOF 3
ENDMDL
