MODEL 1
REMARK VINA RESULT:      -9.2      0.000      0.000
REMARK  Name = 5284597
REMARK  1 active torsions:
REMARK  status: ('A' for Active; 'I' for Inactive)
REMARK    1  A    between atoms: C_6  and  O_21
REMARK                            x       y       z     vdW  Elec       q    Type
REMARK                         _______ _______ _______ _____ _____    ______ ____
ROOT
ATOM      1  O   UNL     1      28.568 -22.035 -16.392  0.00  0.00    -0.291 OA
ATOM      2  C   UNL     1      36.136 -24.540 -13.576  0.00  0.00    +0.023 C 
ATOM      3  C   UNL     1      35.906 -23.568 -14.755  0.00  0.00    +0.002 C 
ATOM      4  C   UNL     1      34.604 -23.847 -15.512  0.00  0.00    +0.001 C 
ATOM      5  C   UNL     1      33.405 -23.713 -14.528  0.00  0.00    +0.004 C 
ATOM      6  C   UNL     1      37.553 -24.088 -13.106  0.00  0.00    +0.088 C 
ATOM      7  C   UNL     1      34.978 -24.355 -12.583  0.00  0.00    +0.002 C 
ATOM      8  C   UNL     1      37.222 -23.622 -15.523  0.00  0.00    +0.002 C 
ATOM      9  C   UNL     1      33.606 -24.566 -13.251  0.00  0.00    +0.000 C 
ATOM     10  C   UNL     1      38.298 -23.811 -14.438  0.00  0.00    +0.027 C 
ATOM     11  C   UNL     1      32.054 -24.020 -15.245  0.00  0.00    +0.019 C 
ATOM     12  C   UNL     1      34.414 -22.891 -16.697  0.00  0.00    +0.004 C 
ATOM     13  C   UNL     1      36.187 -26.035 -14.007  0.00  0.00    +0.002 C 
ATOM     14  C   UNL     1      33.122 -23.207 -17.443  0.00  0.00    +0.022 C 
ATOM     15  C   UNL     1      31.920 -23.215 -16.531  0.00  0.00    -0.042 C 
ATOM     16  C   UNL     1      37.589 -22.846 -12.205  0.00  0.00    +0.029 C 
ATOM     17  C   UNL     1      30.869 -23.772 -14.289  0.00  0.00    +0.012 C 
ATOM     18  C   UNL     1      29.533 -23.739 -15.011  0.00  0.00    +0.069 C 
ATOM     19  C   UNL     1      30.802 -22.568 -16.897  0.00  0.00    +0.029 C 
ATOM     20  C   UNL     1      29.559 -22.700 -16.102  0.00  0.00    +0.173 C 
ENDROOT
BRANCH   6  21
ATOM     21  O   UNL     1      38.233 -25.123 -12.398  0.00  0.00    -0.387 OA
ATOM     22  H   UNL     1      38.234 -24.919 -11.450  0.00  0.00    +0.210 HD
ENDBRANCH   6  21
TORSDOF 1
ENDMDL
MODEL 2
REMARK VINA RESULT:      -9.1      1.241      6.465
REMARK  Name = 5284597
REMARK  1 active torsions:
REMARK  status: ('A' for Active; 'I' for Inactive)
REMARK    1  A    between atoms: C_6  and  O_21
REMARK                            x       y       z     vdW  Elec       q    Type
REMARK                         _______ _______ _______ _____ _____    ______ ____
ROOT
ATOM      1  O   UNL     1      39.809 -25.537 -13.987  0.00  0.00    -0.291 OA
ATOM      2  C   UNL     1      31.592 -23.673 -14.686  0.00  0.00    +0.023 C 
ATOM      3  C   UNL     1      32.619 -23.601 -15.838  0.00  0.00    +0.002 C 
ATOM      4  C   UNL     1      34.031 -23.252 -15.358  0.00  0.00    +0.001 C 
ATOM      5  C   UNL     1      34.507 -24.337 -14.348  0.00  0.00    +0.004 C 
ATOM      6  C   UNL     1      30.277 -23.915 -15.489  0.00  0.00    +0.088 C 
ATOM      7  C   UNL     1      32.041 -24.788 -13.728  0.00  0.00    +0.002 C 
ATOM      8  C   UNL     1      31.947 -22.685 -16.856  0.00  0.00    +0.002 C 
ATOM      9  C   UNL     1      33.476 -24.564 -13.215  0.00  0.00    +0.000 C 
ATOM     10  C   UNL     1      30.445 -22.998 -16.729  0.00  0.00    +0.027 C 
ATOM     11  C   UNL     1      35.931 -24.009 -13.803  0.00  0.00    +0.019 C 
ATOM     12  C   UNL     1      35.024 -23.154 -16.523  0.00  0.00    +0.004 C 
ATOM     13  C   UNL     1      31.470 -22.346 -13.881  0.00  0.00    +0.002 C 
ATOM     14  C   UNL     1      36.415 -22.785 -16.017  0.00  0.00    +0.022 C 
ATOM     15  C   UNL     1      36.902 -23.724 -14.942  0.00  0.00    -0.042 C 
ATOM     16  C   UNL     1      30.022 -25.364 -15.925  0.00  0.00    +0.029 C 
ATOM     17  C   UNL     1      36.435 -25.149 -12.893  0.00  0.00    +0.012 C 
ATOM     18  C   UNL     1      37.920 -25.046 -12.596  0.00  0.00    +0.069 C 
ATOM     19  C   UNL     1      38.147 -24.223 -15.007  0.00  0.00    +0.029 C 
ATOM     20  C   UNL     1      38.705 -25.010 -13.882  0.00  0.00    +0.173 C 
ENDROOT
BRANCH   6  21
ATOM     21  O   UNL     1      29.124 -23.502 -14.758  0.00  0.00    -0.387 OA
ATOM     22  H   UNL     1      28.806 -24.239 -14.214  0.00  0.00    +0.210 HD
ENDBRANCH   6  21
TORSDOF 1
ENDMDL
MODEL 3
REMARK VINA RESULT:      -9.1      2.561      3.771
REMARK  Name = 5284597
REMARK  1 active torsions:
REMARK  status: ('A' for Active; 'I' for Inactive)
REMARK    1  A    between atoms: C_6  and  O_21
REMARK                            x       y       z     vdW  Elec       q    Type
REMARK                         _______ _______ _______ _____ _____    ______ ____
ROOT
ATOM      1  O   UNL     1      33.392 -19.458 -20.922  0.00  0.00    -0.291 OA
ATOM      2  C   UNL     1      35.704 -24.444 -14.498  0.00  0.00    +0.023 C 
ATOM      3  C   UNL     1      36.540 -23.271 -15.055  0.00  0.00    +0.002 C 
ATOM      4  C   UNL     1      36.320 -23.040 -16.553  0.00  0.00    +0.001 C 
ATOM      5  C   UNL     1      34.816 -22.728 -16.802  0.00  0.00    +0.004 C 
ATOM      6  C   UNL     1      36.230 -24.499 -13.030  0.00  0.00    +0.088 C 
ATOM      7  C   UNL     1      34.220 -24.098 -14.696  0.00  0.00    +0.002 C 
ATOM      8  C   UNL     1      37.952 -23.575 -14.564  0.00  0.00    +0.002 C 
ATOM      9  C   UNL     1      33.890 -23.797 -16.170  0.00  0.00    +0.000 C 
ATOM     10  C   UNL     1      37.751 -24.237 -13.188  0.00  0.00    +0.027 C 
ATOM     11  C   UNL     1      34.532 -22.515 -18.322  0.00  0.00    +0.019 C 
ATOM     12  C   UNL     1      37.185 -21.891 -17.088  0.00  0.00    +0.004 C 
ATOM     13  C   UNL     1      35.996 -25.802 -15.202  0.00  0.00    +0.002 C 
ATOM     14  C   UNL     1      36.960 -21.699 -18.585  0.00  0.00    +0.022 C 
ATOM     15  C   UNL     1      35.503 -21.510 -18.926  0.00  0.00    -0.042 C 
ATOM     16  C   UNL     1      35.608 -23.482 -12.064  0.00  0.00    +0.029 C 
ATOM     17  C   UNL     1      33.063 -22.097 -18.542  0.00  0.00    +0.012 C 
ATOM     18  C   UNL     1      32.811 -21.567 -19.942  0.00  0.00    +0.069 C 
ATOM     19  C   UNL     1      35.136 -20.520 -19.756  0.00  0.00    +0.029 C 
ATOM     20  C   UNL     1      33.739 -20.417 -20.237  0.00  0.00    +0.173 C 
ENDROOT
BRANCH   6  21
ATOM     21  O   UNL     1      36.038 -25.785 -12.444  0.00  0.00    -0.387 OA
ATOM     22  H   UNL     1      36.816 -26.017 -11.912  0.00  0.00    +0.210 HD
ENDBRANCH   6  21
TORSDOF 1
ENDMDL
MODEL 4
REMARK VINA RESULT:      -8.8      9.855     11.752
REMARK  Name = 5284597
REMARK  1 active torsions:
REMARK  status: ('A' for Active; 'I' for Inactive)
REMARK    1  A    between atoms: C_6  and  O_21
REMARK                            x       y       z     vdW  Elec       q    Type
REMARK                         _______ _______ _______ _____ _____    ______ ____
ROOT
ATOM      1  O   UNL     1      33.931 -10.865 -25.707  0.00  0.00    -0.291 OA
ATOM      2  C   UNL     1      34.646 -18.148 -21.473  0.00  0.00    +0.023 C 
ATOM      3  C   UNL     1      34.924 -17.969 -22.982  0.00  0.00    +0.002 C 
ATOM      4  C   UNL     1      34.062 -16.875 -23.621  0.00  0.00    +0.001 C 
ATOM      5  C   UNL     1      34.349 -15.521 -22.908  0.00  0.00    +0.004 C 
ATOM      6  C   UNL     1      35.558 -19.374 -21.158  0.00  0.00    +0.088 C 
ATOM      7  C   UNL     1      34.990 -16.824 -20.773  0.00  0.00    +0.002 C 
ATOM      8  C   UNL     1      34.828 -19.388 -23.532  0.00  0.00    +0.002 C 
ATOM      9  C   UNL     1      34.211 -15.637 -21.370  0.00  0.00    +0.000 C 
ATOM     10  C   UNL     1      35.376 -20.280 -22.404  0.00  0.00    +0.027 C 
ATOM     11  C   UNL     1      33.470 -14.378 -23.503  0.00  0.00    +0.019 C 
ATOM     12  C   UNL     1      34.333 -16.739 -25.125  0.00  0.00    +0.004 C 
ATOM     13  C   UNL     1      33.165 -18.509 -21.154  0.00  0.00    +0.002 C 
ATOM     14  C   UNL     1      33.447 -15.659 -25.737  0.00  0.00    +0.022 C 
ATOM     15  C   UNL     1      33.577 -14.337 -25.022  0.00  0.00    -0.042 C 
ATOM     16  C   UNL     1      37.043 -19.058 -20.937  0.00  0.00    +0.029 C 
ATOM     17  C   UNL     1      33.846 -13.024 -22.866  0.00  0.00    +0.012 C 
ATOM     18  C   UNL     1      33.264 -11.842 -23.622  0.00  0.00    +0.069 C 
ATOM     19  C   UNL     1      33.734 -13.208 -25.731  0.00  0.00    +0.029 C 
ATOM     20  C   UNL     1      33.696 -11.886 -25.065  0.00  0.00    +0.173 C 
ENDROOT
BRANCH   6  21
ATOM     21  O   UNL     1      35.116 -20.081 -20.000  0.00  0.00    -0.387 OA
ATOM     22  H   UNL     1      34.464 -20.751 -20.261  0.00  0.00    +0.210 HD
ENDBRANCH   6  21
TORSDOF 1
ENDMDL
MODEL 5
REMARK VINA RESULT:      -7.9      1.147      2.765
REMARK  Name = 5284597
REMARK  1 active torsions:
REMARK  status: ('A' for Active; 'I' for Inactive)
REMARK    1  A    between atoms: C_6  and  O_21
REMARK                            x       y       z     vdW  Elec       q    Type
REMARK                         _______ _______ _______ _____ _____    ______ ____
ROOT
ATOM      1  O   UNL     1      28.726 -23.510 -16.829  0.00  0.00    -0.291 OA
ATOM      2  C   UNL     1      36.729 -24.109 -14.169  0.00  0.00    +0.023 C 
ATOM      3  C   UNL     1      35.511 -24.753 -13.469  0.00  0.00    +0.002 C 
ATOM      4  C   UNL     1      34.222 -23.945 -13.652  0.00  0.00    +0.001 C 
ATOM      5  C   UNL     1      33.907 -23.832 -15.172  0.00  0.00    +0.004 C 
ATOM      6  C   UNL     1      37.867 -25.071 -13.704  0.00  0.00    +0.088 C 
ATOM      7  C   UNL     1      36.430 -24.057 -15.675  0.00  0.00    +0.002 C 
ATOM      8  C   UNL     1      36.013 -25.014 -12.052  0.00  0.00    +0.002 C 
ATOM      9  C   UNL     1      35.121 -23.304 -15.977  0.00  0.00    +0.000 C 
ATOM     10  C   UNL     1      37.502 -25.363 -12.225  0.00  0.00    +0.027 C 
ATOM     11  C   UNL     1      32.617 -22.989 -15.415  0.00  0.00    +0.019 C 
ATOM     12  C   UNL     1      33.036 -24.587 -12.921  0.00  0.00    +0.004 C 
ATOM     13  C   UNL     1      37.037 -22.666 -13.673  0.00  0.00    +0.002 C 
ATOM     14  C   UNL     1      31.774 -23.751 -13.104  0.00  0.00    +0.022 C 
ATOM     15  C   UNL     1      31.463 -23.491 -14.558  0.00  0.00    -0.042 C 
ATOM     16  C   UNL     1      37.993 -26.380 -14.494  0.00  0.00    +0.029 C 
ATOM     17  C   UNL     1      32.254 -22.980 -16.915  0.00  0.00    +0.012 C 
ATOM     18  C   UNL     1      30.852 -22.457 -17.173  0.00  0.00    +0.069 C 
ATOM     19  C   UNL     1      30.213 -23.668 -15.014  0.00  0.00    +0.029 C 
ATOM     20  C   UNL     1      29.846 -23.262 -16.391  0.00  0.00    +0.173 C 
ENDROOT
BRANCH   6  21
ATOM     21  O   UNL     1      39.146 -24.442 -13.753  0.00  0.00    -0.387 OA
ATOM     22  H   UNL     1      39.411 -24.180 -12.857  0.00  0.00    +0.210 HD
ENDBRANCH   6  21
TORSDOF 1
ENDMDL
MODEL 6
REMARK VINA RESULT:      -7.8      9.811     11.675
REMARK  Name = 5284597
REMARK  1 active torsions:
REMARK  status: ('A' for Active; 'I' for Inactive)
REMARK    1  A    between atoms: C_6  and  O_21
REMARK                            x       y       z     vdW  Elec       q    Type
REMARK                         _______ _______ _______ _____ _____    ______ ____
ROOT
ATOM      1  O   UNL     1      32.074  -9.755 -22.049  0.00  0.00    -0.291 OA
ATOM      2  C   UNL     1      34.511 -17.849 -21.907  0.00  0.00    +0.023 C 
ATOM      3  C   UNL     1      34.675 -16.895 -23.111  0.00  0.00    +0.002 C 
ATOM      4  C   UNL     1      33.572 -15.834 -23.185  0.00  0.00    +0.001 C 
ATOM      5  C   UNL     1      33.599 -14.983 -21.881  0.00  0.00    +0.004 C 
ATOM      6  C   UNL     1      35.676 -18.852 -22.177  0.00  0.00    +0.088 C 
ATOM      7  C   UNL     1      34.599 -17.006 -20.626  0.00  0.00    +0.002 C 
ATOM      8  C   UNL     1      34.856 -17.842 -24.293  0.00  0.00    +0.002 C 
ATOM      9  C   UNL     1      33.560 -15.869 -20.611  0.00  0.00    +0.000 C 
ATOM     10  C   UNL     1      35.632 -19.040 -23.716  0.00  0.00    +0.027 C 
ATOM     11  C   UNL     1      32.471 -13.905 -21.893  0.00  0.00    +0.019 C 
ATOM     12  C   UNL     1      33.738 -14.920 -24.406  0.00  0.00    +0.004 C 
ATOM     13  C   UNL     1      33.157 -18.618 -21.905  0.00  0.00    +0.002 C 
ATOM     14  C   UNL     1      32.616 -13.889 -24.464  0.00  0.00    +0.022 C 
ATOM     15  C   UNL     1      32.496 -13.098 -23.184  0.00  0.00    -0.042 C 
ATOM     16  C   UNL     1      37.069 -18.388 -21.733  0.00  0.00    +0.029 C 
ATOM     17  C   UNL     1      32.580 -12.999 -20.649  0.00  0.00    +0.012 C 
ATOM     18  C   UNL     1      31.727 -11.747 -20.762  0.00  0.00    +0.069 C 
ATOM     19  C   UNL     1      32.378 -11.762 -23.235  0.00  0.00    +0.029 C 
ATOM     20  C   UNL     1      32.091 -10.983 -22.009  0.00  0.00    +0.173 C 
ENDROOT
BRANCH   6  21
ATOM     21  O   UNL     1      35.448 -20.112 -21.549  0.00  0.00    -0.387 OA
ATOM     22  H   UNL     1      34.879 -20.657 -22.116  0.00  0.00    +0.210 HD
ENDBRANCH   6  21
TORSDOF 1
ENDMDL
MODEL 7
REMARK VINA RESULT:      -7.8     11.643     14.341
REMARK  Name = 5284597
REMARK  1 active torsions:
REMARK  status: ('A' for Active; 'I' for Inactive)
REMARK    1  A    between atoms: C_6  and  O_21
REMARK                            x       y       z     vdW  Elec       q    Type
REMARK                         _______ _______ _______ _____ _____    ______ ____
ROOT
ATOM      1  O   UNL     1      35.667 -18.059 -22.924  0.00  0.00    -0.291 OA
ATOM      2  C   UNL     1      31.962 -10.502 -22.119  0.00  0.00    +0.023 C 
ATOM      3  C   UNL     1      32.369 -11.420 -20.945  0.00  0.00    +0.002 C 
ATOM      4  C   UNL     1      32.302 -12.908 -21.300  0.00  0.00    +0.001 C 
ATOM      5  C   UNL     1      33.262 -13.189 -22.493  0.00  0.00    +0.004 C 
ATOM      6  C   UNL     1      32.012  -9.107 -21.422  0.00  0.00    +0.088 C 
ATOM      7  C   UNL     1      32.953 -10.745 -23.268  0.00  0.00    +0.002 C 
ATOM      8  C   UNL     1      31.522 -10.908 -19.784  0.00  0.00    +0.002 C 
ATOM      9  C   UNL     1      33.005 -12.228 -23.681  0.00  0.00    +0.000 C 
ATOM     10  C   UNL     1      31.417  -9.390 -20.018  0.00  0.00    +0.027 C 
ATOM     11  C   UNL     1      33.206 -14.690 -22.916  0.00  0.00    +0.019 C 
ATOM     12  C   UNL     1      32.678 -13.799 -20.109  0.00  0.00    +0.004 C 
ATOM     13  C   UNL     1      30.520 -10.767 -22.642  0.00  0.00    +0.002 C 
ATOM     14  C   UNL     1      32.582 -15.274 -20.486  0.00  0.00    +0.022 C 
ATOM     15  C   UNL     1      33.394 -15.606 -21.714  0.00  0.00    -0.042 C 
ATOM     16  C   UNL     1      33.406  -8.477 -21.297  0.00  0.00    +0.029 C 
ATOM     17  C   UNL     1      34.244 -14.976 -24.022  0.00  0.00    +0.012 C 
ATOM     18  C   UNL     1      34.464 -16.462 -24.245  0.00  0.00    +0.069 C 
ATOM     19  C   UNL     1      34.193 -16.685 -21.712  0.00  0.00    +0.029 C 
ATOM     20  C   UNL     1      34.869 -17.126 -22.954  0.00  0.00    +0.173 C 
ENDROOT
BRANCH   6  21
ATOM     21  O   UNL     1      31.192  -8.150 -22.090  0.00  0.00    -0.387 OA
ATOM     22  H   UNL     1      31.439  -7.257 -21.802  0.00  0.00    +0.210 HD
ENDBRANCH   6  21
TORSDOF 1
ENDMDL
MODEL 8
REMARK VINA RESULT:      -7.8     19.999     22.237
REMARK  Name = 5284597
REMARK  1 active torsions:
REMARK  status: ('A' for Active; 'I' for Inactive)
REMARK    1  A    between atoms: C_6  and  O_21
REMARK                            x       y       z     vdW  Elec       q    Type
REMARK                         _______ _______ _______ _____ _____    ______ ____
ROOT
ATOM      1  O   UNL     1      32.764  -8.034 -20.366  0.00  0.00    -0.291 OA
ATOM      2  C   UNL     1      33.758  -3.939 -27.696  0.00  0.00    +0.023 C 
ATOM      3  C   UNL     1      32.884  -3.451 -26.519  0.00  0.00    +0.002 C 
ATOM      4  C   UNL     1      32.286  -4.602 -25.703  0.00  0.00    +0.001 C 
ATOM      5  C   UNL     1      33.443  -5.468 -25.125  0.00  0.00    +0.004 C 
ATOM      6  C   UNL     1      34.103  -2.580 -28.379  0.00  0.00    +0.088 C 
ATOM      7  C   UNL     1      34.929  -4.743 -27.108  0.00  0.00    +0.002 C 
ATOM      8  C   UNL     1      31.936  -2.451 -27.172  0.00  0.00    +0.002 C 
ATOM      9  C   UNL     1      34.443  -5.906 -26.223  0.00  0.00    +0.000 C 
ATOM     10  C   UNL     1      32.774  -1.786 -28.278  0.00  0.00    +0.027 C 
ATOM     11  C   UNL     1      32.885  -6.675 -24.309  0.00  0.00    +0.019 C 
ATOM     12  C   UNL     1      31.397  -4.092 -24.561  0.00  0.00    +0.004 C 
ATOM     13  C   UNL     1      32.991  -4.845 -28.704  0.00  0.00    +0.002 C 
ATOM     14  C   UNL     1      30.800  -5.259 -23.781  0.00  0.00    +0.022 C 
ATOM     15  C   UNL     1      31.855  -6.217 -23.285  0.00  0.00    -0.042 C 
ATOM     16  C   UNL     1      35.250  -1.787 -27.740  0.00  0.00    +0.029 C 
ATOM     17  C   UNL     1      34.039  -7.458 -23.649  0.00  0.00    +0.012 C 
ATOM     18  C   UNL     1      33.553  -8.436 -22.593  0.00  0.00    +0.069 C 
ATOM     19  C   UNL     1      31.821  -6.646 -22.014  0.00  0.00    +0.029 C 
ATOM     20  C   UNL     1      32.741  -7.711 -21.551  0.00  0.00    +0.173 C 
ENDROOT
BRANCH   6  21
ATOM     21  O   UNL     1      34.441  -2.747 -29.754  0.00  0.00    -0.387 OA
ATOM     22  H   UNL     1      34.325  -3.678 -30.004  0.00  0.00    +0.210 HD
ENDBRANCH   6  21
TORSDOF 1
ENDMDL
MODEL 9
REMARK VINA RESULT:      -7.7     13.786     16.281
REMARK  Name = 5284597
REMARK  1 active torsions:
REMARK  status: ('A' for Active; 'I' for Inactive)
REMARK    1  A    between atoms: C_6  and  O_21
REMARK                            x       y       z     vdW  Elec       q    Type
REMARK                         _______ _______ _______ _____ _____    ______ ____
ROOT
ATOM      1  O   UNL     1      33.451 -16.126 -20.602  0.00  0.00    -0.291 OA
ATOM      2  C   UNL     1      32.313  -8.283 -23.549  0.00  0.00    +0.023 C 
ATOM      3  C   UNL     1      32.510  -8.652 -22.062  0.00  0.00    +0.002 C 
ATOM      4  C   UNL     1      31.963 -10.040 -21.713  0.00  0.00    +0.001 C 
ATOM      5  C   UNL     1      32.694 -11.106 -22.581  0.00  0.00    +0.004 C 
ATOM      6  C   UNL     1      32.843  -6.816 -23.553  0.00  0.00    +0.088 C 
ATOM      7  C   UNL     1      33.088  -9.308 -24.392  0.00  0.00    +0.002 C 
ATOM      8  C   UNL     1      31.955  -7.441 -21.319  0.00  0.00    +0.002 C 
ATOM      9  C   UNL     1      32.651 -10.753 -24.089  0.00  0.00    +0.000 C 
ATOM     10  C   UNL     1      32.302  -6.241 -22.217  0.00  0.00    +0.027 C 
ATOM     11  C   UNL     1      32.149 -12.537 -22.286  0.00  0.00    +0.019 C 
ATOM     12  C   UNL     1      32.142 -10.368 -20.225  0.00  0.00    +0.004 C 
ATOM     13  C   UNL     1      30.822  -8.296 -23.998  0.00  0.00    +0.002 C 
ATOM     14  C   UNL     1      31.569 -11.745 -19.905  0.00  0.00    +0.022 C 
ATOM     15  C   UNL     1      32.141 -12.825 -20.790  0.00  0.00    -0.042 C 
ATOM     16  C   UNL     1      34.367  -6.660 -23.625  0.00  0.00    +0.029 C 
ATOM     17  C   UNL     1      32.958 -13.593 -23.068  0.00  0.00    +0.012 C 
ATOM     18  C   UNL     1      32.694 -15.008 -22.583  0.00  0.00    +0.069 C 
ATOM     19  C   UNL     1      32.569 -13.975 -20.247  0.00  0.00    +0.029 C 
ATOM     20  C   UNL     1      32.977 -15.111 -21.106  0.00  0.00    +0.173 C 
ENDROOT
BRANCH   6  21
ATOM     21  O   UNL     1      32.305  -6.060 -24.636  0.00  0.00    -0.387 OA
ATOM     22  H   UNL     1      31.941  -6.665 -25.302  0.00  0.00    +0.210 HD
ENDBRANCH   6  21
TORSDOF 1
ENDMDL
