MODEL 1
REMARK VINA RESULT:     -11.3      0.000      0.000
REMARK  Name = 42608447
REMARK  9 active torsions:
REMARK  status: ('A' for Active; 'I' for Inactive)
REMARK    1  A    between atoms: C_3  and  C_8
REMARK    2  A    between atoms: C_7  and  C_23
REMARK    3  A    between atoms: C_8  and  N_10
REMARK    4  A    between atoms: C_11  and  C_13
REMARK    5  A    between atoms: C_16  and  S_19
REMARK    6  A    between atoms: C_23  and  C_24
REMARK    7  A    between atoms: C_24  and  N_25
REMARK    8  A    between atoms: C_24  and  C_29
REMARK    9  A    between atoms: C_29  and  C_31
REMARK                            x       y       z     vdW  Elec       q    Type
REMARK                         _______ _______ _______ _____ _____    ______ ____
ROOT
ATOM      1  O   UNL     1      35.113 -17.026 -20.634  0.00  0.00    -0.275 OA
ATOM      2  N   UNL     1      34.776 -17.613 -22.846  0.00  0.00    -0.280 N 
ATOM      3  C   UNL     1      34.827 -16.254 -23.389  0.00  0.00    +0.095 C 
ATOM      4  C   UNL     1      35.007 -16.470 -24.894  0.00  0.00    +0.023 C 
ATOM      5  C   UNL     1      34.282 -17.785 -25.152  0.00  0.00    +0.023 C 
ATOM      6  C   UNL     1      34.601 -18.601 -23.908  0.00  0.00    +0.093 C 
ATOM      7  C   UNL     1      34.968 -17.888 -21.502  0.00  0.00    +0.224 C 
ENDROOT
BRANCH   3   8
ATOM      8  C   UNL     1      33.552 -15.478 -23.067  0.00  0.00    +0.109 C 
BRANCH   8  10
ATOM      9  O   UNL     1      32.753 -13.757 -25.222  0.00  0.00    -0.270 OA
ATOM     10  N   UNL     1      33.772 -14.066 -23.161  0.00  0.00    -0.299 N 
ATOM     11  C   UNL     1      33.348 -13.305 -24.248  0.00  0.00    +0.246 C 
ATOM     12  H   UNL     1      34.243 -13.614 -22.424  0.00  0.00    +0.150 HD
BRANCH  11  13
ATOM     13  C   UNL     1      33.676 -11.856 -24.206  0.00  0.00    +0.055 C 
ATOM     14  C   UNL     1      32.980 -11.008 -23.345  0.00  0.00    +0.023 C 
ATOM     15  C   UNL     1      34.681 -11.344 -25.027  0.00  0.00    +0.005 C 
ATOM     16  C   UNL     1      33.288  -9.648 -23.306  0.00  0.00    +0.106 C 
ATOM     17  C   UNL     1      34.989  -9.985 -24.988  0.00  0.00    +0.001 C 
ATOM     18  C   UNL     1      34.293  -9.136 -24.127  0.00  0.00    +0.018 C 
BRANCH  16  19
ATOM     19  S   UNL     1      32.417  -8.586 -22.228  0.00  0.00    +0.010 S 
ATOM     20  O   UNL     1      33.357  -7.647 -21.630  0.00  0.00    -0.169 OA
ATOM     21  O   UNL     1      31.249  -8.086 -22.939  0.00  0.00    -0.169 OA
ATOM     22  C   UNL     1      31.847  -9.650 -20.922  0.00  0.00    +0.182 C 
ENDBRANCH  16  19
ENDBRANCH  11  13
ENDBRANCH   8  10
ENDBRANCH   3   8
BRANCH   7  23
ATOM     23  C   UNL     1      34.989 -19.350 -21.134  0.00  0.00    +0.064 C 
BRANCH  23  24
ATOM     24  C   UNL     1      36.238 -19.714 -20.329  0.00  0.00    -0.052 C 
BRANCH  24  25
ATOM     25  N   UNL     1      37.395 -19.177 -21.057  0.00  0.00    +0.382 N 
ATOM     26  H   UNL     1      38.207 -19.164 -20.441  0.00  0.00    -0.089 HD
ATOM     27  H   UNL     1      37.189 -18.229 -21.370  0.00  0.00    -0.089 HD
ATOM     28  H   UNL     1      37.591 -19.767 -21.867  0.00  0.00    -0.089 HD
ENDBRANCH  24  25
BRANCH  24  29
ATOM     29  C   UNL     1      36.433 -21.237 -20.155  0.00  0.00    +0.005 C 
BRANCH  29  31
ATOM     30 CL   UNL     1      32.677 -23.347 -17.218  0.00  0.00    -0.082 Cl
ATOM     31  C   UNL     1      35.991 -21.779 -18.818  0.00  0.00    -0.023 C 
ATOM     32  C   UNL     1      34.691 -22.257 -18.655  0.00  0.00    +0.007 C 
ATOM     33  C   UNL     1      36.881 -21.800 -17.745  0.00  0.00    -0.004 C 
ATOM     34  C   UNL     1      34.281 -22.757 -17.419  0.00  0.00    +0.057 C 
ATOM     35  C   UNL     1      36.471 -22.300 -16.509  0.00  0.00    +0.001 C 
ATOM     36  C   UNL     1      35.171 -22.779 -16.346  0.00  0.00    +0.011 C 
ENDBRANCH  29  31
ENDBRANCH  24  29
ENDBRANCH  23  24
ENDBRANCH   7  23
TORSDOF 9
ENDMDL
MODEL 2
REMARK VINA RESULT:     -11.2      2.211      3.640
REMARK  Name = 42608447
REMARK  9 active torsions:
REMARK  status: ('A' for Active; 'I' for Inactive)
REMARK    1  A    between atoms: C_3  and  C_8
REMARK    2  A    between atoms: C_7  and  C_23
REMARK    3  A    between atoms: C_8  and  N_10
REMARK    4  A    between atoms: C_11  and  C_13
REMARK    5  A    between atoms: C_16  and  S_19
REMARK    6  A    between atoms: C_23  and  C_24
REMARK    7  A    between atoms: C_24  and  N_25
REMARK    8  A    between atoms: C_24  and  C_29
REMARK    9  A    between atoms: C_29  and  C_31
REMARK                            x       y       z     vdW  Elec       q    Type
REMARK                         _______ _______ _______ _____ _____    ______ ____
ROOT
ATOM      1  O   UNL     1      35.024 -14.822 -22.007  0.00  0.00    -0.275 OA
ATOM      2  N   UNL     1      34.030 -14.890 -24.096  0.00  0.00    -0.280 N 
ATOM      3  C   UNL     1      33.657 -13.474 -24.149  0.00  0.00    +0.095 C 
ATOM      4  C   UNL     1      33.328 -13.241 -25.626  0.00  0.00    +0.023 C 
ATOM      5  C   UNL     1      32.789 -14.590 -26.086  0.00  0.00    +0.023 C 
ATOM      6  C   UNL     1      33.660 -15.582 -25.328  0.00  0.00    +0.093 C 
ATOM      7  C   UNL     1      34.728 -15.439 -23.032  0.00  0.00    +0.224 C 
ENDROOT
BRANCH   3   8
ATOM      8  C   UNL     1      32.467 -13.178 -23.240  0.00  0.00    +0.109 C 
BRANCH   8  10
ATOM      9  O   UNL     1      31.602 -12.087 -20.728  0.00  0.00    -0.270 OA
ATOM     10  N   UNL     1      32.432 -11.793 -22.875  0.00  0.00    -0.299 N 
ATOM     11  C   UNL     1      31.996 -11.350 -21.628  0.00  0.00    +0.246 C 
ATOM     12  H   UNL     1      32.731 -11.126 -23.534  0.00  0.00    +0.150 HD
BRANCH  11  13
ATOM     13  C   UNL     1      31.997  -9.880 -21.414  0.00  0.00    +0.055 C 
ATOM     14  C   UNL     1      31.934  -9.016 -22.507  0.00  0.00    +0.023 C 
ATOM     15  C   UNL     1      32.060  -9.363 -20.120  0.00  0.00    +0.005 C 
ATOM     16  C   UNL     1      31.935  -7.636 -22.307  0.00  0.00    +0.106 C 
ATOM     17  C   UNL     1      32.061  -7.983 -19.919  0.00  0.00    +0.001 C 
ATOM     18  C   UNL     1      31.998  -7.119 -21.013  0.00  0.00    +0.018 C 
BRANCH  16  19
ATOM     19  S   UNL     1      31.856  -6.554 -23.675  0.00  0.00    +0.010 S 
ATOM     20  O   UNL     1      33.198  -6.382 -24.219  0.00  0.00    -0.169 OA
ATOM     21  O   UNL     1      30.778  -7.006 -24.542  0.00  0.00    -0.169 OA
ATOM     22  C   UNL     1      31.378  -4.990 -22.977  0.00  0.00    +0.182 C 
ENDBRANCH  16  19
ENDBRANCH  11  13
ENDBRANCH   8  10
ENDBRANCH   3   8
BRANCH   7  23
ATOM     23  C   UNL     1      35.122 -16.886 -23.190  0.00  0.00    +0.064 C 
BRANCH  23  24
ATOM     24  C   UNL     1      34.566 -17.750 -22.058  0.00  0.00    -0.052 C 
BRANCH  24  25
ATOM     25  N   UNL     1      35.281 -17.373 -20.832  0.00  0.00    +0.382 N 
ATOM     26  H   UNL     1      34.900 -17.894 -20.042  0.00  0.00    -0.089 HD
ATOM     27  H   UNL     1      35.169 -16.373 -20.667  0.00  0.00    -0.089 HD
ATOM     28  H   UNL     1      36.273 -17.591 -20.936  0.00  0.00    -0.089 HD
ENDBRANCH  24  25
BRANCH  24  29
ATOM     29  C   UNL     1      34.760 -19.265 -22.290  0.00  0.00    +0.005 C 
BRANCH  29  31
ATOM     30 CL   UNL     1      36.795 -21.920 -18.291  0.00  0.00    -0.082 Cl
ATOM     31  C   UNL     1      34.545 -20.122 -21.067  0.00  0.00    -0.023 C 
ATOM     32  C   UNL     1      35.641 -20.572 -20.330  0.00  0.00    +0.007 C 
ATOM     33  C   UNL     1      33.252 -20.464 -20.673  0.00  0.00    -0.004 C 
ATOM     34  C   UNL     1      35.443 -21.365 -19.199  0.00  0.00    +0.057 C 
ATOM     35  C   UNL     1      33.055 -21.257 -19.542  0.00  0.00    +0.001 C 
ATOM     36  C   UNL     1      34.151 -21.707 -18.805  0.00  0.00    +0.011 C 
ENDBRANCH  29  31
ENDBRANCH  24  29
ENDBRANCH  23  24
ENDBRANCH   7  23
TORSDOF 9
ENDMDL
MODEL 3
REMARK VINA RESULT:     -11.1      4.866     10.906
REMARK  Name = 42608447
REMARK  9 active torsions:
REMARK  status: ('A' for Active; 'I' for Inactive)
REMARK    1  A    between atoms: C_3  and  C_8
REMARK    2  A    between atoms: C_7  and  C_23
REMARK    3  A    between atoms: C_8  and  N_10
REMARK    4  A    between atoms: C_11  and  C_13
REMARK    5  A    between atoms: C_16  and  S_19
REMARK    6  A    between atoms: C_23  and  C_24
REMARK    7  A    between atoms: C_24  and  N_25
REMARK    8  A    between atoms: C_24  and  C_29
REMARK    9  A    between atoms: C_29  and  C_31
REMARK                            x       y       z     vdW  Elec       q    Type
REMARK                         _______ _______ _______ _____ _____    ______ ____
ROOT
ATOM      1  O   UNL     1      34.299 -15.711 -26.097  0.00  0.00    -0.275 OA
ATOM      2  N   UNL     1      33.857 -15.566 -23.830  0.00  0.00    -0.280 N 
ATOM      3  C   UNL     1      34.930 -16.462 -23.393  0.00  0.00    +0.095 C 
ATOM      4  C   UNL     1      35.041 -16.190 -21.891  0.00  0.00    +0.023 C 
ATOM      5  C   UNL     1      33.618 -15.821 -21.492  0.00  0.00    +0.023 C 
ATOM      6  C   UNL     1      33.123 -15.024 -22.690  0.00  0.00    +0.093 C 
ATOM      7  C   UNL     1      33.658 -15.231 -25.160  0.00  0.00    +0.224 C 
ENDROOT
BRANCH   3   8
ATOM      8  C   UNL     1      34.594 -17.921 -23.691  0.00  0.00    +0.109 C 
BRANCH   8  10
ATOM      9  O   UNL     1      32.918 -19.284 -21.800  0.00  0.00    -0.270 OA
ATOM     10  N   UNL     1      35.025 -18.776 -22.626  0.00  0.00    -0.299 N 
ATOM     11  C   UNL     1      34.139 -19.400 -21.752  0.00  0.00    +0.246 C 
ATOM     12  H   UNL     1      35.990 -18.930 -22.509  0.00  0.00    +0.150 HD
BRANCH  11  13
ATOM     13  C   UNL     1      34.746 -20.236 -20.683  0.00  0.00    +0.055 C 
ATOM     14  C   UNL     1      33.956 -21.130 -19.962  0.00  0.00    +0.023 C 
ATOM     15  C   UNL     1      36.108 -20.126 -20.401  0.00  0.00    +0.005 C 
ATOM     16  C   UNL     1      34.526 -21.914 -18.960  0.00  0.00    +0.106 C 
ATOM     17  C   UNL     1      36.678 -20.909 -19.399  0.00  0.00    +0.001 C 
ATOM     18  C   UNL     1      35.888 -21.804 -18.678  0.00  0.00    +0.018 C 
BRANCH  16  19
ATOM     19  S   UNL     1      33.536 -23.034 -18.057  0.00  0.00    +0.010 S 
ATOM     20  O   UNL     1      32.214 -22.449 -17.870  0.00  0.00    -0.169 OA
ATOM     21  O   UNL     1      33.665 -24.346 -18.677  0.00  0.00    -0.169 OA
ATOM     22  C   UNL     1      34.301 -23.109 -16.454  0.00  0.00    +0.182 C 
ENDBRANCH  16  19
ENDBRANCH  11  13
ENDBRANCH   8  10
ENDBRANCH   3   8
BRANCH   7  23
ATOM     23  C   UNL     1      32.575 -14.215 -25.420  0.00  0.00    +0.064 C 
BRANCH  23  24
ATOM     24  C   UNL     1      33.154 -12.879 -25.890  0.00  0.00    -0.052 C 
BRANCH  24  25
ATOM     25  N   UNL     1      33.779 -13.114 -27.199  0.00  0.00    +0.382 N 
ATOM     26  H   UNL     1      34.410 -13.912 -27.136  0.00  0.00    -0.089 HD
ATOM     27  H   UNL     1      34.304 -12.285 -27.478  0.00  0.00    -0.089 HD
ATOM     28  H   UNL     1      33.055 -13.307 -27.892  0.00  0.00    -0.089 HD
ENDBRANCH  24  25
BRANCH  24  29
ATOM     29  C   UNL     1      34.222 -12.302 -24.935  0.00  0.00    +0.005 C 
BRANCH  29  31
ATOM     30 CL   UNL     1      34.858  -7.255 -23.792  0.00  0.00    -0.082 Cl
ATOM     31  C   UNL     1      33.778 -11.089 -24.155  0.00  0.00    -0.023 C 
ATOM     32  C   UNL     1      34.445  -9.874 -24.316  0.00  0.00    +0.007 C 
ATOM     33  C   UNL     1      32.703 -11.183 -23.272  0.00  0.00    -0.004 C 
ATOM     34  C   UNL     1      34.036  -8.753 -23.594  0.00  0.00    +0.057 C 
ATOM     35  C   UNL     1      32.294 -10.062 -22.550  0.00  0.00    +0.001 C 
ATOM     36  C   UNL     1      32.961  -8.846 -22.711  0.00  0.00    +0.011 C 
ENDBRANCH  29  31
ENDBRANCH  24  29
ENDBRANCH  23  24
ENDBRANCH   7  23
TORSDOF 9
ENDMDL
MODEL 4
REMARK VINA RESULT:     -11.1      1.692      2.655
REMARK  Name = 42608447
REMARK  9 active torsions:
REMARK  status: ('A' for Active; 'I' for Inactive)
REMARK    1  A    between atoms: C_3  and  C_8
REMARK    2  A    between atoms: C_7  and  C_23
REMARK    3  A    between atoms: C_8  and  N_10
REMARK    4  A    between atoms: C_11  and  C_13
REMARK    5  A    between atoms: C_16  and  S_19
REMARK    6  A    between atoms: C_23  and  C_24
REMARK    7  A    between atoms: C_24  and  N_25
REMARK    8  A    between atoms: C_24  and  C_29
REMARK    9  A    between atoms: C_29  and  C_31
REMARK                            x       y       z     vdW  Elec       q    Type
REMARK                         _______ _______ _______ _____ _____    ______ ____
ROOT
ATOM      1  O   UNL     1      34.207 -17.059 -24.634  0.00  0.00    -0.275 OA
ATOM      2  N   UNL     1      34.146 -15.650 -22.801  0.00  0.00    -0.280 N 
ATOM      3  C   UNL     1      33.050 -14.803 -23.278  0.00  0.00    +0.095 C 
ATOM      4  C   UNL     1      32.605 -14.043 -22.026  0.00  0.00    +0.023 C 
ATOM      5  C   UNL     1      33.890 -13.913 -21.216  0.00  0.00    +0.023 C 
ATOM      6  C   UNL     1      34.589 -15.240 -21.470  0.00  0.00    +0.093 C 
ATOM      7  C   UNL     1      34.607 -16.745 -23.512  0.00  0.00    +0.224 C 
ENDROOT
BRANCH   3   8
ATOM      8  C   UNL     1      33.515 -13.863 -24.388  0.00  0.00    +0.109 C 
BRANCH   8  10
ATOM      9  O   UNL     1      34.065 -11.523 -25.958  0.00  0.00    -0.270 OA
ATOM     10  N   UNL     1      33.627 -12.518 -23.909  0.00  0.00    -0.299 N 
ATOM     11  C   UNL     1      33.896 -11.437 -24.745  0.00  0.00    +0.246 C 
ATOM     12  H   UNL     1      33.506 -12.351 -22.947  0.00  0.00    +0.150 HD
BRANCH  11  13
ATOM     13  C   UNL     1      34.006 -10.108 -24.090  0.00  0.00    +0.055 C 
ATOM     14  C   UNL     1      33.168  -9.785 -23.022  0.00  0.00    +0.023 C 
ATOM     15  C   UNL     1      34.947  -9.183 -24.541  0.00  0.00    +0.005 C 
ATOM     16  C   UNL     1      33.270  -8.538 -22.407  0.00  0.00    +0.106 C 
ATOM     17  C   UNL     1      35.049  -7.936 -23.926  0.00  0.00    +0.001 C 
ATOM     18  C   UNL     1      34.211  -7.613 -22.859  0.00  0.00    +0.018 C 
BRANCH  16  19
ATOM     19  S   UNL     1      32.221  -8.134 -21.071  0.00  0.00    +0.010 S 
ATOM     20  O   UNL     1      33.035  -7.657 -19.960  0.00  0.00    -0.169 OA
ATOM     21  O   UNL     1      31.141  -7.304 -21.584  0.00  0.00    -0.169 OA
ATOM     22  C   UNL     1      31.524  -9.691 -20.569  0.00  0.00    +0.182 C 
ENDBRANCH  16  19
ENDBRANCH  11  13
ENDBRANCH   8  10
ENDBRANCH   3   8
BRANCH   7  23
ATOM     23  C   UNL     1      35.668 -17.567 -22.824  0.00  0.00    +0.064 C 
BRANCH  23  24
ATOM     24  C   UNL     1      35.269 -19.040 -22.726  0.00  0.00    -0.052 C 
BRANCH  24  25
ATOM     25  N   UNL     1      34.729 -19.431 -24.035  0.00  0.00    +0.382 N 
ATOM     26  H   UNL     1      35.128 -18.834 -24.759  0.00  0.00    -0.089 HD
ATOM     27  H   UNL     1      33.714 -19.329 -24.029  0.00  0.00    -0.089 HD
ATOM     28  H   UNL     1      34.971 -20.404 -24.225  0.00  0.00    -0.089 HD
ENDBRANCH  24  25
BRANCH  24  29
ATOM     29  C   UNL     1      34.192 -19.314 -21.652  0.00  0.00    +0.005 C 
BRANCH  29  31
ATOM     30 CL   UNL     1      32.850 -22.748 -17.965  0.00  0.00    -0.082 Cl
ATOM     31  C   UNL     1      34.614 -20.278 -20.571  0.00  0.00    -0.023 C 
ATOM     32  C   UNL     1      33.649 -20.985 -19.853  0.00  0.00    +0.007 C 
ATOM     33  C   UNL     1      35.967 -20.462 -20.290  0.00  0.00    -0.004 C 
ATOM     34  C   UNL     1      34.039 -21.876 -18.852  0.00  0.00    +0.057 C 
ATOM     35  C   UNL     1      36.356 -21.353 -19.289  0.00  0.00    +0.001 C 
ATOM     36  C   UNL     1      35.392 -22.060 -18.570  0.00  0.00    +0.011 C 
ENDBRANCH  29  31
ENDBRANCH  24  29
ENDBRANCH  23  24
ENDBRANCH   7  23
TORSDOF 9
ENDMDL
MODEL 5
REMARK VINA RESULT:     -11.1      6.962     11.827
REMARK  Name = 42608447
REMARK  9 active torsions:
REMARK  status: ('A' for Active; 'I' for Inactive)
REMARK    1  A    between atoms: C_3  and  C_8
REMARK    2  A    between atoms: C_7  and  C_23
REMARK    3  A    between atoms: C_8  and  N_10
REMARK    4  A    between atoms: C_11  and  C_13
REMARK    5  A    between atoms: C_16  and  S_19
REMARK    6  A    between atoms: C_23  and  C_24
REMARK    7  A    between atoms: C_24  and  N_25
REMARK    8  A    between atoms: C_24  and  C_29
REMARK    9  A    between atoms: C_29  and  C_31
REMARK                            x       y       z     vdW  Elec       q    Type
REMARK                         _______ _______ _______ _____ _____    ______ ____
ROOT
ATOM      1  O   UNL     1      33.560 -23.479 -17.883  0.00  0.00    -0.275 OA
ATOM      2  N   UNL     1      35.596 -22.478 -17.431  0.00  0.00    -0.280 N 
ATOM      3  C   UNL     1      35.820 -23.129 -16.138  0.00  0.00    +0.095 C 
ATOM      4  C   UNL     1      37.305 -22.885 -15.860  0.00  0.00    +0.023 C 
ATOM      5  C   UNL     1      37.576 -21.545 -16.534  0.00  0.00    +0.023 C 
ATOM      6  C   UNL     1      36.721 -21.617 -17.791  0.00  0.00    +0.093 C 
ATOM      7  C   UNL     1      34.490 -22.745 -18.221  0.00  0.00    +0.224 C 
ENDROOT
BRANCH   3   8
ATOM      8  C   UNL     1      34.924 -22.535 -15.054  0.00  0.00    +0.109 C 
BRANCH   8  10
ATOM      9  O   UNL     1      33.388 -23.837 -13.007  0.00  0.00    -0.270 OA
ATOM     10  N   UNL     1      33.583 -23.023 -15.171  0.00  0.00    -0.299 N 
ATOM     11  C   UNL     1      32.910 -23.644 -14.122  0.00  0.00    +0.246 C 
ATOM     12  H   UNL     1      33.116 -22.912 -16.030  0.00  0.00    +0.150 HD
BRANCH  11  13
ATOM     13  C   UNL     1      31.531 -24.117 -14.412  0.00  0.00    +0.055 C 
ATOM     14  C   UNL     1      30.724 -23.411 -15.304  0.00  0.00    +0.023 C 
ATOM     15  C   UNL     1      31.043 -25.268 -13.792  0.00  0.00    +0.005 C 
ATOM     16  C   UNL     1      29.430 -23.854 -15.576  0.00  0.00    +0.106 C 
ATOM     17  C   UNL     1      29.749 -25.711 -14.064  0.00  0.00    +0.001 C 
ATOM     18  C   UNL     1      28.942 -25.005 -14.956  0.00  0.00    +0.018 C 
BRANCH  16  19
ATOM     19  S   UNL     1      28.420 -22.970 -16.693  0.00  0.00    +0.010 S 
ATOM     20  O   UNL     1      29.181 -21.849 -17.230  0.00  0.00    -0.169 OA
ATOM     21  O   UNL     1      27.809 -23.930 -17.601  0.00  0.00    -0.169 OA
ATOM     22  C   UNL     1      27.133 -22.282 -15.677  0.00  0.00    +0.182 C 
ENDBRANCH  16  19
ENDBRANCH  11  13
ENDBRANCH   8  10
ENDBRANCH   3   8
BRANCH   7  23
ATOM     23  C   UNL     1      34.473 -22.066 -19.568  0.00  0.00    +0.064 C 
BRANCH  23  24
ATOM     24  C   UNL     1      33.548 -20.848 -19.575  0.00  0.00    -0.052 C 
BRANCH  24  25
ATOM     25  N   UNL     1      32.324 -21.228 -18.858  0.00  0.00    +0.382 N 
ATOM     26  H   UNL     1      32.083 -22.192 -19.085  0.00  0.00    -0.089 HD
ATOM     27  H   UNL     1      31.561 -20.611 -19.137  0.00  0.00    -0.089 HD
ATOM     28  H   UNL     1      32.478 -21.143 -17.853  0.00  0.00    -0.089 HD
ENDBRANCH  24  25
BRANCH  24  29
ATOM     29  C   UNL     1      33.157 -20.383 -20.996  0.00  0.00    +0.005 C 
BRANCH  29  31
ATOM     30 CL   UNL     1      34.627 -15.389 -20.693  0.00  0.00    -0.082 Cl
ATOM     31  C   UNL     1      33.991 -19.247 -21.537  0.00  0.00    -0.023 C 
ATOM     32  C   UNL     1      33.931 -17.990 -20.934  0.00  0.00    +0.007 C 
ATOM     33  C   UNL     1      34.819 -19.453 -22.639  0.00  0.00    -0.004 C 
ATOM     34  C   UNL     1      34.701 -16.939 -21.435  0.00  0.00    +0.057 C 
ATOM     35  C   UNL     1      35.588 -18.403 -23.140  0.00  0.00    +0.001 C 
ATOM     36  C   UNL     1      35.529 -17.145 -22.538  0.00  0.00    +0.011 C 
ENDBRANCH  29  31
ENDBRANCH  24  29
ENDBRANCH  23  24
ENDBRANCH   7  23
TORSDOF 9
ENDMDL
MODEL 6
REMARK VINA RESULT:     -10.9      4.948     11.467
REMARK  Name = 42608447
REMARK  9 active torsions:
REMARK  status: ('A' for Active; 'I' for Inactive)
REMARK    1  A    between atoms: C_3  and  C_8
REMARK    2  A    between atoms: C_7  and  C_23
REMARK    3  A    between atoms: C_8  and  N_10
REMARK    4  A    between atoms: C_11  and  C_13
REMARK    5  A    between atoms: C_16  and  S_19
REMARK    6  A    between atoms: C_23  and  C_24
REMARK    7  A    between atoms: C_24  and  N_25
REMARK    8  A    between atoms: C_24  and  C_29
REMARK    9  A    between atoms: C_29  and  C_31
REMARK                            x       y       z     vdW  Elec       q    Type
REMARK                         _______ _______ _______ _____ _____    ______ ____
ROOT
ATOM      1  O   UNL     1      30.732 -11.560 -20.859  0.00  0.00    -0.275 OA
ATOM      2  N   UNL     1      32.238 -11.710 -22.608  0.00  0.00    -0.280 N 
ATOM      3  C   UNL     1      32.216 -13.171 -22.722  0.00  0.00    +0.095 C 
ATOM      4  C   UNL     1      32.861 -13.439 -24.084  0.00  0.00    +0.023 C 
ATOM      5  C   UNL     1      33.848 -12.288 -24.241  0.00  0.00    +0.023 C 
ATOM      6  C   UNL     1      33.105 -11.114 -23.622  0.00  0.00    +0.093 C 
ATOM      7  C   UNL     1      31.452 -11.020 -21.701  0.00  0.00    +0.224 C 
ENDROOT
BRANCH   3   8
ATOM      8  C   UNL     1      32.985 -13.831 -21.580  0.00  0.00    +0.109 C 
BRANCH   8  10
ATOM      9  O   UNL     1      34.939 -15.435 -20.220  0.00  0.00    -0.270 OA
ATOM     10  N   UNL     1      33.414 -15.148 -21.944  0.00  0.00    -0.299 N 
ATOM     11  C   UNL     1      34.372 -15.857 -21.223  0.00  0.00    +0.246 C 
ATOM     12  H   UNL     1      33.012 -15.570 -22.737  0.00  0.00    +0.150 HD
BRANCH  11  13
ATOM     13  C   UNL     1      34.726 -17.203 -21.745  0.00  0.00    +0.055 C 
ATOM     14  C   UNL     1      35.008 -18.243 -20.860  0.00  0.00    +0.023 C 
ATOM     15  C   UNL     1      34.775 -17.426 -23.121  0.00  0.00    +0.005 C 
ATOM     16  C   UNL     1      35.341 -19.505 -21.350  0.00  0.00    +0.106 C 
ATOM     17  C   UNL     1      35.108 -18.689 -23.611  0.00  0.00    +0.001 C 
ATOM     18  C   UNL     1      35.391 -19.729 -22.726  0.00  0.00    +0.018 C 
BRANCH  16  19
ATOM     19  S   UNL     1      35.695 -20.807 -20.241  0.00  0.00    +0.010 S 
ATOM     20  O   UNL     1      36.169 -21.957 -21.000  0.00  0.00    -0.169 OA
ATOM     21  O   UNL     1      36.510 -20.268 -19.162  0.00  0.00    -0.169 OA
ATOM     22  C   UNL     1      34.113 -21.253 -19.562  0.00  0.00    +0.182 C 
ENDBRANCH  16  19
ENDBRANCH  11  13
ENDBRANCH   8  10
ENDBRANCH   3   8
BRANCH   7  23
ATOM     23  C   UNL     1      31.522  -9.516 -21.791  0.00  0.00    +0.064 C 
BRANCH  23  24
ATOM     24  C   UNL     1      32.480  -8.931 -20.752  0.00  0.00    -0.052 C 
BRANCH  24  25
ATOM     25  N   UNL     1      31.858  -9.116 -19.435  0.00  0.00    +0.382 N 
ATOM     26  H   UNL     1      31.274  -8.308 -19.218  0.00  0.00    -0.089 HD
ATOM     27  H   UNL     1      32.585  -9.211 -18.726  0.00  0.00    -0.089 HD
ATOM     28  H   UNL     1      31.282  -9.959 -19.446  0.00  0.00    -0.089 HD
ENDBRANCH  24  25
BRANCH  24  29
ATOM     29  C   UNL     1      32.759  -7.425 -20.954  0.00  0.00    +0.005 C 
BRANCH  29  31
ATOM     30 CL   UNL     1      31.483  -4.749 -25.243  0.00  0.00    -0.082 Cl
ATOM     31  C   UNL     1      33.083  -7.030 -22.373  0.00  0.00    -0.023 C 
ATOM     32  C   UNL     1      32.233  -6.172 -23.070  0.00  0.00    +0.007 C 
ATOM     33  C   UNL     1      34.233  -7.524 -22.989  0.00  0.00    -0.004 C 
ATOM     34  C   UNL     1      32.532  -5.807 -24.383  0.00  0.00    +0.057 C 
ATOM     35  C   UNL     1      34.533  -7.159 -24.302  0.00  0.00    +0.001 C 
ATOM     36  C   UNL     1      33.682  -6.301 -24.999  0.00  0.00    +0.011 C 
ENDBRANCH  29  31
ENDBRANCH  24  29
ENDBRANCH  23  24
ENDBRANCH   7  23
TORSDOF 9
ENDMDL
MODEL 7
REMARK VINA RESULT:     -10.9      4.844     11.312
REMARK  Name = 42608447
REMARK  9 active torsions:
REMARK  status: ('A' for Active; 'I' for Inactive)
REMARK    1  A    between atoms: C_3  and  C_8
REMARK    2  A    between atoms: C_7  and  C_23
REMARK    3  A    between atoms: C_8  and  N_10
REMARK    4  A    between atoms: C_11  and  C_13
REMARK    5  A    between atoms: C_16  and  S_19
REMARK    6  A    between atoms: C_23  and  C_24
REMARK    7  A    between atoms: C_24  and  N_25
REMARK    8  A    between atoms: C_24  and  C_29
REMARK    9  A    between atoms: C_29  and  C_31
REMARK                            x       y       z     vdW  Elec       q    Type
REMARK                         _______ _______ _______ _____ _____    ______ ____
ROOT
ATOM      1  O   UNL     1      34.229 -13.877 -24.418  0.00  0.00    -0.275 OA
ATOM      2  N   UNL     1      33.483 -14.369 -22.284  0.00  0.00    -0.280 N 
ATOM      3  C   UNL     1      34.636 -15.182 -21.888  0.00  0.00    +0.095 C 
ATOM      4  C   UNL     1      34.505 -15.282 -20.366  0.00  0.00    +0.023 C 
ATOM      5  C   UNL     1      32.999 -15.233 -20.137  0.00  0.00    +0.023 C 
ATOM      6  C   UNL     1      32.525 -14.241 -21.189  0.00  0.00    +0.093 C 
ATOM      7  C   UNL     1      33.398 -13.744 -23.517  0.00  0.00    +0.224 C 
ENDROOT
BRANCH   3   8
ATOM      8  C   UNL     1      34.608 -16.553 -22.560  0.00  0.00    +0.109 C 
BRANCH   8  10
ATOM      9  O   UNL     1      34.216 -19.380 -22.872  0.00  0.00    -0.270 OA
ATOM     10  N   UNL     1      35.020 -17.579 -21.650  0.00  0.00    -0.299 N 
ATOM     11  C   UNL     1      34.789 -18.933 -21.882  0.00  0.00    +0.246 C 
ATOM     12  H   UNL     1      35.489 -17.316 -20.826  0.00  0.00    +0.150 HD
BRANCH  11  13
ATOM     13  C   UNL     1      35.256 -19.871 -20.829  0.00  0.00    +0.055 C 
ATOM     14  C   UNL     1      34.365 -20.781 -20.260  0.00  0.00    +0.023 C 
ATOM     15  C   UNL     1      36.586 -19.843 -20.410  0.00  0.00    +0.005 C 
ATOM     16  C   UNL     1      34.804 -21.661 -19.271  0.00  0.00    +0.106 C 
ATOM     17  C   UNL     1      37.025 -20.723 -19.421  0.00  0.00    +0.001 C 
ATOM     18  C   UNL     1      36.134 -21.633 -18.852  0.00  0.00    +0.018 C 
BRANCH  16  19
ATOM     19  S   UNL     1      33.689 -22.801 -18.558  0.00  0.00    +0.010 S 
ATOM     20  O   UNL     1      32.378 -22.173 -18.450  0.00  0.00    -0.169 OA
ATOM     21  O   UNL     1      33.828 -24.066 -19.265  0.00  0.00    -0.169 OA
ATOM     22  C   UNL     1      34.290 -23.031 -16.901  0.00  0.00    +0.182 C 
ENDBRANCH  16  19
ENDBRANCH  11  13
ENDBRANCH   8  10
ENDBRANCH   3   8
BRANCH   7  23
ATOM     23  C   UNL     1      32.192 -12.862 -23.717  0.00  0.00    +0.064 C 
BRANCH  23  24
ATOM     24  C   UNL     1      32.528 -11.386 -23.496  0.00  0.00    -0.052 C 
BRANCH  24  25
ATOM     25  N   UNL     1      33.989 -11.258 -23.562  0.00  0.00    +0.382 N 
ATOM     26  H   UNL     1      34.280 -11.184 -24.536  0.00  0.00    -0.089 HD
ATOM     27  H   UNL     1      34.422 -12.079 -23.138  0.00  0.00    -0.089 HD
ATOM     28  H   UNL     1      34.281 -10.421 -23.055  0.00  0.00    -0.089 HD
ENDBRANCH  24  25
BRANCH  24  29
ATOM     29  C   UNL     1      32.052 -10.847 -22.128  0.00  0.00    +0.005 C 
BRANCH  29  31
ATOM     30 CL   UNL     1      31.101  -6.222 -24.340  0.00  0.00    -0.082 Cl
ATOM     31  C   UNL     1      32.033  -9.342 -22.017  0.00  0.00    -0.023 C 
ATOM     32  C   UNL     1      31.623  -8.568 -23.103  0.00  0.00    +0.007 C 
ATOM     33  C   UNL     1      32.427  -8.725 -20.831  0.00  0.00    -0.004 C 
ATOM     34  C   UNL     1      31.606  -7.177 -23.001  0.00  0.00    +0.057 C 
ATOM     35  C   UNL     1      32.411  -7.334 -20.729  0.00  0.00    +0.001 C 
ATOM     36  C   UNL     1      32.000  -6.560 -21.815  0.00  0.00    +0.011 C 
ENDBRANCH  29  31
ENDBRANCH  24  29
ENDBRANCH  23  24
ENDBRANCH   7  23
TORSDOF 9
ENDMDL
MODEL 8
REMARK VINA RESULT:     -10.8      2.024      3.380
REMARK  Name = 42608447
REMARK  9 active torsions:
REMARK  status: ('A' for Active; 'I' for Inactive)
REMARK    1  A    between atoms: C_3  and  C_8
REMARK    2  A    between atoms: C_7  and  C_23
REMARK    3  A    between atoms: C_8  and  N_10
REMARK    4  A    between atoms: C_11  and  C_13
REMARK    5  A    between atoms: C_16  and  S_19
REMARK    6  A    between atoms: C_23  and  C_24
REMARK    7  A    between atoms: C_24  and  N_25
REMARK    8  A    between atoms: C_24  and  C_29
REMARK    9  A    between atoms: C_29  and  C_31
REMARK                            x       y       z     vdW  Elec       q    Type
REMARK                         _______ _______ _______ _____ _____    ______ ____
ROOT
ATOM      1  O   UNL     1      34.341 -16.585 -24.900  0.00  0.00    -0.275 OA
ATOM      2  N   UNL     1      34.155 -15.752 -22.749  0.00  0.00    -0.280 N 
ATOM      3  C   UNL     1      33.085 -14.793 -23.034  0.00  0.00    +0.095 C 
ATOM      4  C   UNL     1      32.558 -14.414 -21.647  0.00  0.00    +0.023 C 
ATOM      5  C   UNL     1      33.789 -14.532 -20.757  0.00  0.00    +0.023 C 
ATOM      6  C   UNL     1      34.513 -15.740 -21.333  0.00  0.00    +0.093 C 
ATOM      7  C   UNL     1      34.668 -16.605 -23.712  0.00  0.00    +0.224 C 
ENDROOT
BRANCH   3   8
ATOM      8  C   UNL     1      33.610 -13.582 -23.801  0.00  0.00    +0.109 C 
BRANCH   8  10
ATOM      9  O   UNL     1      34.019 -10.931 -24.825  0.00  0.00    -0.270 OA
ATOM     10  N   UNL     1      33.107 -12.363 -23.244  0.00  0.00    -0.299 N 
ATOM     11  C   UNL     1      33.355 -11.114 -23.809  0.00  0.00    +0.246 C 
ATOM     12  H   UNL     1      32.562 -12.410 -22.426  0.00  0.00    +0.150 HD
BRANCH  11  13
ATOM     13  C   UNL     1      32.783  -9.943 -23.095  0.00  0.00    +0.055 C 
ATOM     14  C   UNL     1      32.637  -8.724 -23.759  0.00  0.00    +0.023 C 
ATOM     15  C   UNL     1      32.392 -10.061 -21.762  0.00  0.00    +0.005 C 
ATOM     16  C   UNL     1      32.101  -7.625 -23.089  0.00  0.00    +0.106 C 
ATOM     17  C   UNL     1      31.856  -8.962 -21.092  0.00  0.00    +0.001 C 
ATOM     18  C   UNL     1      31.710  -7.744 -21.755  0.00  0.00    +0.018 C 
BRANCH  16  19
ATOM     19  S   UNL     1      31.918  -6.100 -23.919  0.00  0.00    +0.010 S 
ATOM     20  O   UNL     1      30.755  -6.177 -24.795  0.00  0.00    -0.169 OA
ATOM     21  O   UNL     1      32.008  -5.037 -22.929  0.00  0.00    -0.169 OA
ATOM     22  C   UNL     1      33.349  -5.992 -24.969  0.00  0.00    +0.182 C 
ENDBRANCH  16  19
ENDBRANCH  11  13
ENDBRANCH   8  10
ENDBRANCH   3   8
BRANCH   7  23
ATOM     23  C   UNL     1      35.691 -17.599 -23.221  0.00  0.00    +0.064 C 
BRANCH  23  24
ATOM     24  C   UNL     1      35.099 -19.004 -23.093  0.00  0.00    -0.052 C 
BRANCH  24  25
ATOM     25  N   UNL     1      34.350 -19.273 -24.327  0.00  0.00    +0.382 N 
ATOM     26  H   UNL     1      34.792 -20.041 -24.832  0.00  0.00    -0.089 HD
ATOM     27  H   UNL     1      34.346 -18.438 -24.912  0.00  0.00    -0.089 HD
ATOM     28  H   UNL     1      33.390 -19.528 -24.093  0.00  0.00    -0.089 HD
ENDBRANCH  24  25
BRANCH  24  29
ATOM     29  C   UNL     1      34.138 -19.158 -21.894  0.00  0.00    +0.005 C 
BRANCH  29  31
ATOM     30 CL   UNL     1      33.015 -22.640 -18.179  0.00  0.00    -0.082 Cl
ATOM     31  C   UNL     1      34.621 -20.099 -20.818  0.00  0.00    -0.023 C 
ATOM     32  C   UNL     1      33.702 -20.848 -20.082  0.00  0.00    +0.007 C 
ATOM     33  C   UNL     1      35.985 -20.219 -20.557  0.00  0.00    -0.004 C 
ATOM     34  C   UNL     1      34.148 -21.717 -19.086  0.00  0.00    +0.057 C 
ATOM     35  C   UNL     1      36.432 -21.088 -19.561  0.00  0.00    +0.001 C 
ATOM     36  C   UNL     1      35.513 -21.837 -18.826  0.00  0.00    +0.011 C 
ENDBRANCH  29  31
ENDBRANCH  24  29
ENDBRANCH  23  24
ENDBRANCH   7  23
TORSDOF 9
ENDMDL
MODEL 9
REMARK VINA RESULT:     -10.8      1.868      2.651
REMARK  Name = 42608447
REMARK  9 active torsions:
REMARK  status: ('A' for Active; 'I' for Inactive)
REMARK    1  A    between atoms: C_3  and  C_8
REMARK    2  A    between atoms: C_7  and  C_23
REMARK    3  A    between atoms: C_8  and  N_10
REMARK    4  A    between atoms: C_11  and  C_13
REMARK    5  A    between atoms: C_16  and  S_19
REMARK    6  A    between atoms: C_23  and  C_24
REMARK    7  A    between atoms: C_24  and  N_25
REMARK    8  A    between atoms: C_24  and  C_29
REMARK    9  A    between atoms: C_29  and  C_31
REMARK                            x       y       z     vdW  Elec       q    Type
REMARK                         _______ _______ _______ _____ _____    ______ ____
ROOT
ATOM      1  O   UNL     1      35.063 -16.972 -20.399  0.00  0.00    -0.275 OA
ATOM      2  N   UNL     1      34.674 -16.694 -22.662  0.00  0.00    -0.280 N 
ATOM      3  C   UNL     1      34.242 -15.296 -22.587  0.00  0.00    +0.095 C 
ATOM      4  C   UNL     1      34.308 -14.816 -24.039  0.00  0.00    +0.023 C 
ATOM      5  C   UNL     1      33.997 -16.074 -24.841  0.00  0.00    +0.023 C 
ATOM      6  C   UNL     1      34.691 -17.168 -24.044  0.00  0.00    +0.093 C 
ATOM      7  C   UNL     1      35.092 -17.408 -21.551  0.00  0.00    +0.224 C 
ENDROOT
BRANCH   3   8
ATOM      8  C   UNL     1      32.836 -15.178 -22.004  0.00  0.00    +0.109 C 
BRANCH   8  10
ATOM      9  O   UNL     1      31.678 -12.839 -23.199  0.00  0.00    -0.270 OA
ATOM     10  N   UNL     1      32.644 -13.904 -21.379  0.00  0.00    -0.299 N 
ATOM     11  C   UNL     1      32.071 -12.818 -22.036  0.00  0.00    +0.246 C 
ATOM     12  H   UNL     1      32.929 -13.792 -20.444  0.00  0.00    +0.150 HD
BRANCH  11  13
ATOM     13  C   UNL     1      31.965 -11.557 -21.257  0.00  0.00    +0.055 C 
ATOM     14  C   UNL     1      32.115 -10.327 -21.896  0.00  0.00    +0.023 C 
ATOM     15  C   UNL     1      31.715 -11.604 -19.885  0.00  0.00    +0.005 C 
ATOM     16  C   UNL     1      32.016  -9.144 -21.164  0.00  0.00    +0.106 C 
ATOM     17  C   UNL     1      31.616 -10.421 -19.154  0.00  0.00    +0.001 C 
ATOM     18  C   UNL     1      31.766  -9.190 -19.793  0.00  0.00    +0.018 C 
BRANCH  16  19
ATOM     19  S   UNL     1      32.204  -7.603 -21.965  0.00  0.00    +0.010 S 
ATOM     20  O   UNL     1      33.582  -7.474 -22.422  0.00  0.00    -0.169 OA
ATOM     21  O   UNL     1      31.111  -7.456 -22.916  0.00  0.00    -0.169 OA
ATOM     22  C   UNL     1      31.972  -6.402 -20.674  0.00  0.00    +0.182 C 
ENDBRANCH  16  19
ENDBRANCH  11  13
ENDBRANCH   8  10
ENDBRANCH   3   8
BRANCH   7  23
ATOM     23  C   UNL     1      35.602 -18.800 -21.826  0.00  0.00    +0.064 C 
BRANCH  23  24
ATOM     24  C   UNL     1      35.883 -19.566 -20.533  0.00  0.00    -0.052 C 
BRANCH  24  25
ATOM     25  N   UNL     1      37.322 -19.451 -20.264  0.00  0.00    +0.382 N 
ATOM     26  H   UNL     1      37.483 -19.473 -19.257  0.00  0.00    -0.089 HD
ATOM     27  H   UNL     1      37.670 -18.571 -20.645  0.00  0.00    -0.089 HD
ATOM     28  H   UNL     1      37.814 -20.230 -20.704  0.00  0.00    -0.089 HD
ENDBRANCH  24  25
BRANCH  24  29
ATOM     29  C   UNL     1      35.520 -21.065 -20.616  0.00  0.00    +0.005 C 
BRANCH  29  31
ATOM     30 CL   UNL     1      37.196 -22.406 -15.864  0.00  0.00    -0.082 Cl
ATOM     31  C   UNL     1      35.240 -21.719 -19.285  0.00  0.00    -0.023 C 
ATOM     32  C   UNL     1      36.232 -21.755 -18.304  0.00  0.00    +0.007 C 
ATOM     33  C   UNL     1      33.992 -22.288 -19.036  0.00  0.00    -0.004 C 
ATOM     34  C   UNL     1      35.974 -22.361 -17.074  0.00  0.00    +0.057 C 
ATOM     35  C   UNL     1      33.734 -22.894 -17.806  0.00  0.00    +0.001 C 
ATOM     36  C   UNL     1      34.726 -22.930 -16.825  0.00  0.00    +0.011 C 
ENDBRANCH  29  31
ENDBRANCH  24  29
ENDBRANCH  23  24
ENDBRANCH   7  23
TORSDOF 9
ENDMDL
