MODEL 1
REMARK VINA RESULT:      -8.7      0.000      0.000
REMARK  Name = 25221720
REMARK  8 active torsions:
REMARK  status: ('A' for Active; 'I' for Inactive)
REMARK    1  A    between atoms: C_1  and  O_7
REMARK    2  A    between atoms: C_2  and  C_15
REMARK    3  A    between atoms: O_7  and  C_8
REMARK    4  A    between atoms: C_8  and  C_9
REMARK    5  A    between atoms: C_15  and  O_16
REMARK    6  A    between atoms: C_15  and  C_18
REMARK    7  A    between atoms: C_18  and  C_19
REMARK    8  A    between atoms: C_19  and  N_20
REMARK                            x       y       z     vdW  Elec       q    Type
REMARK                         _______ _______ _______ _____ _____    ______ ____
ROOT
ATOM      1  C   UNL     1      33.717 -21.707 -19.168  0.00  0.00    +0.138 C 
ATOM      2  C   UNL     1      34.508 -19.984 -20.666  0.00  0.00    +0.007 C 
ATOM      3  C   UNL     1      33.454 -20.654 -20.045  0.00  0.00    +0.035 C 
ATOM      4  C   UNL     1      35.033 -22.089 -18.913  0.00  0.00    +0.037 C 
ATOM      5  C   UNL     1      35.825 -20.367 -20.412  0.00  0.00    -0.002 C 
ATOM      6  C   UNL     1      36.087 -21.419 -19.534  0.00  0.00    +0.003 C 
ENDROOT
BRANCH   1   7
ATOM      7  O   UNL     1      32.679 -22.366 -18.555  0.00  0.00    -0.475 OA
BRANCH   7   8
ATOM      8  C   UNL     1      33.018 -23.309 -17.555  0.00  0.00    +0.205 C 
BRANCH   8   9
ATOM      9  C   UNL     1      32.311 -22.915 -16.260  0.00  0.00    +0.044 C 
ATOM     10  C   UNL     1      30.797 -23.137 -16.380  0.00  0.00    +0.004 C 
ATOM     11  C   UNL     1      32.885 -23.695 -15.069  0.00  0.00    +0.004 C 
ATOM     12  C   UNL     1      30.073 -22.801 -15.079  0.00  0.00    +0.000 C 
ATOM     13  C   UNL     1      32.157 -23.358 -13.770  0.00  0.00    +0.000 C 
ATOM     14  C   UNL     1      30.652 -23.572 -13.896  0.00  0.00    +0.000 C 
ENDBRANCH   8   9
ENDBRANCH   7   8
ENDBRANCH   1   7
BRANCH   2  15
ATOM     15  C   UNL     1      34.227 -18.860 -21.605  0.00  0.00    +0.131 C 
BRANCH  15  16
ATOM     16  O   UNL     1      34.533 -19.288 -22.941  0.00  0.00    -0.380 OA
ATOM     17  H   UNL     1      35.004 -20.135 -22.909  0.00  0.00    +0.211 HD
ENDBRANCH  15  16
BRANCH  15  18
ATOM     18  C   UNL     1      35.025 -17.567 -21.316  0.00  0.00    +0.010 C 
BRANCH  18  19
ATOM     19  C   UNL     1      34.724 -16.453 -22.321  0.00  0.00    -0.083 C 
BRANCH  19  20
ATOM     20  N   UNL     1      35.558 -16.608 -23.507  0.00  0.00    +0.381 N 
ATOM     21  H   UNL     1      35.504 -17.573 -23.837  0.00  0.00    -0.089 HD
ATOM     22  H   UNL     1      36.525 -16.382 -23.275  0.00  0.00    -0.089 HD
ATOM     23  H   UNL     1      35.227 -15.981 -24.240  0.00  0.00    -0.089 HD
ENDBRANCH  19  20
ENDBRANCH  18  19
ENDBRANCH  15  18
ENDBRANCH   2  15
TORSDOF 8
ENDMDL
MODEL 2
REMARK VINA RESULT:      -8.7      3.899      6.409
REMARK  Name = 25221720
REMARK  8 active torsions:
REMARK  status: ('A' for Active; 'I' for Inactive)
REMARK    1  A    between atoms: C_1  and  O_7
REMARK    2  A    between atoms: C_2  and  C_15
REMARK    3  A    between atoms: O_7  and  C_8
REMARK    4  A    between atoms: C_8  and  C_9
REMARK    5  A    between atoms: C_15  and  O_16
REMARK    6  A    between atoms: C_15  and  C_18
REMARK    7  A    between atoms: C_18  and  C_19
REMARK    8  A    between atoms: C_19  and  N_20
REMARK                            x       y       z     vdW  Elec       q    Type
REMARK                         _______ _______ _______ _____ _____    ______ ____
ROOT
ATOM      1  C   UNL     1      34.880 -16.816 -22.817  0.00  0.00    +0.138 C 
ATOM      2  C   UNL     1      33.766 -14.976 -23.919  0.00  0.00    +0.007 C 
ATOM      3  C   UNL     1      34.295 -15.550 -22.763  0.00  0.00    +0.035 C 
ATOM      4  C   UNL     1      34.934 -17.507 -24.028  0.00  0.00    +0.037 C 
ATOM      5  C   UNL     1      33.821 -15.666 -25.129  0.00  0.00    -0.002 C 
ATOM      6  C   UNL     1      34.406 -16.932 -25.184  0.00  0.00    +0.003 C 
ENDROOT
BRANCH   1   7
ATOM      7  O   UNL     1      35.401 -17.382 -21.680  0.00  0.00    -0.475 OA
BRANCH   7   8
ATOM      8  C   UNL     1      35.814 -18.733 -21.766  0.00  0.00    +0.205 C 
BRANCH   8   9
ATOM      9  C   UNL     1      35.163 -19.512 -20.625  0.00  0.00    +0.044 C 
ATOM     10  C   UNL     1      33.708 -19.862 -20.967  0.00  0.00    +0.004 C 
ATOM     11  C   UNL     1      35.968 -20.779 -20.303  0.00  0.00    +0.004 C 
ATOM     12  C   UNL     1      33.051 -20.686 -19.863  0.00  0.00    +0.000 C 
ATOM     13  C   UNL     1      35.306 -21.602 -19.200  0.00  0.00    +0.000 C 
ATOM     14  C   UNL     1      33.859 -21.940 -19.540  0.00  0.00    +0.000 C 
ENDBRANCH   8   9
ENDBRANCH   7   8
ENDBRANCH   1   7
BRANCH   2  15
ATOM     15  C   UNL     1      33.141 -13.623 -23.860  0.00  0.00    +0.131 C 
BRANCH  15  16
ATOM     16  O   UNL     1      34.178 -12.633 -23.933  0.00  0.00    -0.380 OA
ATOM     17  H   UNL     1      34.078 -12.006 -23.200  0.00  0.00    +0.211 HD
ENDBRANCH  15  16
BRANCH  15  18
ATOM     18  C   UNL     1      32.304 -13.356 -22.588  0.00  0.00    +0.010 C 
BRANCH  18  19
ATOM     19  C   UNL     1      32.057 -11.866 -22.348  0.00  0.00    -0.083 C 
BRANCH  19  20
ATOM     20  N   UNL     1      30.753 -11.667 -21.726  0.00  0.00    +0.381 N 
ATOM     21  H   UNL     1      30.464 -10.695 -21.845  0.00  0.00    -0.089 HD
ATOM     22  H   UNL     1      30.814 -11.883 -20.731  0.00  0.00    -0.089 HD
ATOM     23  H   UNL     1      30.069 -12.281 -22.166  0.00  0.00    -0.089 HD
ENDBRANCH  19  20
ENDBRANCH  18  19
ENDBRANCH  15  18
ENDBRANCH   2  15
TORSDOF 8
ENDMDL
MODEL 3
REMARK VINA RESULT:      -8.7      3.573      7.742
REMARK  Name = 25221720
REMARK  8 active torsions:
REMARK  status: ('A' for Active; 'I' for Inactive)
REMARK    1  A    between atoms: C_1  and  O_7
REMARK    2  A    between atoms: C_2  and  C_15
REMARK    3  A    between atoms: O_7  and  C_8
REMARK    4  A    between atoms: C_8  and  C_9
REMARK    5  A    between atoms: C_15  and  O_16
REMARK    6  A    between atoms: C_15  and  C_18
REMARK    7  A    between atoms: C_18  and  C_19
REMARK    8  A    between atoms: C_19  and  N_20
REMARK                            x       y       z     vdW  Elec       q    Type
REMARK                         _______ _______ _______ _____ _____    ______ ____
ROOT
ATOM      1  C   UNL     1      32.373 -23.030 -16.863  0.00  0.00    +0.138 C 
ATOM      2  C   UNL     1      33.076 -23.736 -14.662  0.00  0.00    +0.007 C 
ATOM      3  C   UNL     1      33.375 -23.473 -15.999  0.00  0.00    +0.035 C 
ATOM      4  C   UNL     1      31.073 -22.852 -16.391  0.00  0.00    +0.037 C 
ATOM      5  C   UNL     1      31.776 -23.557 -14.189  0.00  0.00    -0.002 C 
ATOM      6  C   UNL     1      30.775 -23.115 -15.054  0.00  0.00    +0.003 C 
ENDROOT
BRANCH   1   7
ATOM      7  O   UNL     1      32.667 -22.771 -18.180  0.00  0.00    -0.475 OA
BRANCH   7   8
ATOM      8  C   UNL     1      34.033 -22.616 -18.515  0.00  0.00    +0.205 C 
BRANCH   8   9
ATOM      9  C   UNL     1      34.132 -21.705 -19.737  0.00  0.00    +0.044 C 
ATOM     10  C   UNL     1      32.970 -20.703 -19.761  0.00  0.00    +0.004 C 
ATOM     11  C   UNL     1      35.482 -20.976 -19.763  0.00  0.00    +0.004 C 
ATOM     12  C   UNL     1      33.075 -19.745 -20.945  0.00  0.00    +0.000 C 
ATOM     13  C   UNL     1      35.583 -20.018 -20.948  0.00  0.00    +0.000 C 
ATOM     14  C   UNL     1      34.422 -19.030 -20.973  0.00  0.00    +0.000 C 
ENDBRANCH   8   9
ENDBRANCH   7   8
ENDBRANCH   1   7
BRANCH   2  15
ATOM     15  C   UNL     1      34.146 -24.210 -13.738  0.00  0.00    +0.131 C 
BRANCH  15  16
ATOM     16  O   UNL     1      34.069 -23.454 -12.519  0.00  0.00    -0.380 OA
ATOM     17  H   UNL     1      33.466 -23.897 -11.902  0.00  0.00    +0.211 HD
ENDBRANCH  15  16
BRANCH  15  18
ATOM     18  C   UNL     1      35.582 -24.082 -14.297  0.00  0.00    +0.010 C 
BRANCH  18  19
ATOM     19  C   UNL     1      36.378 -25.383 -14.177  0.00  0.00    -0.083 C 
BRANCH  19  20
ATOM     20  N   UNL     1      35.830 -26.392 -15.076  0.00  0.00    +0.381 N 
ATOM     21  H   UNL     1      35.812 -27.296 -14.603  0.00  0.00    -0.089 HD
ATOM     22  H   UNL     1      36.414 -26.457 -15.910  0.00  0.00    -0.089 HD
ATOM     23  H   UNL     1      34.882 -26.130 -15.345  0.00  0.00    -0.089 HD
ENDBRANCH  19  20
ENDBRANCH  18  19
ENDBRANCH  15  18
ENDBRANCH   2  15
TORSDOF 8
ENDMDL
MODEL 4
REMARK VINA RESULT:      -8.6      3.921      8.209
REMARK  Name = 25221720
REMARK  8 active torsions:
REMARK  status: ('A' for Active; 'I' for Inactive)
REMARK    1  A    between atoms: C_1  and  O_7
REMARK    2  A    between atoms: C_2  and  C_15
REMARK    3  A    between atoms: O_7  and  C_8
REMARK    4  A    between atoms: C_8  and  C_9
REMARK    5  A    between atoms: C_15  and  O_16
REMARK    6  A    between atoms: C_15  and  C_18
REMARK    7  A    between atoms: C_18  and  C_19
REMARK    8  A    between atoms: C_19  and  N_20
REMARK                            x       y       z     vdW  Elec       q    Type
REMARK                         _______ _______ _______ _____ _____    ______ ____
ROOT
ATOM      1  C   UNL     1      34.986 -19.516 -21.241  0.00  0.00    +0.138 C 
ATOM      2  C   UNL     1      34.941 -21.240 -19.548  0.00  0.00    +0.007 C 
ATOM      3  C   UNL     1      35.660 -20.383 -20.380  0.00  0.00    +0.035 C 
ATOM      4  C   UNL     1      33.591 -19.508 -21.269  0.00  0.00    +0.037 C 
ATOM      5  C   UNL     1      33.547 -21.233 -19.576  0.00  0.00    -0.002 C 
ATOM      6  C   UNL     1      32.872 -20.366 -20.436  0.00  0.00    +0.003 C 
ENDROOT
BRANCH   1   7
ATOM      7  O   UNL     1      35.693 -18.671 -22.060  0.00  0.00    -0.475 OA
BRANCH   7   8
ATOM      8  C   UNL     1      35.395 -18.718 -23.443  0.00  0.00    +0.205 C 
BRANCH   8   9
ATOM      9  C   UNL     1      35.185 -17.289 -23.941  0.00  0.00    +0.044 C 
ATOM     10  C   UNL     1      34.144 -17.256 -25.068  0.00  0.00    +0.004 C 
ATOM     11  C   UNL     1      34.771 -16.367 -22.787  0.00  0.00    +0.004 C 
ATOM     12  C   UNL     1      33.877 -15.832 -25.548  0.00  0.00    +0.000 C 
ATOM     13  C   UNL     1      34.504 -14.943 -23.271  0.00  0.00    +0.000 C 
ATOM     14  C   UNL     1      33.475 -14.915 -24.396  0.00  0.00    +0.000 C 
ENDBRANCH   8   9
ENDBRANCH   7   8
ENDBRANCH   1   7
BRANCH   2  15
ATOM     15  C   UNL     1      35.663 -22.167 -18.629  0.00  0.00    +0.131 C 
BRANCH  15  16
ATOM     16  O   UNL     1      34.713 -22.750 -17.725  0.00  0.00    -0.380 OA
ATOM     17  H   UNL     1      34.892 -23.699 -17.635  0.00  0.00    +0.211 HD
ENDBRANCH  15  16
BRANCH  15  18
ATOM     18  C   UNL     1      36.782 -21.503 -17.794  0.00  0.00    +0.010 C 
BRANCH  18  19
ATOM     19  C   UNL     1      36.830 -22.022 -16.356  0.00  0.00    -0.083 C 
BRANCH  19  20
ATOM     20  N   UNL     1      37.922 -22.977 -16.204  0.00  0.00    +0.381 N 
ATOM     21  H   UNL     1      37.575 -23.819 -15.742  0.00  0.00    -0.089 HD
ATOM     22  H   UNL     1      38.662 -22.561 -15.640  0.00  0.00    -0.089 HD
ATOM     23  H   UNL     1      38.290 -23.223 -17.123  0.00  0.00    -0.089 HD
ENDBRANCH  19  20
ENDBRANCH  18  19
ENDBRANCH  15  18
ENDBRANCH   2  15
TORSDOF 8
ENDMDL
MODEL 5
REMARK VINA RESULT:      -8.6      3.821      6.478
REMARK  Name = 25221720
REMARK  8 active torsions:
REMARK  status: ('A' for Active; 'I' for Inactive)
REMARK    1  A    between atoms: C_1  and  O_7
REMARK    2  A    between atoms: C_2  and  C_15
REMARK    3  A    between atoms: O_7  and  C_8
REMARK    4  A    between atoms: C_8  and  C_9
REMARK    5  A    between atoms: C_15  and  O_16
REMARK    6  A    between atoms: C_15  and  C_18
REMARK    7  A    between atoms: C_18  and  C_19
REMARK    8  A    between atoms: C_19  and  N_20
REMARK                            x       y       z     vdW  Elec       q    Type
REMARK                         _______ _______ _______ _____ _____    ______ ____
ROOT
ATOM      1  C   UNL     1      34.969 -16.725 -22.787  0.00  0.00    +0.138 C 
ATOM      2  C   UNL     1      33.948 -14.689 -23.595  0.00  0.00    +0.007 C 
ATOM      3  C   UNL     1      34.548 -15.413 -22.565  0.00  0.00    +0.035 C 
ATOM      4  C   UNL     1      34.790 -17.312 -24.039  0.00  0.00    +0.037 C 
ATOM      5  C   UNL     1      33.768 -15.276 -24.847  0.00  0.00    -0.002 C 
ATOM      6  C   UNL     1      34.190 -16.588 -25.069  0.00  0.00    +0.003 C 
ENDROOT
BRANCH   1   7
ATOM      7  O   UNL     1      35.560 -17.438 -21.773  0.00  0.00    -0.475 OA
BRANCH   7   8
ATOM      8  C   UNL     1      35.686 -18.835 -21.959  0.00  0.00    +0.205 C 
BRANCH   8   9
ATOM      9  C   UNL     1      35.031 -19.543 -20.774  0.00  0.00    +0.044 C 
ATOM     10  C   UNL     1      33.549 -19.819 -21.059  0.00  0.00    +0.004 C 
ATOM     11  C   UNL     1      35.775 -20.843 -20.440  0.00  0.00    +0.004 C 
ATOM     12  C   UNL     1      32.884 -20.572 -19.910  0.00  0.00    +0.000 C 
ATOM     13  C   UNL     1      35.106 -21.595 -19.291  0.00  0.00    +0.000 C 
ATOM     14  C   UNL     1      33.631 -21.860 -19.575  0.00  0.00    +0.000 C 
ENDBRANCH   8   9
ENDBRANCH   7   8
ENDBRANCH   1   7
BRANCH   2  15
ATOM     15  C   UNL     1      33.497 -13.288 -23.357  0.00  0.00    +0.131 C 
BRANCH  15  16
ATOM     16  O   UNL     1      32.090 -13.300 -23.073  0.00  0.00    -0.380 OA
ATOM     17  H   UNL     1      31.618 -13.746 -23.794  0.00  0.00    +0.211 HD
ENDBRANCH  15  16
BRANCH  15  18
ATOM     18  C   UNL     1      33.744 -12.323 -24.539  0.00  0.00    +0.010 C 
BRANCH  18  19
ATOM     19  C   UNL     1      33.770 -10.856 -24.107  0.00  0.00    -0.083 C 
BRANCH  19  20
ATOM     20  N   UNL     1      35.083 -10.278 -24.371  0.00  0.00    +0.381 N 
ATOM     21  H   UNL     1      35.273 -10.308 -25.374  0.00  0.00    -0.089 HD
ATOM     22  H   UNL     1      35.796 -10.813 -23.875  0.00  0.00    -0.089 HD
ATOM     23  H   UNL     1      35.100  -9.310 -24.052  0.00  0.00    -0.089 HD
ENDBRANCH  19  20
ENDBRANCH  18  19
ENDBRANCH  15  18
ENDBRANCH   2  15
TORSDOF 8
ENDMDL
MODEL 6
REMARK VINA RESULT:      -8.5      3.162      7.470
REMARK  Name = 25221720
REMARK  8 active torsions:
REMARK  status: ('A' for Active; 'I' for Inactive)
REMARK    1  A    between atoms: C_1  and  O_7
REMARK    2  A    between atoms: C_2  and  C_15
REMARK    3  A    between atoms: O_7  and  C_8
REMARK    4  A    between atoms: C_8  and  C_9
REMARK    5  A    between atoms: C_15  and  O_16
REMARK    6  A    between atoms: C_15  and  C_18
REMARK    7  A    between atoms: C_18  and  C_19
REMARK    8  A    between atoms: C_19  and  N_20
REMARK                            x       y       z     vdW  Elec       q    Type
REMARK                         _______ _______ _______ _____ _____    ______ ____
ROOT
ATOM      1  C   UNL     1      33.009 -23.129 -17.217  0.00  0.00    +0.138 C 
ATOM      2  C   UNL     1      31.473 -23.368 -15.368  0.00  0.00    +0.007 C 
ATOM      3  C   UNL     1      31.703 -23.198 -16.733  0.00  0.00    +0.035 C 
ATOM      4  C   UNL     1      34.085 -23.230 -16.336  0.00  0.00    +0.037 C 
ATOM      5  C   UNL     1      32.549 -23.469 -14.486  0.00  0.00    -0.002 C 
ATOM      6  C   UNL     1      33.856 -23.400 -14.971  0.00  0.00    +0.003 C 
ENDROOT
BRANCH   1   7
ATOM      7  O   UNL     1      33.236 -22.962 -18.562  0.00  0.00    -0.475 OA
BRANCH   7   8
ATOM      8  C   UNL     1      34.543 -22.580 -18.950  0.00  0.00    +0.205 C 
BRANCH   8   9
ATOM      9  C   UNL     1      34.491 -21.151 -19.485  0.00  0.00    +0.044 C 
ATOM     10  C   UNL     1      35.685 -20.874 -20.408  0.00  0.00    +0.004 C 
ATOM     11  C   UNL     1      33.166 -20.892 -20.214  0.00  0.00    +0.004 C 
ATOM     12  C   UNL     1      35.628 -19.467 -20.999  0.00  0.00    +0.000 C 
ATOM     13  C   UNL     1      33.113 -19.485 -20.805  0.00  0.00    +0.000 C 
ATOM     14  C   UNL     1      34.305 -19.210 -21.715  0.00  0.00    +0.000 C 
ENDBRANCH   8   9
ENDBRANCH   7   8
ENDBRANCH   1   7
BRANCH   2  15
ATOM     15  C   UNL     1      30.076 -23.441 -14.850  0.00  0.00    +0.131 C 
BRANCH  15  16
ATOM     16  O   UNL     1      29.503 -24.696 -15.248  0.00  0.00    -0.380 OA
ATOM     17  H   UNL     1      29.051 -24.589 -16.099  0.00  0.00    +0.211 HD
ENDBRANCH  15  16
BRANCH  15  18
ATOM     18  C   UNL     1      29.148 -22.307 -15.342  0.00  0.00    +0.010 C 
BRANCH  18  19
ATOM     19  C   UNL     1      27.884 -22.834 -16.024  0.00  0.00    -0.083 C 
BRANCH  19  20
ATOM     20  N   UNL     1      28.146 -23.091 -17.436  0.00  0.00    +0.381 N 
ATOM     21  H   UNL     1      27.260 -23.167 -17.937  0.00  0.00    -0.089 HD
ATOM     22  H   UNL     1      28.667 -23.962 -17.533  0.00  0.00    -0.089 HD
ATOM     23  H   UNL     1      28.691 -22.323 -17.826  0.00  0.00    -0.089 HD
ENDBRANCH  19  20
ENDBRANCH  18  19
ENDBRANCH  15  18
ENDBRANCH   2  15
TORSDOF 8
ENDMDL
MODEL 7
REMARK VINA RESULT:      -8.5      3.879      7.810
REMARK  Name = 25221720
REMARK  8 active torsions:
REMARK  status: ('A' for Active; 'I' for Inactive)
REMARK    1  A    between atoms: C_1  and  O_7
REMARK    2  A    between atoms: C_2  and  C_15
REMARK    3  A    between atoms: O_7  and  C_8
REMARK    4  A    between atoms: C_8  and  C_9
REMARK    5  A    between atoms: C_15  and  O_16
REMARK    6  A    between atoms: C_15  and  C_18
REMARK    7  A    between atoms: C_18  and  C_19
REMARK    8  A    between atoms: C_19  and  N_20
REMARK                            x       y       z     vdW  Elec       q    Type
REMARK                         _______ _______ _______ _____ _____    ______ ____
ROOT
ATOM      1  C   UNL     1      34.768 -23.137 -16.261  0.00  0.00    +0.138 C 
ATOM      2  C   UNL     1      33.375 -23.846 -14.418  0.00  0.00    +0.007 C 
ATOM      3  C   UNL     1      33.507 -23.442 -15.746  0.00  0.00    +0.035 C 
ATOM      4  C   UNL     1      35.895 -23.235 -15.446  0.00  0.00    +0.037 C 
ATOM      5  C   UNL     1      34.503 -23.945 -13.603  0.00  0.00    -0.002 C 
ATOM      6  C   UNL     1      35.763 -23.640 -14.118  0.00  0.00    +0.003 C 
ENDROOT
BRANCH   1   7
ATOM      7  O   UNL     1      34.899 -22.739 -17.569  0.00  0.00    -0.475 OA
BRANCH   7   8
ATOM      8  C   UNL     1      33.716 -22.679 -18.344  0.00  0.00    +0.205 C 
BRANCH   8   9
ATOM      9  C   UNL     1      33.995 -21.839 -19.588  0.00  0.00    +0.044 C 
ATOM     10  C   UNL     1      32.927 -20.749 -19.757  0.00  0.00    +0.004 C 
ATOM     11  C   UNL     1      35.399 -21.223 -19.524  0.00  0.00    +0.004 C 
ATOM     12  C   UNL     1      33.213 -19.861 -20.965  0.00  0.00    +0.000 C 
ATOM     13  C   UNL     1      35.680 -20.334 -20.734  0.00  0.00    +0.000 C 
ATOM     14  C   UNL     1      34.613 -19.258 -20.903  0.00  0.00    +0.000 C 
ENDBRANCH   8   9
ENDBRANCH   7   8
ENDBRANCH   1   7
BRANCH   2  15
ATOM     15  C   UNL     1      32.028 -24.172 -13.868  0.00  0.00    +0.131 C 
BRANCH  15  16
ATOM     16  O   UNL     1      31.971 -25.580 -13.593  0.00  0.00    -0.380 OA
ATOM     17  H   UNL     1      32.844 -25.888 -13.305  0.00  0.00    +0.211 HD
ENDBRANCH  15  16
BRANCH  15  18
ATOM     18  C   UNL     1      30.848 -23.812 -14.801  0.00  0.00    +0.010 C 
BRANCH  18  19
ATOM     19  C   UNL     1      30.104 -25.047 -15.312  0.00  0.00    -0.083 C 
BRANCH  19  20
ATOM     20  N   UNL     1      29.064 -25.434 -14.366  0.00  0.00    +0.381 N 
ATOM     21  H   UNL     1      28.166 -25.485 -14.850  0.00  0.00    -0.089 HD
ATOM     22  H   UNL     1      29.008 -24.742 -13.620  0.00  0.00    -0.089 HD
ATOM     23  H   UNL     1      29.287 -26.346 -13.969  0.00  0.00    -0.089 HD
ENDBRANCH  19  20
ENDBRANCH  18  19
ENDBRANCH  15  18
ENDBRANCH   2  15
TORSDOF 8
ENDMDL
MODEL 8
REMARK VINA RESULT:      -8.4      2.392      3.275
REMARK  Name = 25221720
REMARK  8 active torsions:
REMARK  status: ('A' for Active; 'I' for Inactive)
REMARK    1  A    between atoms: C_1  and  O_7
REMARK    2  A    between atoms: C_2  and  C_15
REMARK    3  A    between atoms: O_7  and  C_8
REMARK    4  A    between atoms: C_8  and  C_9
REMARK    5  A    between atoms: C_15  and  O_16
REMARK    6  A    between atoms: C_15  and  C_18
REMARK    7  A    between atoms: C_18  and  C_19
REMARK    8  A    between atoms: C_19  and  N_20
REMARK                            x       y       z     vdW  Elec       q    Type
REMARK                         _______ _______ _______ _____ _____    ______ ____
ROOT
ATOM      1  C   UNL     1      34.975 -21.485 -19.397  0.00  0.00    +0.138 C 
ATOM      2  C   UNL     1      34.926 -19.660 -20.981  0.00  0.00    +0.007 C 
ATOM      3  C   UNL     1      35.648 -20.558 -20.195  0.00  0.00    +0.035 C 
ATOM      4  C   UNL     1      33.581 -21.511 -19.385  0.00  0.00    +0.037 C 
ATOM      5  C   UNL     1      33.532 -19.686 -20.968  0.00  0.00    -0.002 C 
ATOM      6  C   UNL     1      32.859 -20.612 -20.171  0.00  0.00    +0.003 C 
ENDROOT
BRANCH   1   7
ATOM      7  O   UNL     1      35.685 -22.370 -18.624  0.00  0.00    -0.475 OA
BRANCH   7   8
ATOM      8  C   UNL     1      36.688 -21.829 -17.785  0.00  0.00    +0.205 C 
BRANCH   8   9
ATOM      9  C   UNL     1      36.378 -22.225 -16.343  0.00  0.00    +0.044 C 
ATOM     10  C   UNL     1      35.056 -22.999 -16.265  0.00  0.00    +0.004 C 
ATOM     11  C   UNL     1      37.529 -23.048 -15.747  0.00  0.00    +0.004 C 
ATOM     12  C   UNL     1      34.749 -23.453 -14.840  0.00  0.00    +0.000 C 
ATOM     13  C   UNL     1      37.218 -23.501 -14.322  0.00  0.00    +0.000 C 
ATOM     14  C   UNL     1      35.899 -24.263 -14.248  0.00  0.00    +0.000 C 
ENDBRANCH   8   9
ENDBRANCH   7   8
ENDBRANCH   1   7
BRANCH   2  15
ATOM     15  C   UNL     1      35.645 -18.670 -21.833  0.00  0.00    +0.131 C 
BRANCH  15  16
ATOM     16  O   UNL     1      35.382 -17.351 -21.329  0.00  0.00    -0.380 OA
ATOM     17  H   UNL     1      36.217 -16.867 -21.238  0.00  0.00    +0.211 HD
ENDBRANCH  15  16
BRANCH  15  18
ATOM     18  C   UNL     1      35.254 -18.703 -23.328  0.00  0.00    +0.010 C 
BRANCH  18  19
ATOM     19  C   UNL     1      34.587 -17.408 -23.792  0.00  0.00    -0.083 C 
BRANCH  19  20
ATOM     20  N   UNL     1      35.588 -16.362 -23.969  0.00  0.00    +0.381 N 
ATOM     21  H   UNL     1      36.212 -16.615 -24.736  0.00  0.00    -0.089 HD
ATOM     22  H   UNL     1      36.129 -16.261 -23.110  0.00  0.00    -0.089 HD
ATOM     23  H   UNL     1      35.125 -15.480 -24.185  0.00  0.00    -0.089 HD
ENDBRANCH  19  20
ENDBRANCH  18  19
ENDBRANCH  15  18
ENDBRANCH   2  15
TORSDOF 8
ENDMDL
MODEL 9
REMARK VINA RESULT:      -8.4      4.088      8.098
REMARK  Name = 25221720
REMARK  8 active torsions:
REMARK  status: ('A' for Active; 'I' for Inactive)
REMARK    1  A    between atoms: C_1  and  O_7
REMARK    2  A    between atoms: C_2  and  C_15
REMARK    3  A    between atoms: O_7  and  C_8
REMARK    4  A    between atoms: C_8  and  C_9
REMARK    5  A    between atoms: C_15  and  O_16
REMARK    6  A    between atoms: C_15  and  C_18
REMARK    7  A    between atoms: C_18  and  C_19
REMARK    8  A    between atoms: C_19  and  N_20
REMARK                            x       y       z     vdW  Elec       q    Type
REMARK                         _______ _______ _______ _____ _____    ______ ____
ROOT
ATOM      1  C   UNL     1      33.981 -23.213 -16.885  0.00  0.00    +0.138 C 
ATOM      2  C   UNL     1      34.143 -23.724 -14.529  0.00  0.00    +0.007 C 
ATOM      3  C   UNL     1      34.757 -23.488 -15.758  0.00  0.00    +0.035 C 
ATOM      4  C   UNL     1      32.591 -23.175 -16.781  0.00  0.00    +0.037 C 
ATOM      5  C   UNL     1      32.752 -23.687 -14.425  0.00  0.00    -0.002 C 
ATOM      6  C   UNL     1      31.977 -23.412 -15.551  0.00  0.00    +0.003 C 
ENDROOT
BRANCH   1   7
ATOM      7  O   UNL     1      34.586 -22.980 -18.096  0.00  0.00    -0.475 OA
BRANCH   7   8
ATOM      8  C   UNL     1      33.760 -22.516 -19.147  0.00  0.00    +0.205 C 
BRANCH   8   9
ATOM      9  C   UNL     1      34.232 -21.121 -19.554  0.00  0.00    +0.044 C 
ATOM     10  C   UNL     1      35.647 -21.179 -20.145  0.00  0.00    +0.004 C 
ATOM     11  C   UNL     1      33.251 -20.485 -20.548  0.00  0.00    +0.004 C 
ATOM     12  C   UNL     1      36.122 -19.803 -20.608  0.00  0.00    +0.000 C 
ATOM     13  C   UNL     1      33.729 -19.110 -21.010  0.00  0.00    +0.000 C 
ATOM     14  C   UNL     1      35.139 -19.170 -21.588  0.00  0.00    +0.000 C 
ENDBRANCH   8   9
ENDBRANCH   7   8
ENDBRANCH   1   7
BRANCH   2  15
ATOM     15  C   UNL     1      34.972 -24.019 -13.325  0.00  0.00    +0.131 C 
BRANCH  15  16
ATOM     16  O   UNL     1      34.281 -23.538 -12.162  0.00  0.00    -0.380 OA
ATOM     17  H   UNL     1      33.879 -24.286 -11.692  0.00  0.00    +0.211 HD
ENDBRANCH  15  16
BRANCH  15  18
ATOM     18  C   UNL     1      36.383 -23.388 -13.345  0.00  0.00    +0.010 C 
BRANCH  18  19
ATOM     19  C   UNL     1      37.314 -23.992 -12.293  0.00  0.00    -0.083 C 
BRANCH  19  20
ATOM     20  N   UNL     1      37.057 -23.390 -10.990  0.00  0.00    +0.381 N 
ATOM     21  H   UNL     1      37.450 -22.448 -10.967  0.00  0.00    -0.089 HD
ATOM     22  H   UNL     1      37.491 -23.957 -10.262  0.00  0.00    -0.089 HD
ATOM     23  H   UNL     1      36.051 -23.342 -10.829  0.00  0.00    -0.089 HD
ENDBRANCH  19  20
ENDBRANCH  18  19
ENDBRANCH  15  18
ENDBRANCH   2  15
TORSDOF 8
ENDMDL
