MODEL 1
REMARK VINA RESULT:      -9.6      0.000      0.000
REMARK  Name = 54684617
REMARK  5 active torsions:
REMARK  status: ('A' for Active; 'I' for Inactive)
REMARK    1  A    between atoms: C_5  and  C_26
REMARK    2  A    between atoms: C_6  and  C_15
REMARK    3  A    between atoms: C_7  and  O_24
REMARK    4  A    between atoms: N_14  and  C_16
REMARK    5  A    between atoms: N_14  and  C_22
REMARK                            x       y       z     vdW  Elec       q    Type
REMARK                         _______ _______ _______ _____ _____    ______ ____
ROOT
ATOM      1  O   UNL     1      34.521 -12.201 -25.232  0.00  0.00    -0.267 OA
ATOM      2  N   UNL     1      34.045 -10.251 -24.072  0.00  0.00    -0.293 N 
ATOM      3  C   UNL     1      32.482 -10.367 -22.197  0.00  0.00    +0.046 A 
ATOM      4  C   UNL     1      33.336  -9.607 -23.012  0.00  0.00    +0.065 A 
ATOM      5  C   UNL     1      31.784  -9.730 -21.154  0.00  0.00    -0.018 C 
ATOM      6  C   UNL     1      33.006 -12.412 -23.442  0.00  0.00    +0.143 A 
ATOM      7  C   UNL     1      32.331 -11.812 -22.444  0.00  0.00    +0.144 A 
ATOM      8  C   UNL     1      33.922 -11.617 -24.326  0.00  0.00    +0.268 A 
ATOM      9  C   UNL     1      33.471  -8.228 -22.762  0.00  0.00    +0.017 C 
ATOM     10  C   UNL     1      31.928  -8.363 -20.919  0.00  0.00    -0.004 C 
ATOM     11  C   UNL     1      32.772  -7.612 -21.725  0.00  0.00    +0.001 C 
ATOM     12  C   UNL     1      34.931  -9.452 -24.918  0.00  0.00    +0.134 C 
ENDROOT
BRANCH   6  15
ATOM     13  O   UNL     1      32.042 -14.228 -24.505  0.00  0.00    -0.269 OA
ATOM     14  N   UNL     1      33.746 -14.701 -22.950  0.00  0.00    -0.255 N 
ATOM     15  C   UNL     1      32.883 -13.865 -23.682  0.00  0.00    +0.260 C 
BRANCH  14  16
ATOM     16  C   UNL     1      34.177 -15.961 -23.532  0.00  0.00    +0.054 C 
ATOM     17  C   UNL     1      34.668 -16.976 -22.711  0.00  0.00    +0.015 C 
ATOM     18  C   UNL     1      34.099 -16.156 -24.910  0.00  0.00    +0.015 C 
ATOM     19  C   UNL     1      35.082 -18.186 -23.269  0.00  0.00    +0.001 C 
ATOM     20  C   UNL     1      34.512 -17.364 -25.469  0.00  0.00    +0.001 C 
ATOM     21  C   UNL     1      35.005 -18.380 -24.648  0.00  0.00    +0.000 C 
ENDBRANCH  14  16
BRANCH  14  22
ATOM     22  C   UNL     1      34.220 -14.328 -21.606  0.00  0.00    +0.099 C 
ATOM     23  C   UNL     1      33.317 -14.885 -20.526  0.00  0.00    +0.024 C 
ENDBRANCH  14  22
ENDBRANCH   6  15
BRANCH   7  24
ATOM     24  O   UNL     1      31.456 -12.475 -21.610  0.00  0.00    -0.505 OA
ATOM     25  H   UNL     1      30.666 -12.057 -21.330  0.00  0.00    +0.292 HD
ENDBRANCH   7  24
BRANCH   5  26
ATOM     26  C   UNL     1      30.847 -10.422 -20.211  0.00  0.00    +0.027 C 
ATOM     27  C   UNL     1      31.470 -10.637 -18.837  0.00  0.00    +0.005 C 
ENDBRANCH   5  26
TORSDOF 5
ENDMDL
MODEL 2
REMARK VINA RESULT:      -9.1      1.806      6.965
REMARK  Name = 54684617
REMARK  5 active torsions:
REMARK  status: ('A' for Active; 'I' for Inactive)
REMARK    1  A    between atoms: C_5  and  C_26
REMARK    2  A    between atoms: C_6  and  C_15
REMARK    3  A    between atoms: C_7  and  O_24
REMARK    4  A    between atoms: N_14  and  C_16
REMARK    5  A    between atoms: N_14  and  C_22
REMARK                            x       y       z     vdW  Elec       q    Type
REMARK                         _______ _______ _______ _____ _____    ______ ____
ROOT
ATOM      1  O   UNL     1      33.034 -11.626 -26.138  0.00  0.00    -0.267 OA
ATOM      2  N   UNL     1      33.369 -13.918 -26.029  0.00  0.00    -0.293 N 
ATOM      3  C   UNL     1      34.114 -14.882 -23.911  0.00  0.00    +0.046 A 
ATOM      4  C   UNL     1      33.744 -15.058 -25.254  0.00  0.00    +0.065 A 
ATOM      5  C   UNL     1      34.484 -16.007 -23.150  0.00  0.00    -0.018 C 
ATOM      6  C   UNL     1      33.751 -12.463 -24.058  0.00  0.00    +0.143 A 
ATOM      7  C   UNL     1      34.110 -13.532 -23.322  0.00  0.00    +0.144 A 
ATOM      8  C   UNL     1      33.354 -12.629 -25.496  0.00  0.00    +0.268 A 
ATOM      9  C   UNL     1      33.752 -16.355 -25.802  0.00  0.00    +0.017 C 
ATOM     10  C   UNL     1      34.488 -17.286 -23.707  0.00  0.00    -0.004 C 
ATOM     11  C   UNL     1      34.122 -17.459 -25.034  0.00  0.00    +0.001 C 
ATOM     12  C   UNL     1      32.987 -14.108 -27.428  0.00  0.00    +0.134 C 
ENDROOT
BRANCH   6  15
ATOM     13  O   UNL     1      34.728 -10.417 -23.596  0.00  0.00    -0.269 OA
ATOM     14  N   UNL     1      32.525 -10.729 -22.825  0.00  0.00    -0.255 N 
ATOM     15  C   UNL     1      33.716 -11.108 -23.470  0.00  0.00    +0.260 C 
BRANCH  14  16
ATOM     16  C   UNL     1      32.136  -9.329 -22.816  0.00  0.00    +0.054 C 
ATOM     17  C   UNL     1      31.271  -8.840 -23.794  0.00  0.00    +0.015 C 
ATOM     18  C   UNL     1      32.627  -8.475 -21.829  0.00  0.00    +0.015 C 
ATOM     19  C   UNL     1      30.896  -7.495 -23.785  0.00  0.00    +0.001 C 
ATOM     20  C   UNL     1      32.254  -7.132 -21.820  0.00  0.00    +0.001 C 
ATOM     21  C   UNL     1      31.388  -6.641 -22.799  0.00  0.00    +0.000 C 
ENDBRANCH  14  16
BRANCH  14  22
ATOM     22  C   UNL     1      31.663 -11.720 -22.159  0.00  0.00    +0.099 C 
ATOM     23  C   UNL     1      31.519 -11.424 -20.681  0.00  0.00    +0.024 C 
ENDBRANCH  14  22
ENDBRANCH   6  15
BRANCH   7  24
ATOM     24  O   UNL     1      34.509 -13.450 -22.004  0.00  0.00    -0.505 OA
ATOM     25  H   UNL     1      35.290 -13.883 -21.723  0.00  0.00    +0.292 HD
ENDBRANCH   7  24
BRANCH   5  26
ATOM     26  C   UNL     1      34.896 -15.961 -21.710  0.00  0.00    +0.027 C 
ATOM     27  C   UNL     1      35.011 -17.353 -21.101  0.00  0.00    +0.005 C 
ENDBRANCH   5  26
TORSDOF 5
ENDMDL
MODEL 3
REMARK VINA RESULT:      -8.9      3.024      7.857
REMARK  Name = 54684617
REMARK  5 active torsions:
REMARK  status: ('A' for Active; 'I' for Inactive)
REMARK    1  A    between atoms: C_5  and  C_26
REMARK    2  A    between atoms: C_6  and  C_15
REMARK    3  A    between atoms: C_7  and  O_24
REMARK    4  A    between atoms: N_14  and  C_16
REMARK    5  A    between atoms: N_14  and  C_22
REMARK                            x       y       z     vdW  Elec       q    Type
REMARK                         _______ _______ _______ _____ _____    ______ ____
ROOT
ATOM      1  O   UNL     1      32.116  -8.046 -20.743  0.00  0.00    -0.267 OA
ATOM      2  N   UNL     1      31.962 -10.354 -20.911  0.00  0.00    -0.293 N 
ATOM      3  C   UNL     1      32.879 -11.436 -22.900  0.00  0.00    +0.046 A 
ATOM      4  C   UNL     1      32.228 -11.540 -21.660  0.00  0.00    +0.065 A 
ATOM      5  C   UNL     1      33.140 -12.607 -23.637  0.00  0.00    -0.018 C 
ATOM      6  C   UNL     1      33.027  -8.998 -22.694  0.00  0.00    +0.143 A 
ATOM      7  C   UNL     1      33.278 -10.112 -23.408  0.00  0.00    +0.144 A 
ATOM      8  C   UNL     1      32.331  -9.088 -21.367  0.00  0.00    +0.268 A 
ATOM      9  C   UNL     1      31.855 -12.813 -21.189  0.00  0.00    +0.017 C 
ATOM     10  C   UNL     1      32.763 -13.861 -23.157  0.00  0.00    -0.004 C 
ATOM     11  C   UNL     1      32.120 -13.963 -21.931  0.00  0.00    +0.001 C 
ATOM     12  C   UNL     1      31.282 -10.470 -19.622  0.00  0.00    +0.134 C 
ENDROOT
BRANCH   6  15
ATOM     13  O   UNL     1      34.559  -7.270 -22.832  0.00  0.00    -0.269 OA
ATOM     14  N   UNL     1      32.538  -6.981 -24.005  0.00  0.00    -0.255 N 
ATOM     15  C   UNL     1      33.447  -7.668 -23.180  0.00  0.00    +0.260 C 
BRANCH  14  16
ATOM     16  C   UNL     1      33.045  -6.072 -25.018  0.00  0.00    +0.054 C 
ATOM     17  C   UNL     1      34.306  -6.283 -25.576  0.00  0.00    +0.015 C 
ATOM     18  C   UNL     1      32.272  -4.988 -25.434  0.00  0.00    +0.015 C 
ATOM     19  C   UNL     1      34.794  -5.411 -26.550  0.00  0.00    +0.001 C 
ATOM     20  C   UNL     1      32.759  -4.115 -26.406  0.00  0.00    +0.001 C 
ATOM     21  C   UNL     1      34.021  -4.326 -26.965  0.00  0.00    +0.000 C 
ENDBRANCH  14  16
BRANCH  14  22
ATOM     22  C   UNL     1      31.083  -7.162 -23.863  0.00  0.00    +0.099 C 
ATOM     23  C   UNL     1      30.502  -6.203 -22.847  0.00  0.00    +0.024 C 
ENDBRANCH  14  22
ENDBRANCH   6  15
BRANCH   7  24
ATOM     24  O   UNL     1      33.891 -10.102 -24.643  0.00  0.00    -0.505 OA
ATOM     25  H   UNL     1      33.958 -10.893 -25.140  0.00  0.00    +0.292 HD
ENDBRANCH   7  24
BRANCH   5  26
ATOM     26  C   UNL     1      33.828 -12.638 -24.968  0.00  0.00    +0.027 C 
ATOM     27  C   UNL     1      33.179 -13.630 -25.926  0.00  0.00    +0.005 C 
ENDBRANCH   5  26
TORSDOF 5
ENDMDL
MODEL 4
REMARK VINA RESULT:      -8.6      9.237     12.783
REMARK  Name = 54684617
REMARK  5 active torsions:
REMARK  status: ('A' for Active; 'I' for Inactive)
REMARK    1  A    between atoms: C_5  and  C_26
REMARK    2  A    between atoms: C_6  and  C_15
REMARK    3  A    between atoms: C_7  and  O_24
REMARK    4  A    between atoms: N_14  and  C_16
REMARK    5  A    between atoms: N_14  and  C_22
REMARK                            x       y       z     vdW  Elec       q    Type
REMARK                         _______ _______ _______ _____ _____    ______ ____
ROOT
ATOM      1  O   UNL     1      35.813 -24.126 -16.182  0.00  0.00    -0.267 OA
ATOM      2  N   UNL     1      33.976 -24.373 -14.789  0.00  0.00    -0.293 N 
ATOM      3  C   UNL     1      31.805 -23.578 -15.579  0.00  0.00    +0.046 A 
ATOM      4  C   UNL     1      32.577 -24.184 -14.575  0.00  0.00    +0.065 A 
ATOM      5  C   UNL     1      30.426 -23.393 -15.366  0.00  0.00    -0.018 C 
ATOM      6  C   UNL     1      33.766 -23.331 -17.029  0.00  0.00    +0.143 A 
ATOM      7  C   UNL     1      32.446 -23.146 -16.834  0.00  0.00    +0.144 A 
ATOM      8  C   UNL     1      34.608 -23.976 -15.967  0.00  0.00    +0.268 A 
ATOM      9  C   UNL     1      31.948 -24.592 -13.382  0.00  0.00    +0.017 C 
ATOM     10  C   UNL     1      29.818 -23.801 -14.179  0.00  0.00    -0.004 C 
ATOM     11  C   UNL     1      30.581 -24.401 -13.187  0.00  0.00    +0.001 C 
ATOM     12  C   UNL     1      34.773 -25.003 -13.737  0.00  0.00    +0.134 C 
ENDROOT
BRANCH   6  15
ATOM     13  O   UNL     1      34.156 -23.599 -19.294  0.00  0.00    -0.269 OA
ATOM     14  N   UNL     1      35.262 -21.807 -18.240  0.00  0.00    -0.255 N 
ATOM     15  C   UNL     1      34.414 -22.928 -18.294  0.00  0.00    +0.260 C 
BRANCH  14  16
ATOM     16  C   UNL     1      35.401 -20.964 -19.415  0.00  0.00    +0.054 C 
ATOM     17  C   UNL     1      34.267 -20.561 -20.121  0.00  0.00    +0.015 C 
ATOM     18  C   UNL     1      36.666 -20.556 -19.837  0.00  0.00    +0.015 C 
ATOM     19  C   UNL     1      34.399 -19.751 -21.250  0.00  0.00    +0.001 C 
ATOM     20  C   UNL     1      36.798 -19.746 -20.964  0.00  0.00    +0.001 C 
ATOM     21  C   UNL     1      35.665 -19.344 -21.671  0.00  0.00    +0.000 C 
ENDBRANCH  14  16
BRANCH  14  22
ATOM     22  C   UNL     1      36.014 -21.471 -17.019  0.00  0.00    +0.099 C 
ATOM     23  C   UNL     1      37.450 -21.944 -17.105  0.00  0.00    +0.024 C 
ENDBRANCH  14  22
ENDBRANCH   6  15
BRANCH   7  24
ATOM     24  O   UNL     1      31.618 -22.540 -17.754  0.00  0.00    -0.505 OA
ATOM     25  H   UNL     1      31.504 -21.611 -17.742  0.00  0.00    +0.292 HD
ENDBRANCH   7  24
BRANCH   5  26
ATOM     26  C   UNL     1      29.490 -22.764 -16.353  0.00  0.00    +0.027 C 
ATOM     27  C   UNL     1      28.340 -23.692 -16.725  0.00  0.00    +0.005 C 
ENDBRANCH   5  26
TORSDOF 5
ENDMDL
MODEL 5
REMARK VINA RESULT:      -8.5      2.577      7.934
REMARK  Name = 54684617
REMARK  5 active torsions:
REMARK  status: ('A' for Active; 'I' for Inactive)
REMARK    1  A    between atoms: C_5  and  C_26
REMARK    2  A    between atoms: C_6  and  C_15
REMARK    3  A    between atoms: C_7  and  O_24
REMARK    4  A    between atoms: N_14  and  C_16
REMARK    5  A    between atoms: N_14  and  C_22
REMARK                            x       y       z     vdW  Elec       q    Type
REMARK                         _______ _______ _______ _____ _____    ______ ____
ROOT
ATOM      1  O   UNL     1      31.156  -8.848 -20.739  0.00  0.00    -0.267 OA
ATOM      2  N   UNL     1      31.789 -11.072 -20.568  0.00  0.00    -0.293 N 
ATOM      3  C   UNL     1      32.642 -12.192 -22.565  0.00  0.00    +0.046 A 
ATOM      4  C   UNL     1      32.309 -12.241 -21.202  0.00  0.00    +0.065 A 
ATOM      5  C   UNL     1      33.154 -13.347 -23.187  0.00  0.00    -0.018 C 
ATOM      6  C   UNL     1      31.965  -9.842 -22.714  0.00  0.00    +0.143 A 
ATOM      7  C   UNL     1      32.452 -10.941 -23.319  0.00  0.00    +0.144 A 
ATOM      8  C   UNL     1      31.601  -9.874 -21.258  0.00  0.00    +0.268 A 
ATOM      9  C   UNL     1      32.498 -13.444 -20.495  0.00  0.00    +0.017 C 
ATOM     10  C   UNL     1      33.334 -14.531 -22.473  0.00  0.00    -0.004 C 
ATOM     11  C   UNL     1      33.005 -14.579 -21.126  0.00  0.00    +0.001 C 
ATOM     12  C   UNL     1      31.442 -11.131 -19.149  0.00  0.00    +0.134 C 
ENDROOT
BRANCH   6  15
ATOM     13  O   UNL     1      30.931  -8.547 -24.329  0.00  0.00    -0.269 OA
ATOM     14  N   UNL     1      32.638  -7.510 -23.083  0.00  0.00    -0.255 N 
ATOM     15  C   UNL     1      31.796  -8.574 -23.454  0.00  0.00    +0.260 C 
BRANCH  14  16
ATOM     16  C   UNL     1      32.161  -6.144 -23.225  0.00  0.00    +0.054 C 
ATOM     17  C   UNL     1      32.365  -5.456 -24.421  0.00  0.00    +0.015 C 
ATOM     18  C   UNL     1      31.499  -5.522 -22.167  0.00  0.00    +0.015 C 
ATOM     19  C   UNL     1      31.907  -4.145 -24.558  0.00  0.00    +0.001 C 
ATOM     20  C   UNL     1      31.041  -4.213 -22.304  0.00  0.00    +0.001 C 
ATOM     21  C   UNL     1      31.245  -3.523 -23.500  0.00  0.00    +0.000 C 
ENDBRANCH  14  16
BRANCH  14  22
ATOM     22  C   UNL     1      33.993  -7.748 -22.556  0.00  0.00    +0.099 C 
ATOM     23  C   UNL     1      35.010  -7.858 -23.672  0.00  0.00    +0.024 C 
ENDBRANCH  14  22
ENDBRANCH   6  15
BRANCH   7  24
ATOM     24  O   UNL     1      32.784 -10.990 -24.657  0.00  0.00    -0.505 OA
ATOM     25  H   UNL     1      32.687 -11.789 -25.135  0.00  0.00    +0.292 HD
ENDBRANCH   7  24
BRANCH   5  26
ATOM     26  C   UNL     1      33.551 -13.430 -24.630  0.00  0.00    +0.027 C 
ATOM     27  C   UNL     1      33.230 -14.791 -25.235  0.00  0.00    +0.005 C 
ENDBRANCH   5  26
TORSDOF 5
ENDMDL
MODEL 6
REMARK VINA RESULT:      -8.3      1.432      7.339
REMARK  Name = 54684617
REMARK  5 active torsions:
REMARK  status: ('A' for Active; 'I' for Inactive)
REMARK    1  A    between atoms: C_5  and  C_26
REMARK    2  A    between atoms: C_6  and  C_15
REMARK    3  A    between atoms: C_7  and  O_24
REMARK    4  A    between atoms: N_14  and  C_16
REMARK    5  A    between atoms: N_14  and  C_22
REMARK                            x       y       z     vdW  Elec       q    Type
REMARK                         _______ _______ _______ _____ _____    ______ ____
ROOT
ATOM      1  O   UNL     1      33.028 -12.938 -20.333  0.00  0.00    -0.267 OA
ATOM      2  N   UNL     1      33.845 -14.724 -21.566  0.00  0.00    -0.293 N 
ATOM      3  C   UNL     1      33.366 -14.798 -23.960  0.00  0.00    +0.046 A 
ATOM      4  C   UNL     1      33.967 -15.376 -22.830  0.00  0.00    +0.065 A 
ATOM      5  C   UNL     1      33.488 -15.443 -25.206  0.00  0.00    -0.018 C 
ATOM      6  C   UNL     1      32.516 -12.922 -22.631  0.00  0.00    +0.143 A 
ATOM      7  C   UNL     1      32.623 -13.533 -23.826  0.00  0.00    +0.144 A 
ATOM      8  C   UNL     1      33.150 -13.525 -21.411  0.00  0.00    +0.268 A 
ATOM      9  C   UNL     1      34.674 -16.585 -22.975  0.00  0.00    +0.017 C 
ATOM     10  C   UNL     1      34.191 -16.640 -25.333  0.00  0.00    -0.004 C 
ATOM     11  C   UNL     1      34.784 -17.211 -24.216  0.00  0.00    +0.001 C 
ATOM     12  C   UNL     1      34.471 -15.334 -20.393  0.00  0.00    +0.134 C 
ENDROOT
BRANCH   6  15
ATOM     13  O   UNL     1      30.664 -11.682 -22.011  0.00  0.00    -0.269 OA
ATOM     14  N   UNL     1      32.480 -10.484 -22.912  0.00  0.00    -0.255 N 
ATOM     15  C   UNL     1      31.798 -11.639 -22.490  0.00  0.00    +0.260 C 
BRANCH  14  16
ATOM     16  C   UNL     1      32.203  -9.217 -22.256  0.00  0.00    +0.054 C 
ATOM     17  C   UNL     1      31.601  -8.180 -22.968  0.00  0.00    +0.015 C 
ATOM     18  C   UNL     1      32.540  -9.037 -20.914  0.00  0.00    +0.015 C 
ATOM     19  C   UNL     1      31.334  -6.963 -22.338  0.00  0.00    +0.001 C 
ATOM     20  C   UNL     1      32.274  -7.822 -20.284  0.00  0.00    +0.001 C 
ATOM     21  C   UNL     1      31.672  -6.784 -20.997  0.00  0.00    +0.000 C 
ENDBRANCH  14  16
BRANCH  14  22
ATOM     22  C   UNL     1      33.466 -10.529 -24.005  0.00  0.00    +0.099 C 
ATOM     23  C   UNL     1      34.479  -9.410 -23.883  0.00  0.00    +0.024 C 
ENDBRANCH  14  22
ENDBRANCH   6  15
BRANCH   7  24
ATOM     24  O   UNL     1      32.048 -13.049 -24.982  0.00  0.00    -0.505 OA
ATOM     25  H   UNL     1      31.166 -12.734 -24.971  0.00  0.00    +0.292 HD
ENDBRANCH   7  24
BRANCH   5  26
ATOM     26  C   UNL     1      32.900 -14.934 -26.487  0.00  0.00    +0.027 C 
ATOM     27  C   UNL     1      33.832 -13.961 -27.199  0.00  0.00    +0.005 C 
ENDBRANCH   5  26
TORSDOF 5
ENDMDL
MODEL 7
REMARK VINA RESULT:      -8.3      1.605      3.574
REMARK  Name = 54684617
REMARK  5 active torsions:
REMARK  status: ('A' for Active; 'I' for Inactive)
REMARK    1  A    between atoms: C_5  and  C_26
REMARK    2  A    between atoms: C_6  and  C_15
REMARK    3  A    between atoms: C_7  and  O_24
REMARK    4  A    between atoms: N_14  and  C_16
REMARK    5  A    between atoms: N_14  and  C_22
REMARK                            x       y       z     vdW  Elec       q    Type
REMARK                         _______ _______ _______ _____ _____    ______ ____
ROOT
ATOM      1  O   UNL     1      31.950 -13.715 -21.763  0.00  0.00    -0.267 OA
ATOM      2  N   UNL     1      31.476 -11.451 -21.929  0.00  0.00    -0.293 N 
ATOM      3  C   UNL     1      32.956 -10.052 -23.278  0.00  0.00    +0.046 A 
ATOM      4  C   UNL     1      31.823 -10.171 -22.457  0.00  0.00    +0.065 A 
ATOM      5  C   UNL     1      33.296  -8.788 -23.797  0.00  0.00    -0.018 C 
ATOM      6  C   UNL     1      33.431 -12.448 -23.084  0.00  0.00    +0.143 A 
ATOM      7  C   UNL     1      33.767 -11.244 -23.582  0.00  0.00    +0.144 A 
ATOM      8  C   UNL     1      32.225 -12.596 -22.203  0.00  0.00    +0.268 A 
ATOM      9  C   UNL     1      31.058  -9.022 -22.178  0.00  0.00    +0.017 C 
ATOM     10  C   UNL     1      32.529  -7.660 -23.510  0.00  0.00    -0.004 C 
ATOM     11  C   UNL     1      31.409  -7.778 -22.699  0.00  0.00    +0.001 C 
ATOM     12  C   UNL     1      30.296 -11.567 -21.073  0.00  0.00    +0.134 C 
ENDROOT
BRANCH   6  15
ATOM     13  O   UNL     1      35.313 -13.774 -22.848  0.00  0.00    -0.269 OA
ATOM     14  N   UNL     1      33.647 -14.563 -24.313  0.00  0.00    -0.255 N 
ATOM     15  C   UNL     1      34.221 -13.655 -23.404  0.00  0.00    +0.260 C 
BRANCH  14  16
ATOM     16  C   UNL     1      33.959 -15.977 -24.196  0.00  0.00    +0.054 C 
ATOM     17  C   UNL     1      34.003 -16.777 -25.338  0.00  0.00    +0.015 C 
ATOM     18  C   UNL     1      34.216 -16.535 -22.944  0.00  0.00    +0.015 C 
ATOM     19  C   UNL     1      34.304 -18.136 -25.227  0.00  0.00    +0.001 C 
ATOM     20  C   UNL     1      34.517 -17.892 -22.833  0.00  0.00    +0.001 C 
ATOM     21  C   UNL     1      34.560 -18.693 -23.975  0.00  0.00    +0.000 C 
ENDBRANCH  14  16
BRANCH  14  22
ATOM     22  C   UNL     1      32.737 -14.111 -25.379  0.00  0.00    +0.099 C 
ATOM     23  C   UNL     1      33.500 -13.508 -26.540  0.00  0.00    +0.024 C 
ENDBRANCH  14  22
ENDBRANCH   6  15
BRANCH   7  24
ATOM     24  O   UNL     1      34.874 -11.031 -24.377  0.00  0.00    -0.505 OA
ATOM     25  H   UNL     1      34.805 -10.496 -25.143  0.00  0.00    +0.292 HD
ENDBRANCH   7  24
BRANCH   5  26
ATOM     26  C   UNL     1      34.474  -8.523 -24.686  0.00  0.00    +0.027 C 
ATOM     27  C   UNL     1      34.821  -7.041 -24.750  0.00  0.00    +0.005 C 
ENDBRANCH   5  26
TORSDOF 5
ENDMDL
MODEL 8
REMARK VINA RESULT:      -8.2      4.432      7.401
REMARK  Name = 54684617
REMARK  5 active torsions:
REMARK  status: ('A' for Active; 'I' for Inactive)
REMARK    1  A    between atoms: C_5  and  C_26
REMARK    2  A    between atoms: C_6  and  C_15
REMARK    3  A    between atoms: C_7  and  O_24
REMARK    4  A    between atoms: N_14  and  C_16
REMARK    5  A    between atoms: N_14  and  C_22
REMARK                            x       y       z     vdW  Elec       q    Type
REMARK                         _______ _______ _______ _____ _____    ______ ____
ROOT
ATOM      1  O   UNL     1      30.078  -5.359 -21.867  0.00  0.00    -0.267 OA
ATOM      2  N   UNL     1      30.970  -3.735 -23.262  0.00  0.00    -0.293 N 
ATOM      3  C   UNL     1      32.350  -4.454 -25.145  0.00  0.00    +0.046 A 
ATOM      4  C   UNL     1      31.761  -3.415 -24.407  0.00  0.00    +0.065 A 
ATOM      5  C   UNL     1      33.130  -4.136 -26.273  0.00  0.00    -0.018 C 
ATOM      6  C   UNL     1      31.393  -6.147 -23.653  0.00  0.00    +0.143 A 
ATOM      7  C   UNL     1      32.144  -5.853 -24.732  0.00  0.00    +0.144 A 
ATOM      8  C   UNL     1      30.757  -5.051 -22.850  0.00  0.00    +0.268 A 
ATOM      9  C   UNL     1      31.966  -2.084 -24.816  0.00  0.00    +0.017 C 
ATOM     10  C   UNL     1      33.325  -2.812 -26.666  0.00  0.00    -0.004 C 
ATOM     11  C   UNL     1      32.743  -1.786 -25.935  0.00  0.00    +0.001 C 
ATOM     12  C   UNL     1      30.361  -2.648 -22.496  0.00  0.00    +0.134 C 
ENDROOT
BRANCH   6  15
ATOM     13  O   UNL     1      30.077  -8.048 -23.561  0.00  0.00    -0.269 OA
ATOM     14  N   UNL     1      32.194  -8.183 -22.539  0.00  0.00    -0.255 N 
ATOM     15  C   UNL     1      31.157  -7.547 -23.246  0.00  0.00    +0.260 C 
BRANCH  14  16
ATOM     16  C   UNL     1      32.368  -9.620 -22.673  0.00  0.00    +0.054 C 
ATOM     17  C   UNL     1      33.261 -10.129 -23.616  0.00  0.00    +0.015 C 
ATOM     18  C   UNL     1      31.644 -10.489 -21.858  0.00  0.00    +0.015 C 
ATOM     19  C   UNL     1      33.428 -11.508 -23.744  0.00  0.00    +0.001 C 
ATOM     20  C   UNL     1      31.810 -11.867 -21.986  0.00  0.00    +0.001 C 
ATOM     21  C   UNL     1      32.703 -12.378 -22.930  0.00  0.00    +0.000 C 
ENDBRANCH  14  16
BRANCH  14  22
ATOM     22  C   UNL     1      33.107  -7.425 -21.667  0.00  0.00    +0.099 C 
ATOM     23  C   UNL     1      32.561  -7.312 -20.259  0.00  0.00    +0.024 C 
ENDBRANCH  14  22
ENDBRANCH   6  15
BRANCH   7  24
ATOM     24  O   UNL     1      32.777  -6.806 -25.501  0.00  0.00    -0.505 OA
ATOM     25  H   UNL     1      32.787  -7.701 -25.225  0.00  0.00    +0.292 HD
ENDBRANCH   7  24
BRANCH   5  26
ATOM     26  C   UNL     1      33.810  -5.145 -27.148  0.00  0.00    +0.027 C 
ATOM     27  C   UNL     1      35.290  -4.834 -27.338  0.00  0.00    +0.005 C 
ENDBRANCH   5  26
TORSDOF 5
ENDMDL
MODEL 9
REMARK VINA RESULT:      -8.2      0.921      3.286
REMARK  Name = 54684617
REMARK  5 active torsions:
REMARK  status: ('A' for Active; 'I' for Inactive)
REMARK    1  A    between atoms: C_5  and  C_26
REMARK    2  A    between atoms: C_6  and  C_15
REMARK    3  A    between atoms: C_7  and  O_24
REMARK    4  A    between atoms: N_14  and  C_16
REMARK    5  A    between atoms: N_14  and  C_22
REMARK                            x       y       z     vdW  Elec       q    Type
REMARK                         _______ _______ _______ _____ _____    ______ ____
ROOT
ATOM      1  O   UNL     1      31.363 -12.616 -21.380  0.00  0.00    -0.267 OA
ATOM      2  N   UNL     1      32.205 -10.527 -21.930  0.00  0.00    -0.293 N 
ATOM      3  C   UNL     1      33.837 -10.374 -23.742  0.00  0.00    +0.046 A 
ATOM      4  C   UNL     1      33.067  -9.740 -22.754  0.00  0.00    +0.065 A 
ATOM      5  C   UNL     1      34.685  -9.596 -24.553  0.00  0.00    -0.018 C 
ATOM      6  C   UNL     1      32.928 -12.568 -23.138  0.00  0.00    +0.143 A 
ATOM      7  C   UNL     1      33.745 -11.834 -23.916  0.00  0.00    +0.144 A 
ATOM      8  C   UNL     1      32.098 -11.910 -22.074  0.00  0.00    +0.268 A 
ATOM      9  C   UNL     1      33.164  -8.344 -22.602  0.00  0.00    +0.017 C 
ATOM     10  C   UNL     1      34.772  -8.214 -24.390  0.00  0.00    -0.004 C 
ATOM     11  C   UNL     1      34.011  -7.588 -23.413  0.00  0.00    +0.001 C 
ATOM     12  C   UNL     1      31.408  -9.860 -20.901  0.00  0.00    +0.134 C 
ENDROOT
BRANCH   6  15
ATOM     13  O   UNL     1      31.886 -14.430 -24.034  0.00  0.00    -0.269 OA
ATOM     14  N   UNL     1      33.764 -14.829 -22.669  0.00  0.00    -0.255 N 
ATOM     15  C   UNL     1      32.807 -14.029 -23.321  0.00  0.00    +0.260 C 
BRANCH  14  16
ATOM     16  C   UNL     1      34.151 -16.098 -23.261  0.00  0.00    +0.054 C 
ATOM     17  C   UNL     1      34.456 -17.185 -22.442  0.00  0.00    +0.015 C 
ATOM     18  C   UNL     1      34.217 -16.230 -24.648  0.00  0.00    +0.015 C 
ATOM     19  C   UNL     1      34.828 -18.404 -23.010  0.00  0.00    +0.001 C 
ATOM     20  C   UNL     1      34.589 -17.448 -25.216  0.00  0.00    +0.001 C 
ATOM     21  C   UNL     1      34.895 -18.536 -24.397  0.00  0.00    +0.000 C 
ENDBRANCH  14  16
BRANCH  14  22
ATOM     22  C   UNL     1      34.379 -14.409 -21.399  0.00  0.00    +0.099 C 
ATOM     23  C   UNL     1      33.576 -14.889 -20.208  0.00  0.00    +0.024 C 
ENDBRANCH  14  22
ENDBRANCH   6  15
BRANCH   7  24
ATOM     24  O   UNL     1      34.553 -12.375 -24.895  0.00  0.00    -0.505 OA
ATOM     25  H   UNL     1      34.555 -13.299 -25.043  0.00  0.00    +0.292 HD
ENDBRANCH   7  24
BRANCH   5  26
ATOM     26  C   UNL     1      35.556 -10.144 -25.643  0.00  0.00    +0.027 C 
ATOM     27  C   UNL     1      35.994  -9.064 -26.624  0.00  0.00    +0.005 C 
ENDBRANCH   5  26
TORSDOF 5
ENDMDL
