MODEL 1
REMARK VINA RESULT:      -5.7      0.000      0.000
REMARK  Name = 6714002
REMARK  10 active torsions:
REMARK  status: ('A' for Active; 'I' for Inactive)
REMARK    1  A    between atoms: C_6  and  C_24
REMARK    2  A    between atoms: C_6  and  O_31
REMARK    3  A    between atoms: C_9  and  O_21
REMARK    4  A    between atoms: C_24  and  C_25
REMARK    5  A    between atoms: C_25  and  O_26
REMARK    6  A    between atoms: O_26  and  C_28
REMARK    7  A    between atoms: C_28  and  C_29
REMARK    8  A    between atoms: O_31  and  C_33
REMARK    9  A    between atoms: C_33  and  O_34
REMARK   10  A    between atoms: O_34  and  C_35
REMARK                            x       y       z     vdW  Elec       q    Type
REMARK                         _______ _______ _______ _____ _____    ______ ____
ROOT
ATOM      1  O   UNL     1      36.028 -22.964 -15.354  0.00  0.00    -0.287 OA
ATOM      2  C   UNL     1      34.606 -17.986 -21.746  0.00  0.00    +0.043 C 
ATOM      3  C   UNL     1      33.583 -18.635 -20.787  0.00  0.00    +0.004 C 
ATOM      4  C   UNL     1      33.886 -20.106 -20.469  0.00  0.00    +0.003 C 
ATOM      5  C   UNL     1      35.298 -20.193 -19.786  0.00  0.00    +0.034 C 
ATOM      6  C   UNL     1      33.964 -16.578 -21.887  0.00  0.00    +0.193 C 
ATOM      7  C   UNL     1      35.983 -18.037 -21.056  0.00  0.00    +0.033 C 
ATOM      8  C   UNL     1      32.236 -18.278 -21.411  0.00  0.00    +0.004 C 
ATOM      9  C   UNL     1      36.395 -19.462 -20.623  0.00  0.00    +0.111 C 
ATOM     10  C   UNL     1      35.646 -21.662 -19.319  0.00  0.00    +0.036 C 
ATOM     11  C   UNL     1      32.447 -16.860 -21.982  0.00  0.00    +0.048 C 
ATOM     12  C   UNL     1      32.792 -20.698 -19.561  0.00  0.00    +0.004 C 
ATOM     13  C   UNL     1      34.662 -18.672 -23.139  0.00  0.00    +0.004 C 
ATOM     14  C   UNL     1      33.116 -22.116 -19.112  0.00  0.00    +0.022 C 
ATOM     15  C   UNL     1      34.476 -22.160 -18.463  0.00  0.00    -0.038 C 
ATOM     16  C   UNL     1      35.847 -22.661 -20.482  0.00  0.00    +0.009 C 
ATOM     17  C   UNL     1      36.946 -21.664 -18.529  0.00  0.00    -0.020 C 
ATOM     18  C   UNL     1      34.604 -22.572 -17.191  0.00  0.00    +0.034 C 
ATOM     19  C   UNL     1      37.080 -22.072 -17.263  0.00  0.00    +0.038 C 
ATOM     20  C   UNL     1      35.914 -22.569 -16.510  0.00  0.00    +0.195 C 
ENDROOT
BRANCH   9  21
ATOM     21  O   UNL     1      36.762 -20.220 -21.767  0.00  0.00    -0.384 OA
ATOM     22  H   UNL     1      36.053 -20.847 -21.980  0.00  0.00    +0.210 HD
ENDBRANCH   9  21
BRANCH   6  24
ATOM     23  O   UNL     1      35.692 -15.612 -23.212  0.00  0.00    -0.288 OA
ATOM     24  C   UNL     1      34.484 -15.767 -23.034  0.00  0.00    +0.230 C 
BRANCH  24  25
ATOM     25  C   UNL     1      33.445 -15.155 -23.949  0.00  0.00    +0.276 C 
BRANCH  25  26
ATOM     26  O   UNL     1      33.786 -13.823 -24.272  0.00  0.00    -0.440 OA
BRANCH  26  28
ATOM     27  O   UNL     1      32.827 -14.059 -26.356  0.00  0.00    -0.250 OA
ATOM     28  C   UNL     1      33.401 -13.383 -25.515  0.00  0.00    +0.317 C 
BRANCH  28  29
ATOM     29  C   UNL     1      33.798 -11.934 -25.685  0.00  0.00    +0.110 C 
ATOM     30  C   UNL     1      33.780 -11.178 -24.368  0.00  0.00    +0.012 C 
ENDBRANCH  28  29
ENDBRANCH  26  28
ENDBRANCH  25  26
ENDBRANCH  24  25
ENDBRANCH   6  24
BRANCH   6  31
ATOM     31  O   UNL     1      34.224 -15.775 -20.740  0.00  0.00    -0.418 OA
BRANCH  31  33
ATOM     32  O   UNL     1      32.292 -15.327 -19.563  0.00  0.00    -0.203 OA
ATOM     33  C   UNL     1      33.191 -14.986 -20.320  0.00  0.00    +0.512 C 
BRANCH  33  34
ATOM     34  O   UNL     1      33.335 -13.757 -20.891  0.00  0.00    -0.418 OA
BRANCH  34  35
ATOM     35  C   UNL     1      32.117 -13.096 -21.250  0.00  0.00    +0.212 C 
ATOM     36  C   UNL     1      31.846 -11.987 -20.255  0.00  0.00    +0.051 C 
ENDBRANCH  34  35
ENDBRANCH  33  34
ENDBRANCH  31  33
ENDBRANCH   6  31
TORSDOF 10
ENDMDL
MODEL 2
REMARK VINA RESULT:      -5.0      3.095     10.410
REMARK  Name = 6714002
REMARK  10 active torsions:
REMARK  status: ('A' for Active; 'I' for Inactive)
REMARK    1  A    between atoms: C_6  and  C_24
REMARK    2  A    between atoms: C_6  and  O_31
REMARK    3  A    between atoms: C_9  and  O_21
REMARK    4  A    between atoms: C_24  and  C_25
REMARK    5  A    between atoms: C_25  and  O_26
REMARK    6  A    between atoms: O_26  and  C_28
REMARK    7  A    between atoms: C_28  and  C_29
REMARK    8  A    between atoms: O_31  and  C_33
REMARK    9  A    between atoms: C_33  and  O_34
REMARK   10  A    between atoms: O_34  and  C_35
REMARK                            x       y       z     vdW  Elec       q    Type
REMARK                         _______ _______ _______ _____ _____    ______ ____
ROOT
ATOM      1  O   UNL     1      30.461  -5.034 -24.252  0.00  0.00    -0.287 OA
ATOM      2  C   UNL     1      33.584 -12.590 -23.354  0.00  0.00    +0.043 C 
ATOM      3  C   UNL     1      32.393 -11.948 -22.609  0.00  0.00    +0.004 C 
ATOM      4  C   UNL     1      32.647 -10.496 -22.179  0.00  0.00    +0.003 C 
ATOM      5  C   UNL     1      32.926  -9.633 -23.461  0.00  0.00    +0.034 C 
ATOM      6  C   UNL     1      33.012 -14.019 -23.565  0.00  0.00    +0.193 C 
ATOM      7  C   UNL     1      33.831 -11.764 -24.632  0.00  0.00    +0.033 C 
ATOM      8  C   UNL     1      32.042 -12.983 -21.543  0.00  0.00    +0.004 C 
ATOM      9  C   UNL     1      34.044 -10.260 -24.352  0.00  0.00    +0.111 C 
ATOM     10  C   UNL     1      33.088  -8.097 -23.122  0.00  0.00    +0.036 C 
ATOM     11  C   UNL     1      32.292 -14.339 -22.235  0.00  0.00    +0.048 C 
ATOM     12  C   UNL     1      31.443  -9.949 -21.391  0.00  0.00    +0.004 C 
ATOM     13  C   UNL     1      34.875 -12.670 -22.493  0.00  0.00    +0.004 C 
ATOM     14  C   UNL     1      31.593  -8.472 -21.055  0.00  0.00    +0.022 C 
ATOM     15  C   UNL     1      31.859  -7.676 -22.308  0.00  0.00    -0.038 C 
ATOM     16  C   UNL     1      34.350  -7.765 -22.293  0.00  0.00    +0.009 C 
ATOM     17  C   UNL     1      33.200  -7.290 -24.407  0.00  0.00    -0.020 C 
ATOM     18  C   UNL     1      31.019  -6.696 -22.677  0.00  0.00    +0.034 C 
ATOM     19  C   UNL     1      32.366  -6.314 -24.781  0.00  0.00    +0.038 C 
ATOM     20  C   UNL     1      31.222  -5.940 -23.929  0.00  0.00    +0.195 C 
ENDROOT
BRANCH   9  21
ATOM     21  O   UNL     1      35.331 -10.059 -23.783  0.00  0.00    -0.384 OA
ATOM     22  H   UNL     1      35.864 -10.861 -23.901  0.00  0.00    +0.210 HD
ENDBRANCH   9  21
BRANCH   6  24
ATOM     23  O   UNL     1      34.910 -14.807 -24.770  0.00  0.00    -0.288 OA
ATOM     24  C   UNL     1      34.031 -15.050 -23.944  0.00  0.00    +0.230 C 
BRANCH  24  25
ATOM     25  C   UNL     1      33.912 -16.395 -23.259  0.00  0.00    +0.276 C 
BRANCH  25  26
ATOM     26  O   UNL     1      35.174 -16.836 -22.804  0.00  0.00    -0.440 OA
BRANCH  26  28
ATOM     27  O   UNL     1      35.269 -16.891 -20.500  0.00  0.00    -0.250 OA
ATOM     28  C   UNL     1      35.194 -17.460 -21.580  0.00  0.00    +0.317 C 
BRANCH  28  29
ATOM     29  C   UNL     1      35.109 -18.957 -21.772  0.00  0.00    +0.110 C 
ATOM     30  C   UNL     1      34.059 -19.590 -20.877  0.00  0.00    +0.012 C 
ENDBRANCH  28  29
ENDBRANCH  26  28
ENDBRANCH  25  26
ENDBRANCH  24  25
ENDBRANCH   6  24
BRANCH   6  31
ATOM     31  O   UNL     1      32.068 -14.046 -24.631  0.00  0.00    -0.418 OA
BRANCH  31  33
ATOM     32  O   UNL     1      32.718 -15.572 -26.233  0.00  0.00    -0.203 OA
ATOM     33  C   UNL     1      32.558 -14.421 -25.850  0.00  0.00    +0.512 C 
BRANCH  33  34
ATOM     34  O   UNL     1      32.839 -13.293 -26.562  0.00  0.00    -0.418 OA
BRANCH  34  35
ATOM     35  C   UNL     1      33.696 -13.476 -27.694  0.00  0.00    +0.212 C 
ATOM     36  C   UNL     1      34.840 -12.488 -27.610  0.00  0.00    +0.051 C 
ENDBRANCH  34  35
ENDBRANCH  33  34
ENDBRANCH  31  33
ENDBRANCH   6  31
TORSDOF 10
ENDMDL
MODEL 3
REMARK VINA RESULT:      -4.3      6.820     11.266
REMARK  Name = 6714002
REMARK  10 active torsions:
REMARK  status: ('A' for Active; 'I' for Inactive)
REMARK    1  A    between atoms: C_6  and  C_24
REMARK    2  A    between atoms: C_6  and  O_31
REMARK    3  A    between atoms: C_9  and  O_21
REMARK    4  A    between atoms: C_24  and  C_25
REMARK    5  A    between atoms: C_25  and  O_26
REMARK    6  A    between atoms: O_26  and  C_28
REMARK    7  A    between atoms: C_28  and  C_29
REMARK    8  A    between atoms: O_31  and  C_33
REMARK    9  A    between atoms: C_33  and  O_34
REMARK   10  A    between atoms: O_34  and  C_35
REMARK                            x       y       z     vdW  Elec       q    Type
REMARK                         _______ _______ _______ _____ _____    ______ ____
ROOT
ATOM      1  O   UNL     1      26.838 -21.890 -17.707  0.00  0.00    -0.287 OA
ATOM      2  C   UNL     1      33.842 -23.842 -13.861  0.00  0.00    +0.043 C 
ATOM      3  C   UNL     1      33.328 -24.338 -15.231  0.00  0.00    +0.004 C 
ATOM      4  C   UNL     1      31.833 -24.692 -15.234  0.00  0.00    +0.003 C 
ATOM      5  C   UNL     1      31.011 -23.408 -14.855  0.00  0.00    +0.034 C 
ATOM      6  C   UNL     1      35.345 -23.653 -14.208  0.00  0.00    +0.193 C 
ATOM      7  C   UNL     1      33.061 -22.561 -13.509  0.00  0.00    +0.033 C 
ATOM      8  C   UNL     1      34.340 -25.411 -15.622  0.00  0.00    +0.004 C 
ATOM      9  C   UNL     1      31.529 -22.756 -13.534  0.00  0.00    +0.111 C 
ATOM     10  C   UNL     1      29.452 -23.651 -14.944  0.00  0.00    +0.036 C 
ATOM     11  C   UNL     1      35.686 -24.873 -15.094  0.00  0.00    +0.048 C 
ATOM     12  C   UNL     1      31.412 -25.235 -16.612  0.00  0.00    +0.004 C 
ATOM     13  C   UNL     1      33.699 -24.900 -12.732  0.00  0.00    +0.004 C 
ATOM     14  C   UNL     1      29.912 -25.478 -16.705  0.00  0.00    +0.022 C 
ATOM     15  C   UNL     1      29.157 -24.226 -16.334  0.00  0.00    -0.038 C 
ATOM     16  C   UNL     1      28.907 -24.641 -13.890  0.00  0.00    +0.009 C 
ATOM     17  C   UNL     1      28.708 -22.343 -14.721  0.00  0.00    -0.020 C 
ATOM     18  C   UNL     1      28.321 -23.656 -17.216  0.00  0.00    +0.034 C 
ATOM     19  C   UNL     1      27.876 -21.768 -15.596  0.00  0.00    +0.038 C 
ATOM     20  C   UNL     1      27.614 -22.397 -16.904  0.00  0.00    +0.195 C 
ENDROOT
BRANCH   9  21
ATOM     21  O   UNL     1      31.125 -23.504 -12.396  0.00  0.00    -0.384 OA
ATOM     22  H   UNL     1      30.579 -24.253 -12.679  0.00  0.00    +0.210 HD
ENDBRANCH   9  21
BRANCH   6  24
ATOM     23  O   UNL     1      36.622 -22.416 -12.623  0.00  0.00    -0.288 OA
ATOM     24  C   UNL     1      36.248 -23.519 -13.019  0.00  0.00    +0.230 C 
BRANCH  24  25
ATOM     25  C   UNL     1      36.667 -24.808 -12.346  0.00  0.00    +0.276 C 
BRANCH  25  26
ATOM     26  O   UNL     1      38.074 -24.931 -12.336  0.00  0.00    -0.440 OA
BRANCH  26  28
ATOM     27  O   UNL     1      38.108 -26.762 -13.738  0.00  0.00    -0.250 OA
ATOM     28  C   UNL     1      38.620 -25.740 -13.303  0.00  0.00    +0.317 C 
BRANCH  28  29
ATOM     29  C   UNL     1      39.948 -25.173 -13.748  0.00  0.00    +0.110 C 
ATOM     30  C   UNL     1      40.220 -25.437 -15.218  0.00  0.00    +0.012 C 
ENDBRANCH  28  29
ENDBRANCH  26  28
ENDBRANCH  25  26
ENDBRANCH  24  25
ENDBRANCH   6  24
BRANCH   6  31
ATOM     31  O   UNL     1      35.557 -22.456 -14.950  0.00  0.00    -0.418 OA
BRANCH  31  33
ATOM     32  O   UNL     1      37.723 -22.568 -15.732  0.00  0.00    -0.203 OA
ATOM     33  C   UNL     1      36.515 -22.520 -15.921  0.00  0.00    +0.512 C 
BRANCH  33  34
ATOM     34  O   UNL     1      35.893 -22.519 -17.134  0.00  0.00    -0.418 OA
BRANCH  34  35
ATOM     35  C   UNL     1      36.513 -21.717 -18.145  0.00  0.00    +0.212 C 
ATOM     36  C   UNL     1      35.644 -21.729 -19.385  0.00  0.00    +0.051 C 
ENDBRANCH  34  35
ENDBRANCH  33  34
ENDBRANCH  31  33
ENDBRANCH   6  31
TORSDOF 10
ENDMDL
MODEL 4
REMARK VINA RESULT:      -4.0      5.133      9.310
REMARK  Name = 6714002
REMARK  10 active torsions:
REMARK  status: ('A' for Active; 'I' for Inactive)
REMARK    1  A    between atoms: C_6  and  C_24
REMARK    2  A    between atoms: C_6  and  O_31
REMARK    3  A    between atoms: C_9  and  O_21
REMARK    4  A    between atoms: C_24  and  C_25
REMARK    5  A    between atoms: C_25  and  O_26
REMARK    6  A    between atoms: O_26  and  C_28
REMARK    7  A    between atoms: C_28  and  C_29
REMARK    8  A    between atoms: O_31  and  C_33
REMARK    9  A    between atoms: C_33  and  O_34
REMARK   10  A    between atoms: O_34  and  C_35
REMARK                            x       y       z     vdW  Elec       q    Type
REMARK                         _______ _______ _______ _____ _____    ______ ____
ROOT
ATOM      1  O   UNL     1      34.506 -15.847 -19.982  0.00  0.00    -0.287 OA
ATOM      2  C   UNL     1      32.728  -8.814 -23.859  0.00  0.00    +0.043 C 
ATOM      3  C   UNL     1      31.950  -9.504 -22.716  0.00  0.00    +0.004 C 
ATOM      4  C   UNL     1      31.823 -11.024 -22.891  0.00  0.00    +0.003 C 
ATOM      5  C   UNL     1      33.264 -11.649 -22.930  0.00  0.00    +0.034 C 
ATOM      6  C   UNL     1      32.601  -7.336 -23.396  0.00  0.00    +0.193 C 
ATOM      7  C   UNL     1      34.153  -9.401 -23.870  0.00  0.00    +0.033 C 
ATOM      8  C   UNL     1      30.680  -8.667 -22.596  0.00  0.00    +0.004 C 
ATOM      9  C   UNL     1      34.176 -10.941 -23.981  0.00  0.00    +0.111 C 
ATOM     10  C   UNL     1      33.228 -13.228 -22.994  0.00  0.00    +0.036 C 
ATOM     11  C   UNL     1      31.149  -7.224 -22.878  0.00  0.00    +0.048 C 
ATOM     12  C   UNL     1      30.985 -11.629 -21.749  0.00  0.00    +0.004 C 
ATOM     13  C   UNL     1      32.053  -8.982 -25.249  0.00  0.00    +0.004 C 
ATOM     14  C   UNL     1      30.940 -13.150 -21.807  0.00  0.00    +0.022 C 
ATOM     15  C   UNL     1      32.338 -13.713 -21.843  0.00  0.00    -0.038 C 
ATOM     16  C   UNL     1      32.653 -13.792 -24.314  0.00  0.00    +0.009 C 
ATOM     17  C   UNL     1      34.637 -13.787 -22.873  0.00  0.00    -0.020 C 
ATOM     18  C   UNL     1      32.755 -14.549 -20.879  0.00  0.00    +0.034 C 
ATOM     19  C   UNL     1      35.059 -14.618 -21.915  0.00  0.00    +0.038 C 
ATOM     20  C   UNL     1      34.137 -15.069 -20.856  0.00  0.00    +0.195 C 
ENDROOT
BRANCH   9  21
ATOM     21  O   UNL     1      33.835 -11.329 -25.305  0.00  0.00    -0.384 OA
ATOM     22  H   UNL     1      34.553 -11.081 -25.908  0.00  0.00    +0.210 HD
ENDBRANCH   9  21
BRANCH   6  24
ATOM     23  O   UNL     1      34.034  -6.298 -24.991  0.00  0.00    -0.288 OA
ATOM     24  C   UNL     1      32.930  -6.321 -24.448  0.00  0.00    +0.230 C 
BRANCH  24  25
ATOM     25  C   UNL     1      31.833  -5.337 -24.797  0.00  0.00    +0.276 C 
BRANCH  25  26
ATOM     26  O   UNL     1      32.156  -4.045 -24.328  0.00  0.00    -0.440 OA
BRANCH  26  28
ATOM     27  O   UNL     1      30.450  -3.743 -22.805  0.00  0.00    -0.250 OA
ATOM     28  C   UNL     1      31.134  -3.342 -23.736  0.00  0.00    +0.317 C 
BRANCH  28  29
ATOM     29  C   UNL     1      30.985  -1.998 -24.411  0.00  0.00    +0.110 C 
ATOM     30  C   UNL     1      30.096  -2.071 -25.640  0.00  0.00    +0.012 C 
ENDBRANCH  28  29
ENDBRANCH  26  28
ENDBRANCH  25  26
ENDBRANCH  24  25
ENDBRANCH   6  24
BRANCH   6  31
ATOM     31  O   UNL     1      33.505  -7.049 -22.333  0.00  0.00    -0.418 OA
BRANCH  31  33
ATOM     32  O   UNL     1      32.282  -5.622 -20.997  0.00  0.00    -0.203 OA
ATOM     33  C   UNL     1      32.934  -6.644 -21.160  0.00  0.00    +0.512 C 
BRANCH  33  34
ATOM     34  O   UNL     1      33.219  -7.574 -20.205  0.00  0.00    -0.418 OA
BRANCH  34  35
ATOM     35  C   UNL     1      32.105  -8.016 -19.423  0.00  0.00    +0.212 C 
ATOM     36  C   UNL     1      32.198  -9.516 -19.236  0.00  0.00    +0.051 C 
ENDBRANCH  34  35
ENDBRANCH  33  34
ENDBRANCH  31  33
ENDBRANCH   6  31
TORSDOF 10
ENDMDL
MODEL 5
REMARK VINA RESULT:      -3.9      3.715     10.507
REMARK  Name = 6714002
REMARK  10 active torsions:
REMARK  status: ('A' for Active; 'I' for Inactive)
REMARK    1  A    between atoms: C_6  and  C_24
REMARK    2  A    between atoms: C_6  and  O_31
REMARK    3  A    between atoms: C_9  and  O_21
REMARK    4  A    between atoms: C_24  and  C_25
REMARK    5  A    between atoms: C_25  and  O_26
REMARK    6  A    between atoms: O_26  and  C_28
REMARK    7  A    between atoms: C_28  and  C_29
REMARK    8  A    between atoms: O_31  and  C_33
REMARK    9  A    between atoms: C_33  and  O_34
REMARK   10  A    between atoms: O_34  and  C_35
REMARK                            x       y       z     vdW  Elec       q    Type
REMARK                         _______ _______ _______ _____ _____    ______ ____
ROOT
ATOM      1  O   UNL     1      34.029 -17.748 -21.833  0.00  0.00    -0.287 OA
ATOM      2  C   UNL     1      34.798 -23.426 -15.932  0.00  0.00    +0.043 C 
ATOM      3  C   UNL     1      35.735 -22.241 -16.252  0.00  0.00    +0.004 C 
ATOM      4  C   UNL     1      35.985 -22.044 -17.755  0.00  0.00    +0.003 C 
ATOM      5  C   UNL     1      34.611 -21.767 -18.462  0.00  0.00    +0.034 C 
ATOM      6  C   UNL     1      34.830 -23.363 -14.380  0.00  0.00    +0.193 C 
ATOM      7  C   UNL     1      33.437 -23.133 -16.594  0.00  0.00    +0.033 C 
ATOM      8  C   UNL     1      36.929 -22.474 -15.330  0.00  0.00    +0.004 C 
ATOM      9  C   UNL     1      33.546 -22.854 -18.110  0.00  0.00    +0.111 C 
ATOM     10  C   UNL     1      34.785 -21.440 -19.998  0.00  0.00    +0.036 C 
ATOM     11  C   UNL     1      36.307 -23.053 -14.043  0.00  0.00    +0.048 C 
ATOM     12  C   UNL     1      36.974 -20.888 -17.989  0.00  0.00    +0.004 C 
ATOM     13  C   UNL     1      35.357 -24.796 -16.407  0.00  0.00    +0.004 C 
ATOM     14  C   UNL     1      37.154 -20.569 -19.467  0.00  0.00    +0.022 C 
ATOM     15  C   UNL     1      35.816 -20.310 -20.111  0.00  0.00    -0.038 C 
ATOM     16  C   UNL     1      35.288 -22.632 -20.843  0.00  0.00    +0.009 C 
ATOM     17  C   UNL     1      33.449 -21.028 -20.598  0.00  0.00    -0.020 C 
ATOM     18  C   UNL     1      35.566 -19.128 -20.697  0.00  0.00    +0.034 C 
ATOM     19  C   UNL     1      33.194 -19.852 -21.181  0.00  0.00    +0.038 C 
ATOM     20  C   UNL     1      34.245 -18.823 -21.283  0.00  0.00    +0.195 C 
ENDROOT
BRANCH   9  21
ATOM     21  O   UNL     1      33.800 -24.069 -18.801  0.00  0.00    -0.384 OA
ATOM     22  H   UNL     1      34.611 -23.978 -19.325  0.00  0.00    +0.210 HD
ENDBRANCH   9  21
BRANCH   6  24
ATOM     23  O   UNL     1      33.392 -25.251 -14.170  0.00  0.00    -0.288 OA
ATOM     24  C   UNL     1      34.316 -24.592 -13.694  0.00  0.00    +0.230 C 
BRANCH  24  25
ATOM     25  C   UNL     1      34.994 -24.968 -12.393  0.00  0.00    +0.276 C 
BRANCH  25  26
ATOM     26  O   UNL     1      36.115 -25.792 -12.636  0.00  0.00    -0.440 OA
BRANCH  26  28
ATOM     27  O   UNL     1      37.445 -24.694 -11.104  0.00  0.00    -0.250 OA
ATOM     28  C   UNL     1      37.313 -25.352 -12.126  0.00  0.00    +0.317 C 
BRANCH  28  29
ATOM     29  C   UNL     1      38.442 -25.805 -13.022  0.00  0.00    +0.110 C 
ATOM     30  C   UNL     1      37.935 -26.430 -14.310  0.00  0.00    +0.012 C 
ENDBRANCH  28  29
ENDBRANCH  26  28
ENDBRANCH  25  26
ENDBRANCH  24  25
ENDBRANCH   6  24
BRANCH   6  31
ATOM     31  O   UNL     1      34.003 -22.312 -13.889  0.00  0.00    -0.418 OA
BRANCH  31  33
ATOM     32  O   UNL     1      32.454 -23.030 -12.339  0.00  0.00    -0.203 OA
ATOM     33  C   UNL     1      32.756 -22.682 -13.473  0.00  0.00    +0.512 C 
BRANCH  33  34
ATOM     34  O   UNL     1      31.909 -22.599 -14.537  0.00  0.00    -0.418 OA
BRANCH  34  35
ATOM     35  C   UNL     1      30.591 -23.113 -14.319  0.00  0.00    +0.212 C 
ATOM     36  C   UNL     1      29.721 -22.760 -15.507  0.00  0.00    +0.051 C 
ENDBRANCH  34  35
ENDBRANCH  33  34
ENDBRANCH  31  33
ENDBRANCH   6  31
TORSDOF 10
ENDMDL
MODEL 6
REMARK VINA RESULT:      -3.8      5.589     10.152
REMARK  Name = 6714002
REMARK  10 active torsions:
REMARK  status: ('A' for Active; 'I' for Inactive)
REMARK    1  A    between atoms: C_6  and  C_24
REMARK    2  A    between atoms: C_6  and  O_31
REMARK    3  A    between atoms: C_9  and  O_21
REMARK    4  A    between atoms: C_24  and  C_25
REMARK    5  A    between atoms: C_25  and  O_26
REMARK    6  A    between atoms: O_26  and  C_28
REMARK    7  A    between atoms: C_28  and  C_29
REMARK    8  A    between atoms: O_31  and  C_33
REMARK    9  A    between atoms: C_33  and  O_34
REMARK   10  A    between atoms: O_34  and  C_35
REMARK                            x       y       z     vdW  Elec       q    Type
REMARK                         _______ _______ _______ _____ _____    ______ ____
ROOT
ATOM      1  O   UNL     1      27.829 -26.642 -14.632  0.00  0.00    -0.287 OA
ATOM      2  C   UNL     1      35.272 -23.229 -15.413  0.00  0.00    +0.043 C 
ATOM      3  C   UNL     1      34.581 -23.744 -14.131  0.00  0.00    +0.004 C 
ATOM      4  C   UNL     1      33.098 -23.357 -14.035  0.00  0.00    +0.003 C 
ATOM      5  C   UNL     1      32.336 -23.970 -15.263  0.00  0.00    +0.034 C 
ATOM      6  C   UNL     1      36.716 -23.733 -15.144  0.00  0.00    +0.193 C 
ATOM      7  C   UNL     1      34.547 -23.863 -16.617  0.00  0.00    +0.033 C 
ATOM      8  C   UNL     1      35.531 -23.310 -13.018  0.00  0.00    +0.004 C 
ATOM      9  C   UNL     1      33.024 -23.603 -16.616  0.00  0.00    +0.111 C 
ATOM     10  C   UNL     1      30.778 -23.716 -15.186  0.00  0.00    +0.036 C 
ATOM     11  C   UNL     1      36.936 -23.466 -13.637  0.00  0.00    +0.048 C 
ATOM     12  C   UNL     1      32.499 -23.851 -12.705  0.00  0.00    +0.004 C 
ATOM     13  C   UNL     1      35.276 -21.679 -15.528  0.00  0.00    +0.004 C 
ATOM     14  C   UNL     1      30.998 -23.605 -12.619  0.00  0.00    +0.022 C 
ATOM     15  C   UNL     1      30.302 -24.206 -13.813  0.00  0.00    -0.038 C 
ATOM     16  C   UNL     1      30.374 -22.231 -15.331  0.00  0.00    +0.009 C 
ATOM     17  C   UNL     1      30.073 -24.459 -16.311  0.00  0.00    -0.020 C 
ATOM     18  C   UNL     1      29.359 -25.147 -13.643  0.00  0.00    +0.034 C 
ATOM     19  C   UNL     1      29.135 -25.398 -16.147  0.00  0.00    +0.038 C 
ATOM     20  C   UNL     1      28.703 -25.796 -14.795  0.00  0.00    +0.195 C 
ENDROOT
BRANCH   9  21
ATOM     21  O   UNL     1      32.771 -22.251 -16.973  0.00  0.00    -0.384 OA
ATOM     22  H   UNL     1      33.412 -21.969 -17.645  0.00  0.00    +0.210 HD
ENDBRANCH   9  21
BRANCH   6  24
ATOM     23  O   UNL     1      38.912 -23.560 -16.053  0.00  0.00    -0.288 OA
ATOM     24  C   UNL     1      37.768 -23.108 -16.010  0.00  0.00    +0.230 C 
BRANCH  24  25
ATOM     25  C   UNL     1      37.342 -21.900 -16.817  0.00  0.00    +0.276 C 
BRANCH  25  26
ATOM     26  O   UNL     1      37.179 -22.242 -18.178  0.00  0.00    -0.440 OA
BRANCH  26  28
ATOM     27  O   UNL     1      36.842 -20.177 -19.149  0.00  0.00    -0.250 OA
ATOM     28  C   UNL     1      36.499 -21.334 -18.954  0.00  0.00    +0.317 C 
BRANCH  28  29
ATOM     29  C   UNL     1      35.263 -21.985 -19.529  0.00  0.00    +0.110 C 
ATOM     30  C   UNL     1      34.203 -20.965 -19.909  0.00  0.00    +0.012 C 
ENDBRANCH  28  29
ENDBRANCH  26  28
ENDBRANCH  25  26
ENDBRANCH  24  25
ENDBRANCH   6  24
BRANCH   6  31
ATOM     31  O   UNL     1      36.832 -25.129 -15.398  0.00  0.00    -0.418 OA
BRANCH  31  33
ATOM     32  O   UNL     1      36.742 -26.151 -13.333  0.00  0.00    -0.203 OA
ATOM     33  C   UNL     1      37.329 -25.882 -14.372  0.00  0.00    +0.512 C 
BRANCH  33  34
ATOM     34  O   UNL     1      38.590 -26.277 -14.705  0.00  0.00    -0.418 OA
BRANCH  34  35
ATOM     35  C   UNL     1      39.619 -25.900 -13.785  0.00  0.00    +0.212 C 
ATOM     36  C   UNL     1      40.967 -26.241 -14.385  0.00  0.00    +0.051 C 
ENDBRANCH  34  35
ENDBRANCH  33  34
ENDBRANCH  31  33
ENDBRANCH   6  31
TORSDOF 10
ENDMDL
MODEL 7
REMARK VINA RESULT:      -3.6      2.000      3.059
REMARK  Name = 6714002
REMARK  10 active torsions:
REMARK  status: ('A' for Active; 'I' for Inactive)
REMARK    1  A    between atoms: C_6  and  C_24
REMARK    2  A    between atoms: C_6  and  O_31
REMARK    3  A    between atoms: C_9  and  O_21
REMARK    4  A    between atoms: C_24  and  C_25
REMARK    5  A    between atoms: C_25  and  O_26
REMARK    6  A    between atoms: O_26  and  C_28
REMARK    7  A    between atoms: C_28  and  C_29
REMARK    8  A    between atoms: O_31  and  C_33
REMARK    9  A    between atoms: C_33  and  O_34
REMARK   10  A    between atoms: O_34  and  C_35
REMARK                            x       y       z     vdW  Elec       q    Type
REMARK                         _______ _______ _______ _____ _____    ______ ____
ROOT
ATOM      1  O   UNL     1      33.837 -23.162 -12.850  0.00  0.00    -0.287 OA
ATOM      2  C   UNL     1      35.291 -20.371 -20.449  0.00  0.00    +0.043 C 
ATOM      3  C   UNL     1      33.931 -20.586 -19.749  0.00  0.00    +0.004 C 
ATOM      4  C   UNL     1      33.848 -21.900 -18.959  0.00  0.00    +0.003 C 
ATOM      5  C   UNL     1      34.958 -21.892 -17.848  0.00  0.00    +0.034 C 
ATOM      6  C   UNL     1      34.995 -19.029 -21.174  0.00  0.00    +0.193 C 
ATOM      7  C   UNL     1      36.375 -20.324 -19.354  0.00  0.00    +0.033 C 
ATOM      8  C   UNL     1      32.916 -20.326 -20.859  0.00  0.00    +0.004 C 
ATOM      9  C   UNL     1      36.367 -21.568 -18.437  0.00  0.00    +0.111 C 
ATOM     10  C   UNL     1      34.873 -23.161 -16.911  0.00  0.00    +0.036 C 
ATOM     11  C   UNL     1      33.546 -19.189 -21.690  0.00  0.00    +0.048 C 
ATOM     12  C   UNL     1      32.447 -22.070 -18.344  0.00  0.00    +0.004 C 
ATOM     13  C   UNL     1      35.620 -21.467 -21.501  0.00  0.00    +0.004 C 
ATOM     14  C   UNL     1      32.354 -23.295 -17.444  0.00  0.00    +0.022 C 
ATOM     15  C   UNL     1      33.433 -23.252 -16.392  0.00  0.00    -0.038 C 
ATOM     16  C   UNL     1      35.212 -24.492 -17.621  0.00  0.00    +0.009 C 
ATOM     17  C   UNL     1      35.864 -23.029 -15.764  0.00  0.00    -0.020 C 
ATOM     18  C   UNL     1      33.108 -23.248 -15.090  0.00  0.00    +0.034 C 
ATOM     19  C   UNL     1      35.546 -23.022 -14.465  0.00  0.00    +0.038 C 
ATOM     20  C   UNL     1      34.140 -23.146 -14.039  0.00  0.00    +0.195 C 
ENDROOT
BRANCH   9  21
ATOM     21  O   UNL     1      36.902 -22.681 -19.140  0.00  0.00    -0.384 OA
ATOM     22  H   UNL     1      36.283 -22.949 -19.837  0.00  0.00    +0.210 HD
ENDBRANCH   9  21
BRANCH   6  24
ATOM     23  O   UNL     1      37.171 -18.565 -22.025  0.00  0.00    -0.288 OA
ATOM     24  C   UNL     1      35.968 -18.676 -22.258  0.00  0.00    +0.230 C 
BRANCH  24  25
ATOM     25  C   UNL     1      35.387 -18.465 -23.640  0.00  0.00    +0.276 C 
BRANCH  25  26
ATOM     26  O   UNL     1      35.056 -17.107 -23.840  0.00  0.00    -0.440 OA
BRANCH  26  28
ATOM     27  O   UNL     1      34.757 -17.387 -26.110  0.00  0.00    -0.250 OA
ATOM     28  C   UNL     1      34.534 -16.785 -25.070  0.00  0.00    +0.317 C 
BRANCH  28  29
ATOM     29  C   UNL     1      33.640 -15.573 -24.939  0.00  0.00    +0.110 C 
ATOM     30  C   UNL     1      33.183 -15.051 -26.290  0.00  0.00    +0.012 C 
ENDBRANCH  28  29
ENDBRANCH  26  28
ENDBRANCH  25  26
ENDBRANCH  24  25
ENDBRANCH   6  24
BRANCH   6  31
ATOM     31  O   UNL     1      35.056 -17.930 -20.271  0.00  0.00    -0.418 OA
BRANCH  31  33
ATOM     32  O   UNL     1      33.110 -16.930 -21.000  0.00  0.00    -0.203 OA
ATOM     33  C   UNL     1      34.256 -16.865 -20.575  0.00  0.00    +0.512 C 
BRANCH  33  34
ATOM     34  O   UNL     1      34.955 -15.722 -20.326  0.00  0.00    -0.418 OA
BRANCH  34  35
ATOM     35  C   UNL     1      34.270 -14.502 -20.628  0.00  0.00    +0.212 C 
ATOM     36  C   UNL     1      34.495 -14.158 -22.086  0.00  0.00    +0.051 C 
ENDBRANCH  34  35
ENDBRANCH  33  34
ENDBRANCH  31  33
ENDBRANCH   6  31
TORSDOF 10
ENDMDL
MODEL 8
REMARK VINA RESULT:      -3.5      6.940      9.790
REMARK  Name = 6714002
REMARK  10 active torsions:
REMARK  status: ('A' for Active; 'I' for Inactive)
REMARK    1  A    between atoms: C_6  and  C_24
REMARK    2  A    between atoms: C_6  and  O_31
REMARK    3  A    between atoms: C_9  and  O_21
REMARK    4  A    between atoms: C_24  and  C_25
REMARK    5  A    between atoms: C_25  and  O_26
REMARK    6  A    between atoms: O_26  and  C_28
REMARK    7  A    between atoms: C_28  and  C_29
REMARK    8  A    between atoms: O_31  and  C_33
REMARK    9  A    between atoms: C_33  and  O_34
REMARK   10  A    between atoms: O_34  and  C_35
REMARK                            x       y       z     vdW  Elec       q    Type
REMARK                         _______ _______ _______ _____ _____    ______ ____
ROOT
ATOM      1  O   UNL     1      41.432 -24.326 -14.295  0.00  0.00    -0.287 OA
ATOM      2  C   UNL     1      33.216 -24.265 -14.684  0.00  0.00    +0.043 C 
ATOM      3  C   UNL     1      34.140 -23.441 -13.760  0.00  0.00    +0.004 C 
ATOM      4  C   UNL     1      35.298 -24.255 -13.164  0.00  0.00    +0.003 C 
ATOM      5  C   UNL     1      36.178 -24.815 -14.339  0.00  0.00    +0.034 C 
ATOM      6  C   UNL     1      32.167 -23.174 -15.033  0.00  0.00    +0.193 C 
ATOM      7  C   UNL     1      34.074 -24.781 -15.856  0.00  0.00    +0.033 C 
ATOM      8  C   UNL     1      33.166 -22.743 -12.815  0.00  0.00    +0.004 C 
ATOM      9  C   UNL     1      35.318 -25.574 -15.398  0.00  0.00    +0.111 C 
ATOM     10  C   UNL     1      37.461 -25.574 -13.814  0.00  0.00    +0.036 C 
ATOM     11  C   UNL     1      31.944 -22.423 -13.700  0.00  0.00    +0.048 C 
ATOM     12  C   UNL     1      36.134 -23.383 -12.210  0.00  0.00    +0.004 C 
ATOM     13  C   UNL     1      32.515 -25.445 -13.955  0.00  0.00    +0.004 C 
ATOM     14  C   UNL     1      37.369 -24.109 -11.694  0.00  0.00    +0.022 C 
ATOM     15  C   UNL     1      38.187 -24.631 -12.848  0.00  0.00    -0.038 C 
ATOM     16  C   UNL     1      37.151 -26.887 -13.060  0.00  0.00    +0.009 C 
ATOM     17  C   UNL     1      38.354 -25.958 -14.984  0.00  0.00    -0.020 C 
ATOM     18  C   UNL     1      39.459 -24.232 -13.010  0.00  0.00    +0.034 C 
ATOM     19  C   UNL     1      39.620 -25.563 -15.152  0.00  0.00    +0.038 C 
ATOM     20  C   UNL     1      40.265 -24.680 -14.163  0.00  0.00    +0.195 C 
ENDROOT
BRANCH   9  21
ATOM     21  O   UNL     1      34.919 -26.851 -14.921  0.00  0.00    -0.384 OA
ATOM     22  H   UNL     1      35.324 -27.013 -14.055  0.00  0.00    +0.210 HD
ENDBRANCH   9  21
BRANCH   6  24
ATOM     23  O   UNL     1      30.836 -24.827 -16.115  0.00  0.00    -0.288 OA
ATOM     24  C   UNL     1      30.897 -23.697 -15.632  0.00  0.00    +0.230 C 
BRANCH  24  25
ATOM     25  C   UNL     1      29.708 -22.760 -15.610  0.00  0.00    +0.276 C 
BRANCH  25  26
ATOM     26  O   UNL     1      29.189 -22.582 -16.910  0.00  0.00    -0.440 OA
BRANCH  26  28
ATOM     27  O   UNL     1      27.618 -24.103 -17.648  0.00  0.00    -0.250 OA
ATOM     28  C   UNL     1      27.909 -23.039 -17.120  0.00  0.00    +0.317 C 
BRANCH  28  29
ATOM     29  C   UNL     1      26.917 -22.025 -16.599  0.00  0.00    +0.110 C 
ATOM     30  C   UNL     1      26.195 -21.301 -17.722  0.00  0.00    +0.012 C 
ENDBRANCH  28  29
ENDBRANCH  26  28
ENDBRANCH  25  26
ENDBRANCH  24  25
ENDBRANCH   6  24
BRANCH   6  31
ATOM     31  O   UNL     1      32.671 -22.266 -16.008  0.00  0.00    -0.418 OA
BRANCH  31  33
ATOM     32  O   UNL     1      32.062 -23.254 -18.000  0.00  0.00    -0.203 OA
ATOM     33  C   UNL     1      32.908 -22.794 -17.245  0.00  0.00    +0.512 C 
BRANCH  33  34
ATOM     34  O   UNL     1      34.246 -22.720 -17.491  0.00  0.00    -0.418 OA
BRANCH  34  35
ATOM     35  C   UNL     1      34.610 -22.203 -18.776  0.00  0.00    +0.212 C 
ATOM     36  C   UNL     1      36.040 -21.711 -18.722  0.00  0.00    +0.051 C 
ENDBRANCH  34  35
ENDBRANCH  33  34
ENDBRANCH  31  33
ENDBRANCH   6  31
TORSDOF 10
ENDMDL
MODEL 9
REMARK VINA RESULT:      -3.4      4.969      9.084
REMARK  Name = 6714002
REMARK  10 active torsions:
REMARK  status: ('A' for Active; 'I' for Inactive)
REMARK    1  A    between atoms: C_6  and  C_24
REMARK    2  A    between atoms: C_6  and  O_31
REMARK    3  A    between atoms: C_9  and  O_21
REMARK    4  A    between atoms: C_24  and  C_25
REMARK    5  A    between atoms: C_25  and  O_26
REMARK    6  A    between atoms: O_26  and  C_28
REMARK    7  A    between atoms: C_28  and  C_29
REMARK    8  A    between atoms: O_31  and  C_33
REMARK    9  A    between atoms: C_33  and  O_34
REMARK   10  A    between atoms: O_34  and  C_35
REMARK                            x       y       z     vdW  Elec       q    Type
REMARK                         _______ _______ _______ _____ _____    ______ ____
ROOT
ATOM      1  O   UNL     1      34.489 -15.741 -19.940  0.00  0.00    -0.287 OA
ATOM      2  C   UNL     1      32.711  -8.779 -23.942  0.00  0.00    +0.043 C 
ATOM      3  C   UNL     1      31.942  -9.441 -22.778  0.00  0.00    +0.004 C 
ATOM      4  C   UNL     1      31.804 -10.964 -22.919  0.00  0.00    +0.003 C 
ATOM      5  C   UNL     1      33.240 -11.598 -22.960  0.00  0.00    +0.034 C 
ATOM      6  C   UNL     1      32.598  -7.292 -23.508  0.00  0.00    +0.193 C 
ATOM      7  C   UNL     1      34.133  -9.375 -23.956  0.00  0.00    +0.033 C 
ATOM      8  C   UNL     1      30.677  -8.594 -22.661  0.00  0.00    +0.004 C 
ATOM      9  C   UNL     1      34.146 -10.917 -24.035  0.00  0.00    +0.111 C 
ATOM     10  C   UNL     1      33.194 -13.178 -22.992  0.00  0.00    +0.036 C 
ATOM     11  C   UNL     1      31.151  -7.160 -22.978  0.00  0.00    +0.048 C 
ATOM     12  C   UNL     1      30.975 -11.540 -21.757  0.00  0.00    +0.004 C 
ATOM     13  C   UNL     1      32.021  -8.971 -25.321  0.00  0.00    +0.004 C 
ATOM     14  C   UNL     1      30.920 -13.061 -21.783  0.00  0.00    +0.022 C 
ATOM     15  C   UNL     1      32.314 -13.633 -21.822  0.00  0.00    -0.038 C 
ATOM     16  C   UNL     1      32.603 -13.765 -24.294  0.00  0.00    +0.009 C 
ATOM     17  C   UNL     1      34.602 -13.742 -22.873  0.00  0.00    -0.020 C 
ATOM     18  C   UNL     1      32.736 -14.452 -20.845  0.00  0.00    +0.034 C 
ATOM     19  C   UNL     1      35.029 -14.556 -21.903  0.00  0.00    +0.038 C 
ATOM     20  C   UNL     1      34.115 -14.979 -20.825  0.00  0.00    +0.195 C 
ENDROOT
BRANCH   9  21
ATOM     21  O   UNL     1      33.789 -11.330 -25.347  0.00  0.00    -0.384 OA
ATOM     22  H   UNL     1      34.566 -11.276 -25.925  0.00  0.00    +0.210 HD
ENDBRANCH   9  21
BRANCH   6  24
ATOM     23  O   UNL     1      32.050  -5.583 -25.076  0.00  0.00    -0.288 OA
ATOM     24  C   UNL     1      32.921  -6.300 -24.585  0.00  0.00    +0.230 C 
BRANCH  24  25
ATOM     25  C   UNL     1      34.368  -6.237 -25.027  0.00  0.00    +0.276 C 
BRANCH  25  26
ATOM     26  O   UNL     1      34.458  -6.187 -26.435  0.00  0.00    -0.440 OA
BRANCH  26  28
ATOM     27  O   UNL     1      36.229  -4.909 -27.177  0.00  0.00    -0.250 OA
ATOM     28  C   UNL     1      35.034  -5.058 -26.966  0.00  0.00    +0.317 C 
BRANCH  28  29
ATOM     29  C   UNL     1      33.965  -4.028 -27.249  0.00  0.00    +0.110 C 
ATOM     30  C   UNL     1      33.003  -4.485 -28.332  0.00  0.00    +0.012 C 
ENDBRANCH  28  29
ENDBRANCH  26  28
ENDBRANCH  25  26
ENDBRANCH  24  25
ENDBRANCH   6  24
BRANCH   6  31
ATOM     31  O   UNL     1      33.514  -6.988 -22.461  0.00  0.00    -0.418 OA
BRANCH  31  33
ATOM     32  O   UNL     1      32.325  -5.606 -21.049  0.00  0.00    -0.203 OA
ATOM     33  C   UNL     1      32.956  -6.632 -21.267  0.00  0.00    +0.512 C 
BRANCH  33  34
ATOM     34  O   UNL     1      33.223  -7.615 -20.361  0.00  0.00    -0.418 OA
BRANCH  34  35
ATOM     35  C   UNL     1      32.141  -7.967 -19.494  0.00  0.00    +0.212 C 
ATOM     36  C   UNL     1      32.135  -9.468 -19.296  0.00  0.00    +0.051 C 
ENDBRANCH  34  35
ENDBRANCH  33  34
ENDBRANCH  31  33
ENDBRANCH   6  31
TORSDOF 10
ENDMDL
