MODEL 1
REMARK VINA RESULT:     -10.1      0.000      0.000
REMARK  Name = 119828
REMARK  5 active torsions:
REMARK  status: ('A' for Active; 'I' for Inactive)
REMARK    1  A    between atoms: C_1  and  C_9
REMARK    2  A    between atoms: C_2  and  S_19
REMARK    3  A    between atoms: C_10  and  C_13
REMARK    4  A    between atoms: S_19  and  N_23
REMARK    5  A    between atoms: C_24  and  C_26
REMARK                            x       y       z     vdW  Elec       q    Type
REMARK                         _______ _______ _______ _____ _____    ______ ____
ROOT
ATOM      1  C   UNL     1      33.486 -12.197 -24.441  0.00  0.00    +0.004 C 
ATOM      2  C   UNL     1      33.576  -9.621 -23.432  0.00  0.00    +0.125 C 
ATOM      3  C   UNL     1      34.444 -11.298 -24.910  0.00  0.00    +0.002 C 
ATOM      4  C   UNL     1      32.574 -11.798 -23.465  0.00  0.00    +0.002 C 
ATOM      5  C   UNL     1      34.490 -10.000 -24.400  0.00  0.00    +0.020 C 
ATOM      6  C   UNL     1      32.618 -10.500 -22.957  0.00  0.00    +0.020 C 
ENDROOT
BRANCH   1   9
ATOM      7  O   UNL     1      33.306 -15.183 -26.453  0.00  0.00    -0.358 OA
ATOM      8  N   UNL     1      33.421 -15.794 -25.210  0.00  0.00    -0.077 NA
ATOM      9  C   UNL     1      33.440 -13.534 -24.964  0.00  0.00    +0.054 A 
ATOM     10  C   UNL     1      33.499 -14.786 -24.336  0.00  0.00    +0.123 A 
ATOM     11  C   UNL     1      33.319 -13.835 -26.292  0.00  0.00    +0.155 A 
ATOM     12  C   UNL     1      33.205 -13.037 -27.522  0.00  0.00    +0.075 C 
BRANCH  10  13
ATOM     13  C   UNL     1      33.629 -15.059 -22.928  0.00  0.00    +0.021 C 
ATOM     14  C   UNL     1      32.645 -14.622 -22.044  0.00  0.00    +0.002 C 
ATOM     15  C   UNL     1      34.737 -15.758 -22.455  0.00  0.00    +0.002 C 
ATOM     16  C   UNL     1      32.771 -14.886 -20.680  0.00  0.00    +0.000 C 
ATOM     17  C   UNL     1      34.863 -16.023 -21.092  0.00  0.00    +0.000 C 
ATOM     18  C   UNL     1      33.880 -15.586 -20.203  0.00  0.00    +0.000 C 
ENDBRANCH  10  13
ENDBRANCH   1   9
BRANCH   2  19
ATOM     19  S   UNL     1      33.634  -7.976 -22.788  0.00  0.00    +0.076 S 
ATOM     20  O   UNL     1      34.975  -7.481 -23.028  0.00  0.00    -0.150 OA
ATOM     21  O   UNL     1      33.084  -7.995 -21.447  0.00  0.00    -0.150 OA
BRANCH  19  23
ATOM     22  O   UNL     1      32.060  -5.295 -22.520  0.00  0.00    -0.274 OA
ATOM     23  N   UNL     1      32.542  -7.178 -23.837  0.00  0.00    -0.185 N 
ATOM     24  C   UNL     1      31.879  -5.942 -23.545  0.00  0.00    +0.241 C 
ATOM     25  H   UNL     1      32.355  -7.601 -24.705  0.00  0.00    +0.177 HD
BRANCH  24  26
ATOM     26  C   UNL     1      30.902  -5.508 -24.610  0.00  0.00    +0.087 C 
ATOM     27  C   UNL     1      31.316  -4.174 -25.200  0.00  0.00    +0.010 C 
ENDBRANCH  24  26
ENDBRANCH  19  23
ENDBRANCH   2  19
TORSDOF 5
ENDMDL
MODEL 2
REMARK VINA RESULT:     -10.1      0.026      1.340
REMARK  Name = 119828
REMARK  5 active torsions:
REMARK  status: ('A' for Active; 'I' for Inactive)
REMARK    1  A    between atoms: C_1  and  C_9
REMARK    2  A    between atoms: C_2  and  S_19
REMARK    3  A    between atoms: C_10  and  C_13
REMARK    4  A    between atoms: S_19  and  N_23
REMARK    5  A    between atoms: C_24  and  C_26
REMARK                            x       y       z     vdW  Elec       q    Type
REMARK                         _______ _______ _______ _____ _____    ______ ____
ROOT
ATOM      1  C   UNL     1      33.487 -12.192 -24.444  0.00  0.00    +0.004 C 
ATOM      2  C   UNL     1      33.584  -9.617 -23.434  0.00  0.00    +0.125 C 
ATOM      3  C   UNL     1      32.566 -11.788 -23.478  0.00  0.00    +0.002 C 
ATOM      4  C   UNL     1      34.457 -11.300 -24.900  0.00  0.00    +0.002 C 
ATOM      5  C   UNL     1      32.614 -10.489 -22.970  0.00  0.00    +0.020 C 
ATOM      6  C   UNL     1      34.506 -10.003 -24.391  0.00  0.00    +0.020 C 
ENDROOT
BRANCH   1   9
ATOM      7  O   UNL     1      33.294 -15.175 -26.460  0.00  0.00    -0.358 OA
ATOM      8  N   UNL     1      33.412 -15.788 -25.219  0.00  0.00    -0.077 NA
ATOM      9  C   UNL     1      33.436 -13.529 -24.969  0.00  0.00    +0.054 A 
ATOM     10  C   UNL     1      33.496 -14.782 -24.343  0.00  0.00    +0.123 A 
ATOM     11  C   UNL     1      33.310 -13.827 -26.297  0.00  0.00    +0.155 A 
ATOM     12  C   UNL     1      33.192 -13.027 -27.525  0.00  0.00    +0.075 C 
BRANCH  10  13
ATOM     13  C   UNL     1      33.631 -15.057 -22.937  0.00  0.00    +0.021 C 
ATOM     14  C   UNL     1      34.739 -15.761 -22.470  0.00  0.00    +0.002 C 
ATOM     15  C   UNL     1      32.652 -14.621 -22.047  0.00  0.00    +0.002 C 
ATOM     16  C   UNL     1      34.869 -16.028 -21.107  0.00  0.00    +0.000 C 
ATOM     17  C   UNL     1      32.782 -14.887 -20.684  0.00  0.00    +0.000 C 
ATOM     18  C   UNL     1      33.891 -15.592 -20.214  0.00  0.00    +0.000 C 
ENDBRANCH  10  13
ENDBRANCH   1   9
BRANCH   2  19
ATOM     19  S   UNL     1      33.646  -7.973 -22.788  0.00  0.00    +0.076 S 
ATOM     20  O   UNL     1      34.988  -7.480 -23.026  0.00  0.00    -0.150 OA
ATOM     21  O   UNL     1      33.095  -7.993 -21.447  0.00  0.00    -0.150 OA
BRANCH  19  23
ATOM     22  O   UNL     1      32.014  -5.331 -22.482  0.00  0.00    -0.274 OA
ATOM     23  N   UNL     1      32.556  -7.171 -23.836  0.00  0.00    -0.185 N 
ATOM     24  C   UNL     1      31.864  -5.956 -23.526  0.00  0.00    +0.241 C 
ATOM     25  H   UNL     1      32.393  -7.576 -24.718  0.00  0.00    +0.177 HD
BRANCH  24  26
ATOM     26  C   UNL     1      30.897  -5.515 -24.597  0.00  0.00    +0.087 C 
ATOM     27  C   UNL     1      31.367  -4.226 -25.241  0.00  0.00    +0.010 C 
ENDBRANCH  24  26
ENDBRANCH  19  23
ENDBRANCH   2  19
TORSDOF 5
ENDMDL
MODEL 3
REMARK VINA RESULT:     -10.0      2.528      3.271
REMARK  Name = 119828
REMARK  5 active torsions:
REMARK  status: ('A' for Active; 'I' for Inactive)
REMARK    1  A    between atoms: C_1  and  C_9
REMARK    2  A    between atoms: C_2  and  S_19
REMARK    3  A    between atoms: C_10  and  C_13
REMARK    4  A    between atoms: S_19  and  N_23
REMARK    5  A    between atoms: C_24  and  C_26
REMARK                            x       y       z     vdW  Elec       q    Type
REMARK                         _______ _______ _______ _____ _____    ______ ____
ROOT
ATOM      1  C   UNL     1      33.031 -13.950 -23.648  0.00  0.00    +0.004 C 
ATOM      2  C   UNL     1      32.091 -12.175 -21.743  0.00  0.00    +0.125 C 
ATOM      3  C   UNL     1      33.139 -12.576 -23.862  0.00  0.00    +0.002 C 
ATOM      4  C   UNL     1      32.448 -14.429 -22.475  0.00  0.00    +0.002 C 
ATOM      5  C   UNL     1      32.667 -11.681 -22.901  0.00  0.00    +0.020 C 
ATOM      6  C   UNL     1      31.974 -13.535 -21.515  0.00  0.00    +0.020 C 
ENDROOT
BRANCH   1   9
ATOM      7  O   UNL     1      33.966 -15.730 -26.640  0.00  0.00    -0.358 OA
ATOM      8  N   UNL     1      34.460 -16.639 -25.712  0.00  0.00    -0.077 NA
ATOM      9  C   UNL     1      33.519 -14.871 -24.636  0.00  0.00    +0.054 A 
ATOM     10  C   UNL     1      34.180 -16.102 -24.521  0.00  0.00    +0.123 A 
ATOM     11  C   UNL     1      33.408 -14.680 -25.985  0.00  0.00    +0.155 A 
ATOM     12  C   UNL     1      32.834 -13.623 -26.831  0.00  0.00    +0.075 C 
BRANCH  10  13
ATOM     13  C   UNL     1      34.556 -16.789 -23.312  0.00  0.00    +0.021 C 
ATOM     14  C   UNL     1      34.699 -18.175 -23.317  0.00  0.00    +0.002 C 
ATOM     15  C   UNL     1      34.775 -16.065 -22.142  0.00  0.00    +0.002 C 
ATOM     16  C   UNL     1      35.063 -18.839 -22.146  0.00  0.00    +0.000 C 
ATOM     17  C   UNL     1      35.140 -16.730 -20.971  0.00  0.00    +0.000 C 
ATOM     18  C   UNL     1      35.283 -18.118 -20.973  0.00  0.00    +0.000 C 
ENDBRANCH  10  13
ENDBRANCH   1   9
BRANCH   2  19
ATOM     19  S   UNL     1      31.492 -11.040 -20.527  0.00  0.00    +0.076 S 
ATOM     20  O   UNL     1      32.153 -11.376 -19.281  0.00  0.00    -0.150 OA
ATOM     21  O   UNL     1      30.045 -11.012 -20.610  0.00  0.00    -0.150 OA
BRANCH  19  23
ATOM     22  O   UNL     1      31.860  -8.241 -19.199  0.00  0.00    -0.274 OA
ATOM     23  N   UNL     1      32.122  -9.565 -21.120  0.00  0.00    -0.185 N 
ATOM     24  C   UNL     1      32.200  -8.346 -20.372  0.00  0.00    +0.241 C 
ATOM     25  H   UNL     1      32.456  -9.553 -22.046  0.00  0.00    +0.177 HD
BRANCH  24  26
ATOM     26  C   UNL     1      32.718  -7.173 -21.169  0.00  0.00    +0.087 C 
ATOM     27  C   UNL     1      33.414  -7.652 -22.428  0.00  0.00    +0.010 C 
ENDBRANCH  24  26
ENDBRANCH  19  23
ENDBRANCH   2  19
TORSDOF 5
ENDMDL
MODEL 4
REMARK VINA RESULT:      -9.8     12.867     16.573
REMARK  Name = 119828
REMARK  5 active torsions:
REMARK  status: ('A' for Active; 'I' for Inactive)
REMARK    1  A    between atoms: C_1  and  C_9
REMARK    2  A    between atoms: C_2  and  S_19
REMARK    3  A    between atoms: C_10  and  C_13
REMARK    4  A    between atoms: S_19  and  N_23
REMARK    5  A    between atoms: C_24  and  C_26
REMARK                            x       y       z     vdW  Elec       q    Type
REMARK                         _______ _______ _______ _____ _____    ______ ____
ROOT
ATOM      1  C   UNL     1      34.206 -23.956 -15.149  0.00  0.00    +0.004 C 
ATOM      2  C   UNL     1      36.145 -24.823 -13.374  0.00  0.00    +0.125 C 
ATOM      3  C   UNL     1      34.902 -25.137 -15.401  0.00  0.00    +0.002 C 
ATOM      4  C   UNL     1      34.488 -23.211 -14.004  0.00  0.00    +0.002 C 
ATOM      5  C   UNL     1      35.879 -25.576 -14.506  0.00  0.00    +0.020 C 
ATOM      6  C   UNL     1      35.465 -23.648 -13.110  0.00  0.00    +0.020 C 
ENDROOT
BRANCH   1   9
ATOM      7  O   UNL     1      31.179 -23.154 -16.936  0.00  0.00    -0.358 OA
ATOM      8  N   UNL     1      32.085 -22.590 -17.826  0.00  0.00    -0.077 NA
ATOM      9  C   UNL     1      33.199 -23.505 -16.069  0.00  0.00    +0.054 A 
ATOM     10  C   UNL     1      33.286 -22.813 -17.285  0.00  0.00    +0.123 A 
ATOM     11  C   UNL     1      31.857 -23.696 -15.892  0.00  0.00    +0.155 A 
ATOM     12  C   UNL     1      31.037 -24.338 -14.853  0.00  0.00    +0.075 C 
BRANCH  10  13
ATOM     13  C   UNL     1      34.476 -22.355 -17.953  0.00  0.00    +0.021 C 
ATOM     14  C   UNL     1      34.439 -22.063 -19.315  0.00  0.00    +0.002 C 
ATOM     15  C   UNL     1      35.662 -22.208 -17.236  0.00  0.00    +0.002 C 
ATOM     16  C   UNL     1      35.592 -21.620 -19.962  0.00  0.00    +0.000 C 
ATOM     17  C   UNL     1      36.815 -21.763 -17.883  0.00  0.00    +0.000 C 
ATOM     18  C   UNL     1      36.781 -21.470 -19.247  0.00  0.00    +0.000 C 
ENDBRANCH  10  13
ENDBRANCH   1   9
BRANCH   2  19
ATOM     19  S   UNL     1      37.384 -25.379 -12.242  0.00  0.00    +0.076 S 
ATOM     20  O   UNL     1      36.884 -26.601 -11.643  0.00  0.00    -0.150 OA
ATOM     21  O   UNL     1      37.773 -24.256 -11.412  0.00  0.00    -0.150 OA
BRANCH  19  23
ATOM     22  O   UNL     1      38.622 -23.823 -14.647  0.00  0.00    -0.274 OA
ATOM     23  N   UNL     1      38.660 -25.757 -13.317  0.00  0.00    -0.185 N 
ATOM     24  C   UNL     1      39.095 -24.927 -14.399  0.00  0.00    +0.241 C 
ATOM     25  H   UNL     1      39.131 -26.611 -13.181  0.00  0.00    +0.177 HD
BRANCH  24  26
ATOM     26  C   UNL     1      40.183 -25.545 -15.243  0.00  0.00    +0.087 C 
ATOM     27  C   UNL     1      40.970 -26.560 -14.436  0.00  0.00    +0.010 C 
ENDBRANCH  24  26
ENDBRANCH  19  23
ENDBRANCH   2  19
TORSDOF 5
ENDMDL
MODEL 5
REMARK VINA RESULT:      -9.8      3.751      8.957
REMARK  Name = 119828
REMARK  5 active torsions:
REMARK  status: ('A' for Active; 'I' for Inactive)
REMARK    1  A    between atoms: C_1  and  C_9
REMARK    2  A    between atoms: C_2  and  S_19
REMARK    3  A    between atoms: C_10  and  C_13
REMARK    4  A    between atoms: S_19  and  N_23
REMARK    5  A    between atoms: C_24  and  C_26
REMARK                            x       y       z     vdW  Elec       q    Type
REMARK                         _______ _______ _______ _____ _____    ______ ____
ROOT
ATOM      1  C   UNL     1      33.488 -13.711 -22.797  0.00  0.00    +0.004 C 
ATOM      2  C   UNL     1      34.504 -16.285 -22.820  0.00  0.00    +0.125 C 
ATOM      3  C   UNL     1      33.346 -14.506 -23.934  0.00  0.00    +0.002 C 
ATOM      4  C   UNL     1      34.143 -14.212 -21.672  0.00  0.00    +0.002 C 
ATOM      5  C   UNL     1      33.857 -15.804 -23.945  0.00  0.00    +0.020 C 
ATOM      6  C   UNL     1      34.655 -15.509 -21.684  0.00  0.00    +0.020 C 
ENDROOT
BRANCH   1   9
ATOM      7  O   UNL     1      31.802 -10.601 -22.101  0.00  0.00    -0.358 OA
ATOM      8  N   UNL     1      32.451 -10.212 -23.266  0.00  0.00    -0.077 NA
ATOM      9  C   UNL     1      32.960 -12.375 -22.784  0.00  0.00    +0.054 A 
ATOM     10  C   UNL     1      33.137 -11.291 -23.655  0.00  0.00    +0.123 A 
ATOM     11  C   UNL     1      32.114 -11.893 -21.824  0.00  0.00    +0.155 A 
ATOM     12  C   UNL     1      31.502 -12.459 -20.613  0.00  0.00    +0.075 C 
BRANCH  10  13
ATOM     13  C   UNL     1      33.940 -11.245 -24.850  0.00  0.00    +0.021 C 
ATOM     14  C   UNL     1      35.007 -10.353 -24.935  0.00  0.00    +0.002 C 
ATOM     15  C   UNL     1      33.645 -12.091 -25.917  0.00  0.00    +0.002 C 
ATOM     16  C   UNL     1      35.783 -10.309 -26.093  0.00  0.00    +0.000 C 
ATOM     17  C   UNL     1      34.422 -12.047 -27.075  0.00  0.00    +0.000 C 
ATOM     18  C   UNL     1      35.492 -11.155 -27.163  0.00  0.00    +0.000 C 
ENDBRANCH  10  13
ENDBRANCH   1   9
BRANCH   2  19
ATOM     19  S   UNL     1      35.153 -17.929 -22.836  0.00  0.00    +0.076 S 
ATOM     20  O   UNL     1      36.458 -17.869 -22.207  0.00  0.00    -0.150 OA
ATOM     21  O   UNL     1      35.004 -18.461 -24.176  0.00  0.00    -0.150 OA
BRANCH  19  23
ATOM     22  O   UNL     1      35.449 -20.450 -21.021  0.00  0.00    -0.274 OA
ATOM     23  N   UNL     1      34.057 -18.722 -21.787  0.00  0.00    -0.185 N 
ATOM     24  C   UNL     1      34.353 -19.901 -21.031  0.00  0.00    +0.241 C 
ATOM     25  H   UNL     1      33.156 -18.338 -21.698  0.00  0.00    +0.177 HD
BRANCH  24  26
ATOM     26  C   UNL     1      33.175 -20.440 -20.256  0.00  0.00    +0.087 C 
ATOM     27  C   UNL     1      33.592 -21.629 -19.413  0.00  0.00    +0.010 C 
ENDBRANCH  24  26
ENDBRANCH  19  23
ENDBRANCH   2  19
TORSDOF 5
ENDMDL
MODEL 6
REMARK VINA RESULT:      -9.8      1.604      2.501
REMARK  Name = 119828
REMARK  5 active torsions:
REMARK  status: ('A' for Active; 'I' for Inactive)
REMARK    1  A    between atoms: C_1  and  C_9
REMARK    2  A    between atoms: C_2  and  S_19
REMARK    3  A    between atoms: C_10  and  C_13
REMARK    4  A    between atoms: S_19  and  N_23
REMARK    5  A    between atoms: C_24  and  C_26
REMARK                            x       y       z     vdW  Elec       q    Type
REMARK                         _______ _______ _______ _____ _____    ______ ____
ROOT
ATOM      1  C   UNL     1      33.597 -12.357 -24.648  0.00  0.00    +0.004 C 
ATOM      2  C   UNL     1      33.697  -9.723 -23.803  0.00  0.00    +0.125 C 
ATOM      3  C   UNL     1      32.725 -11.910 -23.656  0.00  0.00    +0.002 C 
ATOM      4  C   UNL     1      34.521 -11.477 -25.213  0.00  0.00    +0.002 C 
ATOM      5  C   UNL     1      32.774 -10.581 -23.232  0.00  0.00    +0.020 C 
ATOM      6  C   UNL     1      34.571 -10.150 -24.787  0.00  0.00    +0.020 C 
ENDROOT
BRANCH   1   9
ATOM      7  O   UNL     1      33.426 -15.461 -26.473  0.00  0.00    -0.358 OA
ATOM      8  N   UNL     1      33.501 -15.994 -25.192  0.00  0.00    -0.077 NA
ATOM      9  C   UNL     1      33.546 -13.723 -25.087  0.00  0.00    +0.054 A 
ATOM     10  C   UNL     1      33.572 -14.934 -24.381  0.00  0.00    +0.123 A 
ATOM     11  C   UNL     1      33.454 -14.106 -26.397  0.00  0.00    +0.155 A 
ATOM     12  C   UNL     1      33.383 -13.386 -27.677  0.00  0.00    +0.075 C 
BRANCH  10  13
ATOM     13  C   UNL     1      33.662 -15.119 -22.956  0.00  0.00    +0.021 C 
ATOM     14  C   UNL     1      34.763 -15.775 -22.409  0.00  0.00    +0.002 C 
ATOM     15  C   UNL     1      32.646 -14.645 -22.128  0.00  0.00    +0.002 C 
ATOM     16  C   UNL     1      34.849 -15.954 -21.029  0.00  0.00    +0.000 C 
ATOM     17  C   UNL     1      32.733 -14.824 -20.748  0.00  0.00    +0.000 C 
ATOM     18  C   UNL     1      33.835 -15.480 -20.197  0.00  0.00    +0.000 C 
ENDBRANCH  10  13
ENDBRANCH   1   9
BRANCH   2  19
ATOM     19  S   UNL     1      33.760  -8.041 -23.263  0.00  0.00    +0.076 S 
ATOM     20  O   UNL     1      32.873  -7.290 -24.131  0.00  0.00    -0.150 OA
ATOM     21  O   UNL     1      35.152  -7.662 -23.125  0.00  0.00    -0.150 OA
BRANCH  19  23
ATOM     22  O   UNL     1      32.254  -5.976 -21.472  0.00  0.00    -0.274 OA
ATOM     23  N   UNL     1      33.052  -8.171 -21.711  0.00  0.00    -0.185 N 
ATOM     24  C   UNL     1      32.407  -7.101 -21.010  0.00  0.00    +0.241 C 
ATOM     25  H   UNL     1      33.091  -9.048 -21.265  0.00  0.00    +0.177 HD
BRANCH  24  26
ATOM     26  C   UNL     1      31.950  -7.471 -19.620  0.00  0.00    +0.087 C 
ATOM     27  C   UNL     1      31.887  -8.978 -19.464  0.00  0.00    +0.010 C 
ENDBRANCH  24  26
ENDBRANCH  19  23
ENDBRANCH   2  19
TORSDOF 5
ENDMDL
MODEL 7
REMARK VINA RESULT:      -9.8     13.329     16.747
REMARK  Name = 119828
REMARK  5 active torsions:
REMARK  status: ('A' for Active; 'I' for Inactive)
REMARK    1  A    between atoms: C_1  and  C_9
REMARK    2  A    between atoms: C_2  and  S_19
REMARK    3  A    between atoms: C_10  and  C_13
REMARK    4  A    between atoms: S_19  and  N_23
REMARK    5  A    between atoms: C_24  and  C_26
REMARK                            x       y       z     vdW  Elec       q    Type
REMARK                         _______ _______ _______ _____ _____    ______ ____
ROOT
ATOM      1  C   UNL     1      34.679 -23.607 -15.584  0.00  0.00    +0.004 C 
ATOM      2  C   UNL     1      36.427 -24.438 -13.606  0.00  0.00    +0.125 C 
ATOM      3  C   UNL     1      34.970 -24.963 -15.437  0.00  0.00    +0.002 C 
ATOM      4  C   UNL     1      35.270 -22.670 -14.736  0.00  0.00    +0.002 C 
ATOM      5  C   UNL     1      35.850 -25.382 -14.439  0.00  0.00    +0.020 C 
ATOM      6  C   UNL     1      36.151 -23.089 -13.740  0.00  0.00    +0.020 C 
ENDROOT
BRANCH   1   9
ATOM      7  O   UNL     1      33.067 -22.322 -18.542  0.00  0.00    -0.358 OA
ATOM      8  N   UNL     1      31.923 -22.687 -17.841  0.00  0.00    -0.077 NA
ATOM      9  C   UNL     1      33.771 -23.175 -16.610  0.00  0.00    +0.054 A 
ATOM     10  C   UNL     1      32.371 -23.195 -16.690  0.00  0.00    +0.123 A 
ATOM     11  C   UNL     1      34.162 -22.619 -17.797  0.00  0.00    +0.155 A 
ATOM     12  C   UNL     1      35.462 -22.291 -18.401  0.00  0.00    +0.075 C 
BRANCH  10  13
ATOM     13  C   UNL     1      31.442 -23.681 -15.704  0.00  0.00    +0.021 C 
ATOM     14  C   UNL     1      30.359 -24.465 -16.098  0.00  0.00    +0.002 C 
ATOM     15  C   UNL     1      31.626 -23.366 -14.359  0.00  0.00    +0.002 C 
ATOM     16  C   UNL     1      29.459 -24.936 -15.143  0.00  0.00    +0.000 C 
ATOM     17  C   UNL     1      30.726 -23.838 -13.404  0.00  0.00    +0.000 C 
ATOM     18  C   UNL     1      29.641 -24.622 -13.796  0.00  0.00    +0.000 C 
ENDBRANCH  10  13
ENDBRANCH   1   9
BRANCH   2  19
ATOM     19  S   UNL     1      37.544 -24.970 -12.343  0.00  0.00    +0.076 S 
ATOM     20  O   UNL     1      36.885 -26.047 -11.630  0.00  0.00    -0.150 OA
ATOM     21  O   UNL     1      38.017 -23.798 -11.635  0.00  0.00    -0.150 OA
BRANCH  19  23
ATOM     22  O   UNL     1      38.950 -23.948 -14.934  0.00  0.00    -0.274 OA
ATOM     23  N   UNL     1      38.818 -25.615 -13.286  0.00  0.00    -0.185 N 
ATOM     24  C   UNL     1      39.338 -25.018 -14.480  0.00  0.00    +0.241 C 
ATOM     25  H   UNL     1      39.224 -26.459 -12.986  0.00  0.00    +0.177 HD
BRANCH  24  26
ATOM     26  C   UNL     1      40.402 -25.844 -15.161  0.00  0.00    +0.087 C 
ATOM     27  C   UNL     1      41.036 -26.809 -14.178  0.00  0.00    +0.010 C 
ENDBRANCH  24  26
ENDBRANCH  19  23
ENDBRANCH   2  19
TORSDOF 5
ENDMDL
MODEL 8
REMARK VINA RESULT:      -9.5      9.963     13.973
REMARK  Name = 119828
REMARK  5 active torsions:
REMARK  status: ('A' for Active; 'I' for Inactive)
REMARK    1  A    between atoms: C_1  and  C_9
REMARK    2  A    between atoms: C_2  and  S_19
REMARK    3  A    between atoms: C_10  and  C_13
REMARK    4  A    between atoms: S_19  and  N_23
REMARK    5  A    between atoms: C_24  and  C_26
REMARK                            x       y       z     vdW  Elec       q    Type
REMARK                         _______ _______ _______ _____ _____    ______ ____
ROOT
ATOM      1  C   UNL     1      34.565 -23.052 -16.062  0.00  0.00    +0.004 C 
ATOM      2  C   UNL     1      35.439 -21.993 -18.466  0.00  0.00    +0.125 C 
ATOM      3  C   UNL     1      35.831 -22.474 -16.149  0.00  0.00    +0.002 C 
ATOM      4  C   UNL     1      33.740 -23.097 -17.186  0.00  0.00    +0.002 C 
ATOM      5  C   UNL     1      36.271 -21.939 -17.361  0.00  0.00    +0.020 C 
ATOM      6  C   UNL     1      34.180 -22.564 -18.397  0.00  0.00    +0.020 C 
ENDROOT
BRANCH   1   9
ATOM      7  O   UNL     1      32.736 -24.088 -13.133  0.00  0.00    -0.358 OA
ATOM      8  N   UNL     1      33.956 -24.672 -12.816  0.00  0.00    -0.077 NA
ATOM      9  C   UNL     1      34.110 -23.601 -14.815  0.00  0.00    +0.054 A 
ATOM     10  C   UNL     1      34.761 -24.366 -13.838  0.00  0.00    +0.123 A 
ATOM     11  C   UNL     1      32.841 -23.452 -14.328  0.00  0.00    +0.155 A 
ATOM     12  C   UNL     1      31.627 -22.777 -14.809  0.00  0.00    +0.075 C 
BRANCH  10  13
ATOM     13  C   UNL     1      36.128 -24.819 -13.842  0.00  0.00    +0.021 C 
ATOM     14  C   UNL     1      37.046 -24.264 -12.953  0.00  0.00    +0.002 C 
ATOM     15  C   UNL     1      36.529 -25.810 -14.735  0.00  0.00    +0.002 C 
ATOM     16  C   UNL     1      38.370 -24.702 -12.957  0.00  0.00    +0.000 C 
ATOM     17  C   UNL     1      37.853 -26.249 -14.739  0.00  0.00    +0.000 C 
ATOM     18  C   UNL     1      38.774 -25.695 -13.850  0.00  0.00    +0.000 C 
ENDBRANCH  10  13
ENDBRANCH   1   9
BRANCH   2  19
ATOM     19  S   UNL     1      35.998 -21.317 -20.000  0.00  0.00    +0.076 S 
ATOM     20  O   UNL     1      35.756 -22.325 -21.014  0.00  0.00    -0.150 OA
ATOM     21  O   UNL     1      37.329 -20.779 -19.799  0.00  0.00    -0.150 OA
BRANCH  19  23
ATOM     22  O   UNL     1      35.957 -18.899 -21.972  0.00  0.00    -0.274 OA
ATOM     23  N   UNL     1      34.893 -20.028 -20.210  0.00  0.00    -0.185 N 
ATOM     24  C   UNL     1      35.037 -18.970 -21.165  0.00  0.00    +0.241 C 
ATOM     25  H   UNL     1      34.097 -20.013 -19.630  0.00  0.00    +0.177 HD
BRANCH  24  26
ATOM     26  C   UNL     1      33.960 -17.917 -21.075  0.00  0.00    +0.087 C 
ATOM     27  C   UNL     1      34.570 -16.529 -21.113  0.00  0.00    +0.010 C 
ENDBRANCH  24  26
ENDBRANCH  19  23
ENDBRANCH   2  19
TORSDOF 5
ENDMDL
MODEL 9
REMARK VINA RESULT:      -9.3     12.886     16.340
REMARK  Name = 119828
REMARK  5 active torsions:
REMARK  status: ('A' for Active; 'I' for Inactive)
REMARK    1  A    between atoms: C_1  and  C_9
REMARK    2  A    between atoms: C_2  and  S_19
REMARK    3  A    between atoms: C_10  and  C_13
REMARK    4  A    between atoms: S_19  and  N_23
REMARK    5  A    between atoms: C_24  and  C_26
REMARK                            x       y       z     vdW  Elec       q    Type
REMARK                         _______ _______ _______ _____ _____    ______ ____
ROOT
ATOM      1  C   UNL     1      34.786 -23.598 -16.404  0.00  0.00    +0.004 C 
ATOM      2  C   UNL     1      36.941 -24.636 -15.011  0.00  0.00    +0.125 C 
ATOM      3  C   UNL     1      34.675 -24.835 -15.770  0.00  0.00    +0.002 C 
ATOM      4  C   UNL     1      35.982 -22.884 -16.337  0.00  0.00    +0.002 C 
ATOM      5  C   UNL     1      35.761 -25.358 -15.066  0.00  0.00    +0.020 C 
ATOM      6  C   UNL     1      37.068 -23.407 -15.635  0.00  0.00    +0.020 C 
ENDROOT
BRANCH   1   9
ATOM      7  O   UNL     1      32.529 -22.066 -18.762  0.00  0.00    -0.358 OA
ATOM      8  N   UNL     1      31.596 -22.394 -17.786  0.00  0.00    -0.077 NA
ATOM      9  C   UNL     1      33.668 -23.058 -17.127  0.00  0.00    +0.054 A 
ATOM     10  C   UNL     1      32.302 -22.986 -16.818  0.00  0.00    +0.123 A 
ATOM     11  C   UNL     1      33.761 -22.468 -18.357  0.00  0.00    +0.155 A 
ATOM     12  C   UNL     1      34.868 -22.193 -19.285  0.00  0.00    +0.075 C 
BRANCH  10  13
ATOM     13  C   UNL     1      31.642 -23.462 -15.630  0.00  0.00    +0.021 C 
ATOM     14  C   UNL     1      30.736 -24.517 -15.716  0.00  0.00    +0.002 C 
ATOM     15  C   UNL     1      31.911 -22.866 -14.400  0.00  0.00    +0.002 C 
ATOM     16  C   UNL     1      30.096 -24.977 -14.565  0.00  0.00    +0.000 C 
ATOM     17  C   UNL     1      31.272 -23.328 -13.249  0.00  0.00    +0.000 C 
ATOM     18  C   UNL     1      30.364 -24.383 -13.331  0.00  0.00    +0.000 C 
ENDBRANCH  10  13
ENDBRANCH   1   9
BRANCH   2  19
ATOM     19  S   UNL     1      38.316 -25.300 -14.121  0.00  0.00    +0.076 S 
ATOM     20  O   UNL     1      39.428 -24.393 -14.334  0.00  0.00    -0.150 OA
ATOM     21  O   UNL     1      38.436 -26.705 -14.456  0.00  0.00    -0.150 OA
BRANCH  19  23
ATOM     22  O   UNL     1      37.125 -22.888 -12.540  0.00  0.00    -0.274 OA
ATOM     23  N   UNL     1      37.765 -25.147 -12.508  0.00  0.00    -0.185 N 
ATOM     24  C   UNL     1      37.258 -23.940 -11.925  0.00  0.00    +0.241 C 
ATOM     25  H   UNL     1      37.798 -25.949 -11.939  0.00  0.00    +0.177 HD
BRANCH  24  26
ATOM     26  C   UNL     1      36.925 -24.066 -10.459  0.00  0.00    +0.087 C 
ATOM     27  C   UNL     1      35.466 -24.436 -10.275  0.00  0.00    +0.010 C 
ENDBRANCH  24  26
ENDBRANCH  19  23
ENDBRANCH   2  19
TORSDOF 5
ENDMDL
