MODEL 1
REMARK VINA RESULT:     -11.3      0.000      0.000
REMARK  Name = 16124688
REMARK  3 active torsions:
REMARK  status: ('A' for Active; 'I' for Inactive)
REMARK    1  A    between atoms: N_3  and  N_16
REMARK    2  A    between atoms: C_17  and  C_19
REMARK    3  A    between atoms: C_24  and  C_28
REMARK                            x       y       z     vdW  Elec       q    Type
REMARK                         _______ _______ _______ _____ _____    ______ ____
ROOT
ATOM      1  O   UNL     1      34.925 -10.120 -24.397  0.00  0.00    -0.273 OA
ATOM      2  O   UNL     1      31.000 -11.193 -22.164  0.00  0.00    -0.273 OA
ATOM      3  N   UNL     1      33.042 -10.954 -23.283  0.00  0.00    -0.154 N 
ATOM      4  C   UNL     1      32.566  -6.388 -23.508  0.00  0.00    +0.000 C 
ATOM      5  C   UNL     1      31.280  -6.739 -22.778  0.00  0.00    +0.000 C 
ATOM      6  C   UNL     1      32.057  -5.502 -22.395  0.00  0.00    +0.000 C 
ATOM      7  C   UNL     1      33.601  -7.513 -23.338  0.00  0.00    +0.009 C 
ATOM      8  C   UNL     1      31.410  -8.111 -22.094  0.00  0.00    +0.009 C 
ATOM      9  C   UNL     1      32.951  -8.758 -24.020  0.00  0.00    +0.087 C 
ATOM     10  C   UNL     1      31.623  -9.120 -23.265  0.00  0.00    +0.087 C 
ATOM     11  C   UNL     1      33.797  -7.865 -21.867  0.00  0.00    +0.001 C 
ATOM     12  C   UNL     1      32.659  -8.175 -21.221  0.00  0.00    +0.001 C 
ATOM     13  C   UNL     1      33.794 -10.013 -23.947  0.00  0.00    +0.247 C 
ATOM     14  C   UNL     1      31.810 -10.554 -22.819  0.00  0.00    +0.247 C 
ENDROOT
BRANCH   3  16
ATOM     15  O   UNL     1      33.028 -12.847 -25.273  0.00  0.00    -0.269 OA
ATOM     16  N   UNL     1      33.497 -12.223 -23.093  0.00  0.00    -0.221 N 
ATOM     17  C   UNL     1      33.453 -13.114 -24.152  0.00  0.00    +0.262 C 
ATOM     18  H   UNL     1      33.850 -12.503 -22.218  0.00  0.00    +0.174 HD
BRANCH  17  19
ATOM     19  C   UNL     1      33.946 -14.487 -23.867  0.00  0.00    +0.055 C 
ATOM     20  C   UNL     1      34.428 -14.804 -22.598  0.00  0.00    +0.005 C 
ATOM     21  C   UNL     1      33.923 -15.459 -24.868  0.00  0.00    +0.005 C 
ATOM     22  C   UNL     1      34.889 -16.093 -22.329  0.00  0.00    +0.004 C 
ATOM     23  C   UNL     1      34.386 -16.747 -24.599  0.00  0.00    +0.004 C 
ATOM     24  C   UNL     1      34.868 -17.064 -23.329  0.00  0.00    +0.071 C 
BRANCH  24  28
ATOM     25  F   UNL     1      36.672 -18.488 -22.666  0.00  0.00    -0.166 F 
ATOM     26  F   UNL     1      34.678 -19.068 -22.037  0.00  0.00    -0.166 F 
ATOM     27  F   UNL     1      35.260 -19.271 -24.123  0.00  0.00    -0.166 F 
ATOM     28  C   UNL     1      35.360 -18.442 -23.042  0.00  0.00    +0.419 C 
ENDBRANCH  24  28
ENDBRANCH  17  19
ENDBRANCH   3  16
TORSDOF 3
ENDMDL
MODEL 2
REMARK VINA RESULT:     -10.0     13.870     16.306
REMARK  Name = 16124688
REMARK  3 active torsions:
REMARK  status: ('A' for Active; 'I' for Inactive)
REMARK    1  A    between atoms: N_3  and  N_16
REMARK    2  A    between atoms: C_17  and  C_19
REMARK    3  A    between atoms: C_24  and  C_28
REMARK                            x       y       z     vdW  Elec       q    Type
REMARK                         _______ _______ _______ _____ _____    ______ ____
ROOT
ATOM      1  O   UNL     1      36.513 -23.152 -16.652  0.00  0.00    -0.273 OA
ATOM      2  O   UNL     1      35.719 -23.691 -12.110  0.00  0.00    -0.273 OA
ATOM      3  N   UNL     1      35.834 -23.304 -14.416  0.00  0.00    -0.154 N 
ATOM      4  C   UNL     1      40.070 -25.069 -14.662  0.00  0.00    +0.000 C 
ATOM      5  C   UNL     1      39.811 -25.243 -13.175  0.00  0.00    +0.000 C 
ATOM      6  C   UNL     1      40.546 -26.312 -13.949  0.00  0.00    +0.000 C 
ATOM      7  C   UNL     1      38.740 -24.943 -15.425  0.00  0.00    +0.009 C 
ATOM      8  C   UNL     1      38.299 -25.242 -12.891  0.00  0.00    +0.009 C 
ATOM      9  C   UNL     1      38.082 -23.642 -14.865  0.00  0.00    +0.087 C 
ATOM     10  C   UNL     1      37.815 -23.824 -13.329  0.00  0.00    +0.087 C 
ATOM     11  C   UNL     1      37.800 -26.095 -15.089  0.00  0.00    +0.001 C 
ATOM     12  C   UNL     1      37.572 -26.251 -13.773  0.00  0.00    +0.001 C 
ATOM     13  C   UNL     1      36.727 -23.329 -15.461  0.00  0.00    +0.247 C 
ATOM     14  C   UNL     1      36.326 -23.602 -13.166  0.00  0.00    +0.247 C 
ENDROOT
BRANCH   3  16
ATOM     15  O   UNL     1      33.933 -25.205 -14.984  0.00  0.00    -0.269 OA
ATOM     16  N   UNL     1      34.522 -22.996 -14.609  0.00  0.00    -0.221 N 
ATOM     17  C   UNL     1      33.630 -24.018 -14.891  0.00  0.00    +0.262 C 
ATOM     18  H   UNL     1      34.211 -22.064 -14.549  0.00  0.00    +0.174 HD
BRANCH  17  19
ATOM     19  C   UNL     1      32.218 -23.607 -15.110  0.00  0.00    +0.055 C 
ATOM     20  C   UNL     1      31.798 -23.209 -16.379  0.00  0.00    +0.005 C 
ATOM     21  C   UNL     1      31.314 -23.621 -14.048  0.00  0.00    +0.005 C 
ATOM     22  C   UNL     1      30.473 -22.825 -16.586  0.00  0.00    +0.004 C 
ATOM     23  C   UNL     1      29.990 -23.236 -14.255  0.00  0.00    +0.004 C 
ATOM     24  C   UNL     1      29.569 -22.838 -15.524  0.00  0.00    +0.071 C 
BRANCH  24  28
ATOM     25  F   UNL     1      27.644 -21.651 -14.742  0.00  0.00    -0.166 F 
ATOM     26  F   UNL     1      27.965 -21.702 -16.887  0.00  0.00    -0.166 F 
ATOM     27  F   UNL     1      27.307 -23.495 -15.847  0.00  0.00    -0.166 F 
ATOM     28  C   UNL     1      28.152 -22.427 -15.745  0.00  0.00    +0.419 C 
ENDBRANCH  24  28
ENDBRANCH  17  19
ENDBRANCH   3  16
TORSDOF 3
ENDMDL
MODEL 3
REMARK VINA RESULT:      -9.9      8.445     11.072
REMARK  Name = 16124688
REMARK  3 active torsions:
REMARK  status: ('A' for Active; 'I' for Inactive)
REMARK    1  A    between atoms: N_3  and  N_16
REMARK    2  A    between atoms: C_17  and  C_19
REMARK    3  A    between atoms: C_24  and  C_28
REMARK                            x       y       z     vdW  Elec       q    Type
REMARK                         _______ _______ _______ _____ _____    ______ ____
ROOT
ATOM      1  O   UNL     1      36.418 -20.527 -19.454  0.00  0.00    -0.273 OA
ATOM      2  O   UNL     1      32.041 -20.280 -20.983  0.00  0.00    -0.273 OA
ATOM      3  N   UNL     1      34.136 -20.573 -19.979  0.00  0.00    -0.154 N 
ATOM      4  C   UNL     1      36.208 -18.019 -23.189  0.00  0.00    +0.000 C 
ATOM      5  C   UNL     1      34.776 -17.940 -23.692  0.00  0.00    +0.000 C 
ATOM      6  C   UNL     1      35.674 -16.728 -23.764  0.00  0.00    +0.000 C 
ATOM      7  C   UNL     1      36.231 -18.377 -21.694  0.00  0.00    +0.009 C 
ATOM      8  C   UNL     1      33.791 -18.241 -22.549  0.00  0.00    +0.009 C 
ATOM      9  C   UNL     1      35.583 -19.795 -21.614  0.00  0.00    +0.087 C 
ATOM     10  C   UNL     1      34.104 -19.712 -22.131  0.00  0.00    +0.087 C 
ATOM     11  C   UNL     1      35.342 -17.437 -20.888  0.00  0.00    +0.001 C 
ATOM     12  C   UNL     1      34.074 -17.366 -21.332  0.00  0.00    +0.001 C 
ATOM     13  C   UNL     1      35.473 -20.345 -20.209  0.00  0.00    +0.247 C 
ATOM     14  C   UNL     1      33.261 -20.221 -20.982  0.00  0.00    +0.247 C 
ENDROOT
BRANCH   3  16
ATOM     15  O   UNL     1      34.070 -23.285 -19.548  0.00  0.00    -0.269 OA
ATOM     16  N   UNL     1      33.698 -21.121 -18.813  0.00  0.00    -0.221 N 
ATOM     17  C   UNL     1      33.698 -22.500 -18.681  0.00  0.00    +0.262 C 
ATOM     18  H   UNL     1      33.385 -20.548 -18.076  0.00  0.00    +0.174 HD
BRANCH  17  19
ATOM     19  C   UNL     1      33.187 -23.029 -17.389  0.00  0.00    +0.055 C 
ATOM     20  C   UNL     1      34.080 -23.497 -16.425  0.00  0.00    +0.005 C 
ATOM     21  C   UNL     1      31.815 -23.055 -17.139  0.00  0.00    +0.005 C 
ATOM     22  C   UNL     1      33.601 -23.992 -15.213  0.00  0.00    +0.004 C 
ATOM     23  C   UNL     1      31.337 -23.552 -15.927  0.00  0.00    +0.004 C 
ATOM     24  C   UNL     1      32.230 -24.020 -14.963  0.00  0.00    +0.071 C 
BRANCH  24  28
ATOM     25  F   UNL     1      31.137 -23.597 -12.878  0.00  0.00    -0.166 F 
ATOM     26  F   UNL     1      30.768 -25.521 -13.810  0.00  0.00    -0.166 F 
ATOM     27  F   UNL     1      32.701 -25.108 -12.902  0.00  0.00    -0.166 F 
ATOM     28  C   UNL     1      31.717 -24.549 -13.666  0.00  0.00    +0.419 C 
ENDBRANCH  24  28
ENDBRANCH  17  19
ENDBRANCH   3  16
TORSDOF 3
ENDMDL
MODEL 4
REMARK VINA RESULT:      -9.8      4.289      6.274
REMARK  Name = 16124688
REMARK  3 active torsions:
REMARK  status: ('A' for Active; 'I' for Inactive)
REMARK    1  A    between atoms: N_3  and  N_16
REMARK    2  A    between atoms: C_17  and  C_19
REMARK    3  A    between atoms: C_24  and  C_28
REMARK                            x       y       z     vdW  Elec       q    Type
REMARK                         _______ _______ _______ _____ _____    ______ ____
ROOT
ATOM      1  O   UNL     1      34.426 -14.692 -20.598  0.00  0.00    -0.273 OA
ATOM      2  O   UNL     1      33.901 -17.115 -24.522  0.00  0.00    -0.273 OA
ATOM      3  N   UNL     1      34.167 -16.165 -22.399  0.00  0.00    -0.154 N 
ATOM      4  C   UNL     1      34.087 -11.905 -24.119  0.00  0.00    +0.000 C 
ATOM      5  C   UNL     1      33.917 -12.697 -25.404  0.00  0.00    +0.000 C 
ATOM      6  C   UNL     1      33.153 -11.411 -25.199  0.00  0.00    +0.000 C 
ATOM      7  C   UNL     1      33.665 -12.753 -22.908  0.00  0.00    +0.009 C 
ATOM      8  C   UNL     1      33.375 -14.104 -25.098  0.00  0.00    +0.009 C 
ATOM      9  C   UNL     1      34.660 -13.957 -22.900  0.00  0.00    +0.087 C 
ATOM     10  C   UNL     1      34.482 -14.776 -24.228  0.00  0.00    +0.087 C 
ATOM     11  C   UNL     1      32.268 -13.334 -23.099  0.00  0.00    +0.001 C 
ATOM     12  C   UNL     1      32.118 -14.035 -24.237  0.00  0.00    +0.001 C 
ATOM     13  C   UNL     1      34.412 -14.956 -21.791  0.00  0.00    +0.247 C 
ATOM     14  C   UNL     1      34.147 -16.181 -23.775  0.00  0.00    +0.247 C 
ENDROOT
BRANCH   3  16
ATOM     15  O   UNL     1      36.074 -18.122 -22.107  0.00  0.00    -0.269 OA
ATOM     16  N   UNL     1      33.954 -17.297 -21.672  0.00  0.00    -0.221 N 
ATOM     17  C   UNL     1      34.971 -18.232 -21.578  0.00  0.00    +0.262 C 
ATOM     18  H   UNL     1      33.092 -17.448 -21.222  0.00  0.00    +0.174 HD
BRANCH  17  19
ATOM     19  C   UNL     1      34.661 -19.452 -20.786  0.00  0.00    +0.055 C 
ATOM     20  C   UNL     1      35.697 -20.251 -20.303  0.00  0.00    +0.005 C 
ATOM     21  C   UNL     1      33.335 -19.795 -20.523  0.00  0.00    +0.005 C 
ATOM     22  C   UNL     1      35.407 -21.394 -19.559  0.00  0.00    +0.004 C 
ATOM     23  C   UNL     1      33.045 -20.939 -19.780  0.00  0.00    +0.004 C 
ATOM     24  C   UNL     1      34.082 -21.738 -19.298  0.00  0.00    +0.071 C 
BRANCH  24  28
ATOM     25  F   UNL     1      33.823 -24.116 -19.228  0.00  0.00    -0.166 F 
ATOM     26  F   UNL     1      34.623 -23.161 -17.452  0.00  0.00    -0.166 F 
ATOM     27  F   UNL     1      32.520 -22.927 -17.955  0.00  0.00    -0.166 F 
ATOM     28  C   UNL     1      33.771 -22.961 -18.501  0.00  0.00    +0.419 C 
ENDBRANCH  24  28
ENDBRANCH  17  19
ENDBRANCH   3  16
TORSDOF 3
ENDMDL
MODEL 5
REMARK VINA RESULT:      -9.8      1.390      2.780
REMARK  Name = 16124688
REMARK  3 active torsions:
REMARK  status: ('A' for Active; 'I' for Inactive)
REMARK    1  A    between atoms: N_3  and  N_16
REMARK    2  A    between atoms: C_17  and  C_19
REMARK    3  A    between atoms: C_24  and  C_28
REMARK                            x       y       z     vdW  Elec       q    Type
REMARK                         _______ _______ _______ _____ _____    ______ ____
ROOT
ATOM      1  O   UNL     1      30.623 -10.308 -22.639  0.00  0.00    -0.273 OA
ATOM      2  O   UNL     1      34.933  -8.892 -23.622  0.00  0.00    -0.273 OA
ATOM      3  N   UNL     1      32.860  -9.891 -23.187  0.00  0.00    -0.154 N 
ATOM      4  C   UNL     1      30.903  -5.824 -22.323  0.00  0.00    +0.000 C 
ATOM      5  C   UNL     1      32.314  -5.359 -22.643  0.00  0.00    +0.000 C 
ATOM      6  C   UNL     1      31.125  -4.556 -23.113  0.00  0.00    +0.000 C 
ATOM      7  C   UNL     1      30.645  -7.212 -22.933  0.00  0.00    +0.009 C 
ATOM      8  C   UNL     1      33.049  -6.421 -23.480  0.00  0.00    +0.009 C 
ATOM      9  C   UNL     1      31.665  -8.155 -22.222  0.00  0.00    +0.087 C 
ATOM     10  C   UNL     1      33.123  -7.675 -22.554  0.00  0.00    +0.087 C 
ATOM     11  C   UNL     1      30.983  -7.232 -24.420  0.00  0.00    +0.001 C 
ATOM     12  C   UNL     1      32.232  -6.821 -24.703  0.00  0.00    +0.001 C 
ATOM     13  C   UNL     1      31.612  -9.591 -22.694  0.00  0.00    +0.247 C 
ATOM     14  C   UNL     1      33.790  -8.876 -23.191  0.00  0.00    +0.247 C 
ENDROOT
BRANCH   3  16
ATOM     15  O   UNL     1      32.647 -12.144 -21.629  0.00  0.00    -0.269 OA
ATOM     16  N   UNL     1      33.164 -11.135 -23.648  0.00  0.00    -0.221 N 
ATOM     17  C   UNL     1      33.028 -12.216 -22.794  0.00  0.00    +0.262 C 
ATOM     18  H   UNL     1      33.475 -11.264 -24.573  0.00  0.00    +0.174 HD
BRANCH  17  19
ATOM     19  C   UNL     1      33.397 -13.541 -23.359  0.00  0.00    +0.055 C 
ATOM     20  C   UNL     1      33.017 -13.874 -24.659  0.00  0.00    +0.005 C 
ATOM     21  C   UNL     1      34.125 -14.450 -22.591  0.00  0.00    +0.005 C 
ATOM     22  C   UNL     1      33.364 -15.116 -25.190  0.00  0.00    +0.004 C 
ATOM     23  C   UNL     1      34.471 -15.692 -23.122  0.00  0.00    +0.004 C 
ATOM     24  C   UNL     1      34.091 -16.025 -24.422  0.00  0.00    +0.071 C 
BRANCH  24  28
ATOM     25  F   UNL     1      34.945 -18.230 -24.061  0.00  0.00    -0.166 F 
ATOM     26  F   UNL     1      33.420 -18.003 -25.588  0.00  0.00    -0.166 F 
ATOM     27  F   UNL     1      35.433 -17.261 -25.946  0.00  0.00    -0.166 F 
ATOM     28  C   UNL     1      34.463 -17.353 -24.990  0.00  0.00    +0.419 C 
ENDBRANCH  24  28
ENDBRANCH  17  19
ENDBRANCH   3  16
TORSDOF 3
ENDMDL
MODEL 6
REMARK VINA RESULT:      -9.8      4.464      8.946
REMARK  Name = 16124688
REMARK  3 active torsions:
REMARK  status: ('A' for Active; 'I' for Inactive)
REMARK    1  A    between atoms: N_3  and  N_16
REMARK    2  A    between atoms: C_17  and  C_19
REMARK    3  A    between atoms: C_24  and  C_28
REMARK                            x       y       z     vdW  Elec       q    Type
REMARK                         _______ _______ _______ _____ _____    ______ ____
ROOT
ATOM      1  O   UNL     1      33.207 -15.006 -20.698  0.00  0.00    -0.273 OA
ATOM      2  O   UNL     1      35.045 -15.739 -24.897  0.00  0.00    -0.273 OA
ATOM      3  N   UNL     1      34.123 -15.070 -22.852  0.00  0.00    -0.154 N 
ATOM      4  C   UNL     1      33.988 -19.398 -21.315  0.00  0.00    +0.000 C 
ATOM      5  C   UNL     1      34.588 -19.640 -22.690  0.00  0.00    +0.000 C 
ATOM      6  C   UNL     1      35.076 -20.431 -21.500  0.00  0.00    +0.000 C 
ATOM      7  C   UNL     1      34.218 -17.942 -20.878  0.00  0.00    +0.009 C 
ATOM      8  C   UNL     1      35.242 -18.352 -23.222  0.00  0.00    +0.009 C 
ATOM      9  C   UNL     1      33.444 -17.085 -21.930  0.00  0.00    +0.087 C 
ATOM     10  C   UNL     1      34.066 -17.334 -23.350  0.00  0.00    +0.087 C 
ATOM     11  C   UNL     1      35.690 -17.558 -20.990  0.00  0.00    +0.001 C 
ATOM     12  C   UNL     1      36.221 -17.772 -22.207  0.00  0.00    +0.001 C 
ATOM     13  C   UNL     1      33.556 -15.592 -21.713  0.00  0.00    +0.247 C 
ATOM     14  C   UNL     1      34.485 -15.963 -23.835  0.00  0.00    +0.247 C 
ENDROOT
BRANCH   3  16
ATOM     15  O   UNL     1      32.199 -13.400 -23.881  0.00  0.00    -0.269 OA
ATOM     16  N   UNL     1      34.316 -13.731 -23.002  0.00  0.00    -0.221 N 
ATOM     17  C   UNL     1      33.291 -12.962 -23.529  0.00  0.00    +0.262 C 
ATOM     18  H   UNL     1      35.169 -13.315 -22.740  0.00  0.00    +0.174 HD
BRANCH  17  19
ATOM     19  C   UNL     1      33.579 -11.512 -23.683  0.00  0.00    +0.055 C 
ATOM     20  C   UNL     1      32.808 -10.572 -22.999  0.00  0.00    +0.005 C 
ATOM     21  C   UNL     1      34.621 -11.091 -24.509  0.00  0.00    +0.005 C 
ATOM     22  C   UNL     1      33.080  -9.212 -23.142  0.00  0.00    +0.004 C 
ATOM     23  C   UNL     1      34.891  -9.730 -24.653  0.00  0.00    +0.004 C 
ATOM     24  C   UNL     1      34.120  -8.791 -23.968  0.00  0.00    +0.071 C 
BRANCH  24  28
ATOM     25  F   UNL     1      34.616  -6.951 -25.415  0.00  0.00    -0.166 F 
ATOM     26  F   UNL     1      33.409  -6.527 -23.662  0.00  0.00    -0.166 F 
ATOM     27  F   UNL     1      35.531  -6.950 -23.442  0.00  0.00    -0.166 F 
ATOM     28  C   UNL     1      34.411  -7.335 -24.121  0.00  0.00    +0.419 C 
ENDBRANCH  24  28
ENDBRANCH  17  19
ENDBRANCH   3  16
TORSDOF 3
ENDMDL
MODEL 7
REMARK VINA RESULT:      -9.4      9.349     14.249
REMARK  Name = 16124688
REMARK  3 active torsions:
REMARK  status: ('A' for Active; 'I' for Inactive)
REMARK    1  A    between atoms: N_3  and  N_16
REMARK    2  A    between atoms: C_17  and  C_19
REMARK    3  A    between atoms: C_24  and  C_28
REMARK                            x       y       z     vdW  Elec       q    Type
REMARK                         _______ _______ _______ _____ _____    ______ ____
ROOT
ATOM      1  O   UNL     1      38.891 -22.803 -16.299  0.00  0.00    -0.273 OA
ATOM      2  O   UNL     1      34.431 -22.320 -15.104  0.00  0.00    -0.273 OA
ATOM      3  N   UNL     1      36.623 -22.355 -15.927  0.00  0.00    -0.154 N 
ATOM      4  C   UNL     1      37.883 -25.557 -12.881  0.00  0.00    +0.000 C 
ATOM      5  C   UNL     1      36.424 -25.398 -12.488  0.00  0.00    +0.000 C 
ATOM      6  C   UNL     1      37.066 -26.765 -12.487  0.00  0.00    +0.000 C 
ATOM      7  C   UNL     1      38.104 -25.073 -14.324  0.00  0.00    +0.009 C 
ATOM      8  C   UNL     1      35.617 -24.803 -13.655  0.00  0.00    +0.009 C 
ATOM      9  C   UNL     1      37.747 -23.553 -14.293  0.00  0.00    +0.087 C 
ATOM     10  C   UNL     1      36.239 -23.390 -13.888  0.00  0.00    +0.087 C 
ATOM     11  C   UNL     1      37.126 -25.739 -15.285  0.00  0.00    +0.001 C 
ATOM     12  C   UNL     1      35.834 -25.599 -14.938  0.00  0.00    +0.001 C 
ATOM     13  C   UNL     1      37.867 -22.863 -15.634  0.00  0.00    +0.247 C 
ATOM     14  C   UNL     1      35.613 -22.619 -15.030  0.00  0.00    +0.247 C 
ENDROOT
BRANCH   3  16
ATOM     15  O   UNL     1      34.897 -23.168 -17.905  0.00  0.00    -0.269 OA
ATOM     16  N   UNL     1      36.400 -21.624 -17.053  0.00  0.00    -0.221 N 
ATOM     17  C   UNL     1      35.513 -22.109 -18.001  0.00  0.00    +0.262 C 
ATOM     18  H   UNL     1      36.861 -20.766 -17.193  0.00  0.00    +0.174 HD
BRANCH  17  19
ATOM     19  C   UNL     1      35.335 -21.269 -19.214  0.00  0.00    +0.055 C 
ATOM     20  C   UNL     1      34.059 -21.072 -19.744  0.00  0.00    +0.005 C 
ATOM     21  C   UNL     1      36.441 -20.676 -19.822  0.00  0.00    +0.005 C 
ATOM     22  C   UNL     1      33.891 -20.282 -20.881  0.00  0.00    +0.004 C 
ATOM     23  C   UNL     1      36.273 -19.888 -20.960  0.00  0.00    +0.004 C 
ATOM     24  C   UNL     1      34.998 -19.691 -21.489  0.00  0.00    +0.071 C 
BRANCH  24  28
ATOM     25  F   UNL     1      34.082 -19.447 -23.686  0.00  0.00    -0.166 F 
ATOM     26  F   UNL     1      34.184 -17.661 -22.459  0.00  0.00    -0.166 F 
ATOM     27  F   UNL     1      36.005 -18.510 -23.291  0.00  0.00    -0.166 F 
ATOM     28  C   UNL     1      34.818 -18.846 -22.705  0.00  0.00    +0.419 C 
ENDBRANCH  24  28
ENDBRANCH  17  19
ENDBRANCH   3  16
TORSDOF 3
ENDMDL
MODEL 8
REMARK VINA RESULT:      -9.3      8.354     11.028
REMARK  Name = 16124688
REMARK  3 active torsions:
REMARK  status: ('A' for Active; 'I' for Inactive)
REMARK    1  A    between atoms: N_3  and  N_16
REMARK    2  A    between atoms: C_17  and  C_19
REMARK    3  A    between atoms: C_24  and  C_28
REMARK                            x       y       z     vdW  Elec       q    Type
REMARK                         _______ _______ _______ _____ _____    ______ ____
ROOT
ATOM      1  O   UNL     1      37.315 -20.294 -20.266  0.00  0.00    -0.273 OA
ATOM      2  O   UNL     1      32.679 -20.399 -20.055  0.00  0.00    -0.273 OA
ATOM      3  N   UNL     1      35.012 -20.508 -19.899  0.00  0.00    -0.154 N 
ATOM      4  C   UNL     1      35.543 -18.001 -23.714  0.00  0.00    +0.000 C 
ATOM      5  C   UNL     1      34.026 -18.036 -23.647  0.00  0.00    +0.000 C 
ATOM      6  C   UNL     1      34.737 -16.777 -24.080  0.00  0.00    +0.000 C 
ATOM      7  C   UNL     1      36.147 -18.278 -22.326  0.00  0.00    +0.009 C 
ATOM      8  C   UNL     1      33.561 -18.338 -22.211  0.00  0.00    +0.009 C 
ATOM      9  C   UNL     1      35.686 -19.728 -21.975  0.00  0.00    +0.087 C 
ATOM     10  C   UNL     1      34.118 -19.763 -21.905  0.00  0.00    +0.087 C 
ATOM     11  C   UNL     1      35.550 -17.355 -21.270  0.00  0.00    +0.001 C 
ATOM     12  C   UNL     1      34.207 -17.386 -21.211  0.00  0.00    +0.001 C 
ATOM     13  C   UNL     1      36.147 -20.211 -20.617  0.00  0.00    +0.247 C 
ATOM     14  C   UNL     1      33.804 -20.264 -20.511  0.00  0.00    +0.247 C 
ENDROOT
BRANCH   3  16
ATOM     15  O   UNL     1      34.568 -23.164 -19.355  0.00  0.00    -0.269 OA
ATOM     16  N   UNL     1      35.080 -21.022 -18.641  0.00  0.00    -0.221 N 
ATOM     17  C   UNL     1      34.842 -22.374 -18.456  0.00  0.00    +0.262 C 
ATOM     18  H   UNL     1      35.296 -20.442 -17.874  0.00  0.00    +0.174 HD
BRANCH  17  19
ATOM     19  C   UNL     1      34.913 -22.861 -17.053  0.00  0.00    +0.055 C 
ATOM     20  C   UNL     1      36.088 -22.700 -16.319  0.00  0.00    +0.005 C 
ATOM     21  C   UNL     1      33.805 -23.476 -16.470  0.00  0.00    +0.005 C 
ATOM     22  C   UNL     1      36.155 -23.155 -15.002  0.00  0.00    +0.004 C 
ATOM     23  C   UNL     1      33.873 -23.931 -15.154  0.00  0.00    +0.004 C 
ATOM     24  C   UNL     1      35.048 -23.771 -14.420  0.00  0.00    +0.071 C 
BRANCH  24  28
ATOM     25  F   UNL     1      35.992 -25.292 -12.833  0.00  0.00    -0.166 F 
ATOM     26  F   UNL     1      35.514 -23.298 -12.122  0.00  0.00    -0.166 F 
ATOM     27  F   UNL     1      33.916 -24.709 -12.551  0.00  0.00    -0.166 F 
ATOM     28  C   UNL     1      35.119 -24.257 -13.012  0.00  0.00    +0.419 C 
ENDBRANCH  24  28
ENDBRANCH  17  19
ENDBRANCH   3  16
TORSDOF 3
ENDMDL
MODEL 9
REMARK VINA RESULT:      -9.3      5.229      8.819
REMARK  Name = 16124688
REMARK  3 active torsions:
REMARK  status: ('A' for Active; 'I' for Inactive)
REMARK    1  A    between atoms: N_3  and  N_16
REMARK    2  A    between atoms: C_17  and  C_19
REMARK    3  A    between atoms: C_24  and  C_28
REMARK                            x       y       z     vdW  Elec       q    Type
REMARK                         _______ _______ _______ _____ _____    ______ ____
ROOT
ATOM      1  O   UNL     1      31.897 -12.464 -20.175  0.00  0.00    -0.273 OA
ATOM      2  O   UNL     1      32.676 -13.309 -24.673  0.00  0.00    -0.273 OA
ATOM      3  N   UNL     1      32.185 -12.605 -22.495  0.00  0.00    -0.154 N 
ATOM      4  C   UNL     1      33.671 -16.570 -20.709  0.00  0.00    +0.000 C 
ATOM      5  C   UNL     1      33.925 -16.848 -22.181  0.00  0.00    +0.000 C 
ATOM      6  C   UNL     1      34.912 -17.317 -21.139  0.00  0.00    +0.000 C 
ATOM      7  C   UNL     1      33.596 -15.055 -20.455  0.00  0.00    +0.009 C 
ATOM      8  C   UNL     1      34.029 -15.527 -22.964  0.00  0.00    +0.009 C 
ATOM      9  C   UNL     1      32.364 -14.573 -21.285  0.00  0.00    +0.087 C 
ATOM     10  C   UNL     1      32.627 -14.860 -22.805  0.00  0.00    +0.087 C 
ATOM     11  C   UNL     1      34.818 -14.339 -21.021  0.00  0.00    +0.001 C 
ATOM     12  C   UNL     1      35.043 -14.585 -22.324  0.00  0.00    +0.001 C 
ATOM     13  C   UNL     1      32.111 -13.084 -21.208  0.00  0.00    +0.247 C 
ATOM     14  C   UNL     1      32.505 -13.511 -23.481  0.00  0.00    +0.247 C 
ENDROOT
BRANCH   3  16
ATOM     15  O   UNL     1      34.142 -10.922 -23.436  0.00  0.00    -0.269 OA
ATOM     16  N   UNL     1      31.952 -11.295 -22.781  0.00  0.00    -0.221 N 
ATOM     17  C   UNL     1      32.997 -10.517 -23.252  0.00  0.00    +0.262 C 
ATOM     18  H   UNL     1      31.056 -10.906 -22.656  0.00  0.00    +0.174 HD
BRANCH  17  19
ATOM     19  C   UNL     1      32.676  -9.091 -23.524  0.00  0.00    +0.055 C 
ATOM     20  C   UNL     1      31.348  -8.662 -23.512  0.00  0.00    +0.005 C 
ATOM     21  C   UNL     1      33.700  -8.182 -23.788  0.00  0.00    +0.005 C 
ATOM     22  C   UNL     1      31.046  -7.325 -23.765  0.00  0.00    +0.004 C 
ATOM     23  C   UNL     1      33.397  -6.845 -24.042  0.00  0.00    +0.004 C 
ATOM     24  C   UNL     1      32.069  -6.416 -24.030  0.00  0.00    +0.071 C 
BRANCH  24  28
ATOM     25  F   UNL     1      32.594  -4.391 -25.192  0.00  0.00    -0.166 F 
ATOM     26  F   UNL     1      30.495  -4.796 -24.817  0.00  0.00    -0.166 F 
ATOM     27  F   UNL     1      31.798  -4.214 -23.175  0.00  0.00    -0.166 F 
ATOM     28  C   UNL     1      31.746  -4.985 -24.301  0.00  0.00    +0.419 C 
ENDBRANCH  24  28
ENDBRANCH  17  19
ENDBRANCH   3  16
TORSDOF 3
ENDMDL
