MODEL 1
REMARK VINA RESULT:     -10.0      0.000      0.000
REMARK  Name = 2678
REMARK  9 active torsions:
REMARK  status: ('A' for Active; 'I' for Inactive)
REMARK    1  A    between atoms: N_1  and  C_9
REMARK    2  A    between atoms: N_2  and  C_23
REMARK    3  A    between atoms: C_9  and  C_11
REMARK    4  A    between atoms: C_9  and  C_17
REMARK    5  A    between atoms: C_23  and  C_24
REMARK    6  A    between atoms: C_24  and  O_25
REMARK    7  A    between atoms: O_25  and  C_26
REMARK    8  A    between atoms: C_26  and  C_28
REMARK    9  A    between atoms: C_28  and  O_29
REMARK                            x       y       z     vdW  Elec       q    Type
REMARK                         _______ _______ _______ _____ _____    ______ ____
ROOT
ATOM      1  N   UNL     1      33.336 -24.079 -15.056  0.00  0.00    +0.390 N 
ATOM      2  N   UNL     1      30.495 -24.077 -14.526  0.00  0.00    +0.386 N 
ATOM      3  C   UNL     1      32.454 -23.060 -15.636  0.00  0.00    -0.100 C 
ATOM      4  C   UNL     1      32.800 -24.551 -13.773  0.00  0.00    -0.100 C 
ATOM      5  C   UNL     1      31.032 -23.604 -15.808  0.00  0.00    -0.101 C 
ATOM      6  C   UNL     1      31.377 -25.095 -13.944  0.00  0.00    -0.101 C 
ATOM      7  H   UNL     1      33.378 -24.871 -15.698  0.00  0.00    -0.079 HD
ATOM      8  H   UNL     1      30.451 -23.284 -13.884  0.00  0.00    -0.080 HD
ENDROOT
BRANCH   1   9
ATOM      9  C   UNL     1      34.692 -23.560 -14.892  0.00  0.00    -0.012 C 
BRANCH   9  11
ATOM     10 CL   UNL     1      36.700 -20.983 -19.927  0.00  0.00    -0.082 Cl
ATOM     11  C   UNL     1      35.202 -22.906 -16.168  0.00  0.00    -0.038 C 
ATOM     12  C   UNL     1      34.423 -22.972 -17.306  0.00  0.00    -0.005 C 
ATOM     13  C   UNL     1      36.425 -22.268 -16.149  0.00  0.00    -0.005 C 
ATOM     14  C   UNL     1      34.891 -22.373 -18.477  0.00  0.00    +0.011 C 
ATOM     15  C   UNL     1      36.891 -21.670 -17.320  0.00  0.00    +0.011 C 
ATOM     16  C   UNL     1      36.124 -21.721 -18.483  0.00  0.00    +0.058 C 
ENDBRANCH   9  11
BRANCH   9  17
ATOM     17  C   UNL     1      35.662 -24.606 -14.361  0.00  0.00    -0.038 C 
ATOM     18  C   UNL     1      36.188 -24.446 -13.096  0.00  0.00    -0.006 C 
ATOM     19  C   UNL     1      35.988 -25.681 -15.162  0.00  0.00    -0.006 C 
ATOM     20  C   UNL     1      37.078 -25.404 -12.609  0.00  0.00    -0.000 C 
ATOM     21  C   UNL     1      36.878 -26.639 -14.676  0.00  0.00    -0.000 C 
ATOM     22  C   UNL     1      37.422 -26.501 -13.399  0.00  0.00    -0.000 C 
ENDBRANCH   9  17
ENDBRANCH   1   9
BRANCH   2  23
ATOM     23  C   UNL     1      29.139 -24.598 -14.692  0.00  0.00    -0.045 C 
BRANCH  23  24
ATOM     24  C   UNL     1      28.648 -24.371 -16.113  0.00  0.00    +0.120 C 
BRANCH  24  25
ATOM     25  O   UNL     1      27.551 -23.468 -16.079  0.00  0.00    -0.345 OA
BRANCH  25  26
ATOM     26  C   UNL     1      27.648 -22.490 -17.105  0.00  0.00    +0.252 C 
BRANCH  26  28
ATOM     27  O   UNL     1      26.267 -20.605 -17.769  0.00  0.00    -0.247 OA
ATOM     28  C   UNL     1      26.453 -21.580 -17.057  0.00  0.00    +0.344 C 
BRANCH  28  29
ATOM     29  O   UNL     1      25.587 -21.994 -16.098  0.00  0.00    -0.478 OA
ATOM     30  H   UNL     1      24.725 -22.277 -16.334  0.00  0.00    +0.295 HD
ENDBRANCH  28  29
ENDBRANCH  26  28
ENDBRANCH  25  26
ENDBRANCH  24  25
ENDBRANCH  23  24
ENDBRANCH   2  23
TORSDOF 9
ENDMDL
MODEL 2
REMARK VINA RESULT:     -10.0      0.137      1.320
REMARK  Name = 2678
REMARK  9 active torsions:
REMARK  status: ('A' for Active; 'I' for Inactive)
REMARK    1  A    between atoms: N_1  and  C_9
REMARK    2  A    between atoms: N_2  and  C_23
REMARK    3  A    between atoms: C_9  and  C_11
REMARK    4  A    between atoms: C_9  and  C_17
REMARK    5  A    between atoms: C_23  and  C_24
REMARK    6  A    between atoms: C_24  and  O_25
REMARK    7  A    between atoms: O_25  and  C_26
REMARK    8  A    between atoms: C_26  and  C_28
REMARK    9  A    between atoms: C_28  and  O_29
REMARK                            x       y       z     vdW  Elec       q    Type
REMARK                         _______ _______ _______ _____ _____    ______ ____
ROOT
ATOM      1  N   UNL     1      33.381 -24.045 -15.102  0.00  0.00    +0.390 N 
ATOM      2  N   UNL     1      30.551 -24.137 -14.522  0.00  0.00    +0.386 N 
ATOM      3  C   UNL     1      32.459 -23.045 -15.651  0.00  0.00    -0.100 C 
ATOM      4  C   UNL     1      32.883 -24.550 -13.817  0.00  0.00    -0.100 C 
ATOM      5  C   UNL     1      31.051 -23.630 -15.806  0.00  0.00    -0.101 C 
ATOM      6  C   UNL     1      31.475 -25.136 -13.970  0.00  0.00    -0.101 C 
ATOM      7  H   UNL     1      33.437 -24.826 -15.756  0.00  0.00    -0.079 HD
ATOM      8  H   UNL     1      30.495 -23.355 -13.868  0.00  0.00    -0.080 HD
ENDROOT
BRANCH   1   9
ATOM      9  C   UNL     1      34.724 -23.486 -14.954  0.00  0.00    -0.012 C 
BRANCH   9  11
ATOM     10 CL   UNL     1      36.671 -21.013 -20.065  0.00  0.00    -0.082 Cl
ATOM     11  C   UNL     1      35.217 -22.860 -16.250  0.00  0.00    -0.038 C 
ATOM     12  C   UNL     1      36.451 -22.239 -16.263  0.00  0.00    -0.005 C 
ATOM     13  C   UNL     1      34.418 -22.930 -17.372  0.00  0.00    -0.005 C 
ATOM     14  C   UNL     1      36.903 -21.664 -17.451  0.00  0.00    +0.011 C 
ATOM     15  C   UNL     1      34.871 -22.355 -18.560  0.00  0.00    +0.011 C 
ATOM     16  C   UNL     1      36.113 -21.723 -18.600  0.00  0.00    +0.058 C 
ENDBRANCH   9  11
BRANCH   9  17
ATOM     17  C   UNL     1      35.720 -24.490 -14.392  0.00  0.00    -0.038 C 
ATOM     18  C   UNL     1      35.991 -25.635 -15.111  0.00  0.00    -0.006 C 
ATOM     19  C   UNL     1      36.322 -24.224 -13.179  0.00  0.00    -0.006 C 
ATOM     20  C   UNL     1      36.904 -26.556 -14.595  0.00  0.00    -0.000 C 
ATOM     21  C   UNL     1      37.234 -25.145 -12.663  0.00  0.00    -0.000 C 
ATOM     22  C   UNL     1      37.526 -26.310 -13.371  0.00  0.00    -0.000 C 
ENDBRANCH   9  17
ENDBRANCH   1   9
BRANCH   2  23
ATOM     23  C   UNL     1      29.209 -24.697 -14.672  0.00  0.00    -0.045 C 
BRANCH  23  24
ATOM     24  C   UNL     1      28.642 -24.370 -16.044  0.00  0.00    +0.120 C 
BRANCH  24  25
ATOM     25  O   UNL     1      27.677 -23.336 -15.905  0.00  0.00    -0.345 OA
BRANCH  25  26
ATOM     26  C   UNL     1      27.711 -22.440 -17.007  0.00  0.00    +0.252 C 
BRANCH  26  28
ATOM     27  O   UNL     1      26.213 -20.702 -17.807  0.00  0.00    -0.247 OA
ATOM     28  C   UNL     1      26.459 -21.607 -17.025  0.00  0.00    +0.344 C 
BRANCH  28  29
ATOM     29  O   UNL     1      25.619 -22.003 -16.035  0.00  0.00    -0.478 OA
ATOM     30  H   UNL     1      24.702 -21.821 -16.099  0.00  0.00    +0.295 HD
ENDBRANCH  28  29
ENDBRANCH  26  28
ENDBRANCH  25  26
ENDBRANCH  24  25
ENDBRANCH  23  24
ENDBRANCH   2  23
TORSDOF 9
ENDMDL
MODEL 3
REMARK VINA RESULT:      -9.1      4.977      7.792
REMARK  Name = 2678
REMARK  9 active torsions:
REMARK  status: ('A' for Active; 'I' for Inactive)
REMARK    1  A    between atoms: N_1  and  C_9
REMARK    2  A    between atoms: N_2  and  C_23
REMARK    3  A    between atoms: C_9  and  C_11
REMARK    4  A    between atoms: C_9  and  C_17
REMARK    5  A    between atoms: C_23  and  C_24
REMARK    6  A    between atoms: C_24  and  O_25
REMARK    7  A    between atoms: O_25  and  C_26
REMARK    8  A    between atoms: C_26  and  C_28
REMARK    9  A    between atoms: C_28  and  O_29
REMARK                            x       y       z     vdW  Elec       q    Type
REMARK                         _______ _______ _______ _____ _____    ______ ____
ROOT
ATOM      1  N   UNL     1      35.017 -23.777 -16.253  0.00  0.00    +0.390 N 
ATOM      2  N   UNL     1      36.344 -24.013 -13.697  0.00  0.00    +0.386 N 
ATOM      3  C   UNL     1      34.851 -24.971 -15.417  0.00  0.00    -0.100 C 
ATOM      4  C   UNL     1      35.276 -22.598 -15.418  0.00  0.00    -0.100 C 
ATOM      5  C   UNL     1      36.083 -25.191 -14.532  0.00  0.00    -0.101 C 
ATOM      6  C   UNL     1      36.508 -22.817 -14.532  0.00  0.00    -0.101 C 
ATOM      7  H   UNL     1      35.820 -23.921 -16.865  0.00  0.00    -0.079 HD
ATOM      8  H   UNL     1      35.540 -23.869 -13.084  0.00  0.00    -0.080 HD
ENDROOT
BRANCH   1   9
ATOM      9  C   UNL     1      33.841 -23.566 -17.097  0.00  0.00    -0.012 C 
BRANCH   9  11
ATOM     10 CL   UNL     1      34.861 -19.434 -21.329  0.00  0.00    -0.082 Cl
ATOM     11  C   UNL     1      34.101 -22.519 -18.169  0.00  0.00    -0.038 C 
ATOM     12  C   UNL     1      33.023 -21.933 -18.803  0.00  0.00    -0.005 C 
ATOM     13  C   UNL     1      35.404 -22.185 -18.476  0.00  0.00    -0.005 C 
ATOM     14  C   UNL     1      33.260 -20.973 -19.787  0.00  0.00    +0.011 C 
ATOM     15  C   UNL     1      35.641 -21.225 -19.460  0.00  0.00    +0.011 C 
ATOM     16  C   UNL     1      34.569 -20.618 -20.115  0.00  0.00    +0.058 C 
ENDBRANCH   9  11
BRANCH   9  17
ATOM     17  C   UNL     1      32.587 -23.259 -16.292  0.00  0.00    -0.038 C 
ATOM     18  C   UNL     1      31.373 -23.204 -16.945  0.00  0.00    -0.006 C 
ATOM     19  C   UNL     1      32.701 -23.046 -14.934  0.00  0.00    -0.006 C 
ATOM     20  C   UNL     1      30.223 -22.921 -16.208  0.00  0.00    -0.000 C 
ATOM     21  C   UNL     1      31.551 -22.764 -14.197  0.00  0.00    -0.000 C 
ATOM     22  C   UNL     1      30.312 -22.702 -14.833  0.00  0.00    -0.000 C 
ENDBRANCH   9  17
ENDBRANCH   1   9
BRANCH   2  23
ATOM     23  C   UNL     1      37.520 -24.224 -12.855  0.00  0.00    -0.045 C 
BRANCH  23  24
ATOM     24  C   UNL     1      37.652 -25.690 -12.476  0.00  0.00    +0.120 C 
BRANCH  24  25
ATOM     25  O   UNL     1      38.958 -26.135 -12.820  0.00  0.00    -0.345 OA
BRANCH  25  26
ATOM     26  C   UNL     1      39.535 -25.323 -13.833  0.00  0.00    +0.252 C 
BRANCH  26  28
ATOM     27  O   UNL     1      41.375 -26.879 -14.147  0.00  0.00    -0.247 OA
ATOM     28  C   UNL     1      40.538 -26.122 -14.617  0.00  0.00    +0.344 C 
BRANCH  28  29
ATOM     29  O   UNL     1      40.388 -25.890 -15.945  0.00  0.00    -0.478 OA
ATOM     30  H   UNL     1      39.624 -25.450 -16.261  0.00  0.00    +0.295 HD
ENDBRANCH  28  29
ENDBRANCH  26  28
ENDBRANCH  25  26
ENDBRANCH  24  25
ENDBRANCH  23  24
ENDBRANCH   2  23
TORSDOF 9
ENDMDL
MODEL 4
REMARK VINA RESULT:      -9.0      2.062      4.162
REMARK  Name = 2678
REMARK  9 active torsions:
REMARK  status: ('A' for Active; 'I' for Inactive)
REMARK    1  A    between atoms: N_1  and  C_9
REMARK    2  A    between atoms: N_2  and  C_23
REMARK    3  A    between atoms: C_9  and  C_11
REMARK    4  A    between atoms: C_9  and  C_17
REMARK    5  A    between atoms: C_23  and  C_24
REMARK    6  A    between atoms: C_24  and  O_25
REMARK    7  A    between atoms: O_25  and  C_26
REMARK    8  A    between atoms: C_26  and  C_28
REMARK    9  A    between atoms: C_28  and  O_29
REMARK                            x       y       z     vdW  Elec       q    Type
REMARK                         _______ _______ _______ _____ _____    ______ ____
ROOT
ATOM      1  N   UNL     1      33.158 -23.243 -15.887  0.00  0.00    +0.390 N 
ATOM      2  N   UNL     1      30.375 -23.615 -15.203  0.00  0.00    +0.386 N 
ATOM      3  C   UNL     1      32.762 -23.997 -14.692  0.00  0.00    -0.100 C 
ATOM      4  C   UNL     1      32.126 -23.351 -16.926  0.00  0.00    -0.100 C 
ATOM      5  C   UNL     1      31.408 -23.510 -14.165  0.00  0.00    -0.101 C 
ATOM      6  C   UNL     1      30.771 -22.864 -16.400  0.00  0.00    -0.101 C 
ATOM      7  H   UNL     1      33.256 -22.261 -15.631  0.00  0.00    -0.079 HD
ATOM      8  H   UNL     1      30.276 -24.599 -15.459  0.00  0.00    -0.080 HD
ENDROOT
BRANCH   1   9
ATOM      9  C   UNL     1      34.450 -23.708 -16.390  0.00  0.00    -0.012 C 
BRANCH   9  11
ATOM     10 CL   UNL     1      38.298 -24.812 -11.919  0.00  0.00    -0.082 Cl
ATOM     11  C   UNL     1      35.426 -23.987 -15.257  0.00  0.00    -0.038 C 
ATOM     12  C   UNL     1      36.025 -25.229 -15.184  0.00  0.00    -0.005 C 
ATOM     13  C   UNL     1      35.682 -22.992 -14.336  0.00  0.00    -0.005 C 
ATOM     14  C   UNL     1      36.919 -25.485 -14.144  0.00  0.00    +0.011 C 
ATOM     15  C   UNL     1      36.577 -23.249 -13.297  0.00  0.00    +0.011 C 
ATOM     16  C   UNL     1      37.196 -24.495 -13.201  0.00  0.00    +0.058 C 
ENDBRANCH   9  11
BRANCH   9  17
ATOM     17  C   UNL     1      35.044 -22.777 -17.436  0.00  0.00    -0.038 C 
ATOM     18  C   UNL     1      36.285 -22.220 -17.206  0.00  0.00    -0.006 C 
ATOM     19  C   UNL     1      34.323 -22.516 -18.583  0.00  0.00    -0.006 C 
ATOM     20  C   UNL     1      36.830 -21.365 -18.165  0.00  0.00    -0.000 C 
ATOM     21  C   UNL     1      34.868 -21.661 -19.542  0.00  0.00    -0.000 C 
ATOM     22  C   UNL     1      36.121 -21.086 -19.333  0.00  0.00    -0.000 C 
ENDBRANCH   9  17
ENDBRANCH   1   9
BRANCH   2  23
ATOM     23  C   UNL     1      29.084 -23.149 -14.699  0.00  0.00    -0.045 C 
BRANCH  23  24
ATOM     24  C   UNL     1      28.346 -22.358 -15.768  0.00  0.00    +0.120 C 
BRANCH  24  25
ATOM     25  O   UNL     1      27.002 -22.818 -15.829  0.00  0.00    -0.345 OA
BRANCH  25  26
ATOM     26  C   UNL     1      26.115 -21.783 -16.230  0.00  0.00    +0.252 C 
BRANCH  26  28
ATOM     27  O   UNL     1      26.594 -22.334 -18.548  0.00  0.00    -0.247 OA
ATOM     28  C   UNL     1      26.281 -21.512 -17.700  0.00  0.00    +0.344 C 
BRANCH  28  29
ATOM     29  O   UNL     1      26.031 -20.205 -17.967  0.00  0.00    -0.478 OA
ATOM     30  H   UNL     1      26.628 -19.544 -17.674  0.00  0.00    +0.295 HD
ENDBRANCH  28  29
ENDBRANCH  26  28
ENDBRANCH  25  26
ENDBRANCH  24  25
ENDBRANCH  23  24
ENDBRANCH   2  23
TORSDOF 9
ENDMDL
MODEL 5
REMARK VINA RESULT:      -8.7      3.904      6.858
REMARK  Name = 2678
REMARK  9 active torsions:
REMARK  status: ('A' for Active; 'I' for Inactive)
REMARK    1  A    between atoms: N_1  and  C_9
REMARK    2  A    between atoms: N_2  and  C_23
REMARK    3  A    between atoms: C_9  and  C_11
REMARK    4  A    between atoms: C_9  and  C_17
REMARK    5  A    between atoms: C_23  and  C_24
REMARK    6  A    between atoms: C_24  and  O_25
REMARK    7  A    between atoms: O_25  and  C_26
REMARK    8  A    between atoms: C_26  and  C_28
REMARK    9  A    between atoms: C_28  and  O_29
REMARK                            x       y       z     vdW  Elec       q    Type
REMARK                         _______ _______ _______ _____ _____    ______ ____
ROOT
ATOM      1  N   UNL     1      35.233 -23.789 -16.566  0.00  0.00    +0.390 N 
ATOM      2  N   UNL     1      36.867 -24.001 -14.191  0.00  0.00    +0.386 N 
ATOM      3  C   UNL     1      35.114 -24.938 -15.660  0.00  0.00    -0.100 C 
ATOM      4  C   UNL     1      35.660 -22.595 -15.826  0.00  0.00    -0.100 C 
ATOM      5  C   UNL     1      36.438 -25.195 -14.931  0.00  0.00    -0.101 C 
ATOM      6  C   UNL     1      36.983 -22.851 -15.095  0.00  0.00    -0.101 C 
ATOM      7  H   UNL     1      35.941 -24.004 -17.267  0.00  0.00    -0.079 HD
ATOM      8  H   UNL     1      36.158 -23.787 -13.488  0.00  0.00    -0.080 HD
ENDROOT
BRANCH   1   9
ATOM      9  C   UNL     1      33.970 -23.544 -17.261  0.00  0.00    -0.012 C 
BRANCH   9  11
ATOM     10 CL   UNL     1      34.531 -19.249 -21.415  0.00  0.00    -0.082 Cl
ATOM     11  C   UNL     1      34.112 -22.456 -18.315  0.00  0.00    -0.038 C 
ATOM     12  C   UNL     1      35.377 -22.095 -18.734  0.00  0.00    -0.005 C 
ATOM     13  C   UNL     1      32.973 -21.862 -18.818  0.00  0.00    -0.005 C 
ATOM     14  C   UNL     1      35.506 -21.096 -19.700  0.00  0.00    +0.011 C 
ATOM     15  C   UNL     1      33.103 -20.863 -19.784  0.00  0.00    +0.011 C 
ATOM     16  C   UNL     1      34.370 -20.481 -20.225  0.00  0.00    +0.058 C 
ENDBRANCH   9  11
BRANCH   9  17
ATOM     17  C   UNL     1      32.817 -23.267 -16.307  0.00  0.00    -0.038 C 
ATOM     18  C   UNL     1      31.536 -23.195 -16.813  0.00  0.00    -0.006 C 
ATOM     19  C   UNL     1      33.088 -23.096 -14.965  0.00  0.00    -0.006 C 
ATOM     20  C   UNL     1      30.479 -22.940 -15.939  0.00  0.00    -0.000 C 
ATOM     21  C   UNL     1      32.031 -22.841 -14.091  0.00  0.00    -0.000 C 
ATOM     22  C   UNL     1      30.726 -22.763 -14.578  0.00  0.00    -0.000 C 
ENDBRANCH   9  17
ENDBRANCH   1   9
BRANCH   2  23
ATOM     23  C   UNL     1      38.130 -24.247 -13.498  0.00  0.00    -0.045 C 
BRANCH  23  24
ATOM     24  C   UNL     1      37.933 -25.234 -12.358  0.00  0.00    +0.120 C 
BRANCH  24  25
ATOM     25  O   UNL     1      37.865 -24.512 -11.136  0.00  0.00    -0.345 OA
BRANCH  25  26
ATOM     26  C   UNL     1      36.808 -23.563 -11.150  0.00  0.00    +0.252 C 
BRANCH  26  28
ATOM     27  O   UNL     1      34.683 -24.474 -11.897  0.00  0.00    -0.247 OA
ATOM     28  C   UNL     1      35.488 -24.267 -11.001  0.00  0.00    +0.344 C 
BRANCH  28  29
ATOM     29  O   UNL     1      35.305 -24.653  -9.714  0.00  0.00    -0.478 OA
ATOM     30  H   UNL     1      34.445 -24.649  -9.341  0.00  0.00    +0.295 HD
ENDBRANCH  28  29
ENDBRANCH  26  28
ENDBRANCH  25  26
ENDBRANCH  24  25
ENDBRANCH  23  24
ENDBRANCH   2  23
TORSDOF 9
ENDMDL
MODEL 6
REMARK VINA RESULT:      -8.4      9.381     12.625
REMARK  Name = 2678
REMARK  9 active torsions:
REMARK  status: ('A' for Active; 'I' for Inactive)
REMARK    1  A    between atoms: N_1  and  C_9
REMARK    2  A    between atoms: N_2  and  C_23
REMARK    3  A    between atoms: C_9  and  C_11
REMARK    4  A    between atoms: C_9  and  C_17
REMARK    5  A    between atoms: C_23  and  C_24
REMARK    6  A    between atoms: C_24  and  O_25
REMARK    7  A    between atoms: O_25  and  C_26
REMARK    8  A    between atoms: C_26  and  C_28
REMARK    9  A    between atoms: C_28  and  O_29
REMARK                            x       y       z     vdW  Elec       q    Type
REMARK                         _______ _______ _______ _____ _____    ______ ____
ROOT
ATOM      1  N   UNL     1      33.989 -15.287 -22.862  0.00  0.00    +0.390 N 
ATOM      2  N   UNL     1      35.332 -17.754 -22.179  0.00  0.00    +0.386 N 
ATOM      3  C   UNL     1      34.566 -15.496 -21.528  0.00  0.00    -0.100 C 
ATOM      4  C   UNL     1      34.736 -16.052 -23.868  0.00  0.00    -0.100 C 
ATOM      5  C   UNL     1      34.587 -16.987 -21.173  0.00  0.00    -0.101 C 
ATOM      6  C   UNL     1      34.758 -17.543 -23.513  0.00  0.00    -0.101 C 
ATOM      7  H   UNL     1      33.026 -15.621 -22.852  0.00  0.00    -0.079 HD
ATOM      8  H   UNL     1      36.297 -17.420 -22.188  0.00  0.00    -0.080 HD
ENDROOT
BRANCH   1   9
ATOM      9  C   UNL     1      33.969 -13.865 -23.201  0.00  0.00    -0.012 C 
BRANCH   9  11
ATOM     10 CL   UNL     1      30.400 -10.755 -19.511  0.00  0.00    -0.082 Cl
ATOM     11  C   UNL     1      33.064 -13.077 -22.265  0.00  0.00    -0.038 C 
ATOM     12  C   UNL     1      32.503 -11.899 -22.716  0.00  0.00    -0.005 C 
ATOM     13  C   UNL     1      32.832 -13.564 -20.995  0.00  0.00    -0.005 C 
ATOM     14  C   UNL     1      31.674 -11.176 -21.858  0.00  0.00    +0.011 C 
ATOM     15  C   UNL     1      32.002 -12.840 -20.138  0.00  0.00    +0.011 C 
ATOM     16  C   UNL     1      31.423 -11.647 -20.569  0.00  0.00    +0.058 C 
ENDBRANCH   9  11
BRANCH   9  17
ATOM     17  C   UNL     1      33.633 -13.614 -24.664  0.00  0.00    -0.038 C 
ATOM     18  C   UNL     1      34.058 -12.442 -25.254  0.00  0.00    -0.006 C 
ATOM     19  C   UNL     1      32.913 -14.566 -25.355  0.00  0.00    -0.006 C 
ATOM     20  C   UNL     1      33.749 -12.211 -26.595  0.00  0.00    -0.000 C 
ATOM     21  C   UNL     1      32.604 -14.335 -26.696  0.00  0.00    -0.000 C 
ATOM     22  C   UNL     1      33.022 -13.158 -27.316  0.00  0.00    -0.000 C 
ENDBRANCH   9  17
ENDBRANCH   1   9
BRANCH   2  23
ATOM     23  C   UNL     1      35.350 -19.175 -21.839  0.00  0.00    -0.045 C 
BRANCH  23  24
ATOM     24  C   UNL     1      36.308 -19.440 -20.689  0.00  0.00    +0.120 C 
BRANCH  24  25
ATOM     25  O   UNL     1      35.714 -20.383 -19.807  0.00  0.00    -0.345 OA
BRANCH  25  26
ATOM     26  C   UNL     1      34.362 -20.645 -20.158  0.00  0.00    +0.252 C 
BRANCH  26  28
ATOM     27  O   UNL     1      32.743 -22.009 -18.968  0.00  0.00    -0.247 OA
ATOM     28  C   UNL     1      33.868 -21.855 -19.417  0.00  0.00    +0.344 C 
BRANCH  28  29
ATOM     29  O   UNL     1      34.859 -22.776 -19.310  0.00  0.00    -0.478 OA
ATOM     30  H   UNL     1      35.753 -22.499 -19.255  0.00  0.00    +0.295 HD
ENDBRANCH  28  29
ENDBRANCH  26  28
ENDBRANCH  25  26
ENDBRANCH  24  25
ENDBRANCH  23  24
ENDBRANCH   2  23
TORSDOF 9
ENDMDL
MODEL 7
REMARK VINA RESULT:      -8.4     11.473     14.196
REMARK  Name = 2678
REMARK  9 active torsions:
REMARK  status: ('A' for Active; 'I' for Inactive)
REMARK    1  A    between atoms: N_1  and  C_9
REMARK    2  A    between atoms: N_2  and  C_23
REMARK    3  A    between atoms: C_9  and  C_11
REMARK    4  A    between atoms: C_9  and  C_17
REMARK    5  A    between atoms: C_23  and  C_24
REMARK    6  A    between atoms: C_24  and  O_25
REMARK    7  A    between atoms: O_25  and  C_26
REMARK    8  A    between atoms: C_26  and  C_28
REMARK    9  A    between atoms: C_28  and  O_29
REMARK                            x       y       z     vdW  Elec       q    Type
REMARK                         _______ _______ _______ _____ _____    ______ ____
ROOT
ATOM      1  N   UNL     1      32.672 -13.075 -22.236  0.00  0.00    +0.390 N 
ATOM      2  N   UNL     1      31.197 -11.385 -20.414  0.00  0.00    +0.386 N 
ATOM      3  C   UNL     1      32.100 -13.610 -20.996  0.00  0.00    -0.100 C 
ATOM      4  C   UNL     1      31.872 -11.945 -22.724  0.00  0.00    -0.100 C 
ATOM      5  C   UNL     1      31.996 -12.516 -19.927  0.00  0.00    -0.101 C 
ATOM      6  C   UNL     1      31.767 -10.850 -21.656  0.00  0.00    -0.101 C 
ATOM      7  H   UNL     1      33.615 -12.740 -22.038  0.00  0.00    -0.079 HD
ATOM      8  H   UNL     1      30.253 -11.720 -20.611  0.00  0.00    -0.080 HD
ENDROOT
BRANCH   1   9
ATOM      9  C   UNL     1      32.771 -14.118 -23.255  0.00  0.00    -0.012 C 
BRANCH   9  11
ATOM     10 CL   UNL     1      36.468 -18.531 -21.559  0.00  0.00    -0.082 Cl
ATOM     11  C   UNL     1      33.708 -15.236 -22.825  0.00  0.00    -0.038 C 
ATOM     12  C   UNL     1      34.229 -16.078 -23.788  0.00  0.00    -0.005 C 
ATOM     13  C   UNL     1      34.010 -15.377 -21.485  0.00  0.00    -0.005 C 
ATOM     14  C   UNL     1      35.088 -17.103 -23.393  0.00  0.00    +0.011 C 
ATOM     15  C   UNL     1      34.869 -16.403 -21.091  0.00  0.00    +0.011 C 
ATOM     16  C   UNL     1      35.409 -17.266 -22.045  0.00  0.00    +0.058 C 
ENDBRANCH   9  11
BRANCH   9  17
ATOM     17  C   UNL     1      33.133 -13.569 -24.627  0.00  0.00    -0.038 C 
ATOM     18  C   UNL     1      32.727 -14.259 -25.750  0.00  0.00    -0.006 C 
ATOM     19  C   UNL     1      33.856 -12.396 -24.707  0.00  0.00    -0.006 C 
ATOM     20  C   UNL     1      33.059 -13.756 -27.008  0.00  0.00    -0.000 C 
ATOM     21  C   UNL     1      34.188 -11.893 -25.965  0.00  0.00    -0.000 C 
ATOM     22  C   UNL     1      33.789 -12.573 -27.116  0.00  0.00    -0.000 C 
ENDBRANCH   9  17
ENDBRANCH   1   9
BRANCH   2  23
ATOM     23  C   UNL     1      31.101 -10.341 -19.394  0.00  0.00    -0.045 C 
BRANCH  23  24
ATOM     24  C   UNL     1      32.305  -9.415 -19.460  0.00  0.00    +0.120 C 
BRANCH  24  25
ATOM     25  O   UNL     1      31.849  -8.069 -19.404  0.00  0.00    -0.345 OA
BRANCH  25  26
ATOM     26  C   UNL     1      32.644  -7.215 -20.215  0.00  0.00    +0.252 C 
BRANCH  26  28
ATOM     27  O   UNL     1      31.357  -7.365 -22.270  0.00  0.00    -0.247 OA
ATOM     28  C   UNL     1      31.825  -6.694 -21.362  0.00  0.00    +0.344 C 
BRANCH  28  29
ATOM     29  O   UNL     1      31.670  -5.350 -21.255  0.00  0.00    -0.478 OA
ATOM     30  H   UNL     1      30.820  -4.988 -21.100  0.00  0.00    +0.295 HD
ENDBRANCH  28  29
ENDBRANCH  26  28
ENDBRANCH  25  26
ENDBRANCH  24  25
ENDBRANCH  23  24
ENDBRANCH   2  23
TORSDOF 9
ENDMDL
MODEL 8
REMARK VINA RESULT:      -8.3     11.458     14.174
REMARK  Name = 2678
REMARK  9 active torsions:
REMARK  status: ('A' for Active; 'I' for Inactive)
REMARK    1  A    between atoms: N_1  and  C_9
REMARK    2  A    between atoms: N_2  and  C_23
REMARK    3  A    between atoms: C_9  and  C_11
REMARK    4  A    between atoms: C_9  and  C_17
REMARK    5  A    between atoms: C_23  and  C_24
REMARK    6  A    between atoms: C_24  and  O_25
REMARK    7  A    between atoms: O_25  and  C_26
REMARK    8  A    between atoms: C_26  and  C_28
REMARK    9  A    between atoms: C_28  and  O_29
REMARK                            x       y       z     vdW  Elec       q    Type
REMARK                         _______ _______ _______ _____ _____    ______ ____
ROOT
ATOM      1  N   UNL     1      32.655 -13.073 -22.249  0.00  0.00    +0.390 N 
ATOM      2  N   UNL     1      31.167 -11.408 -20.414  0.00  0.00    +0.386 N 
ATOM      3  C   UNL     1      32.088 -13.622 -21.012  0.00  0.00    -0.100 C 
ATOM      4  C   UNL     1      31.845 -11.946 -22.728  0.00  0.00    -0.100 C 
ATOM      5  C   UNL     1      31.976 -12.536 -19.936  0.00  0.00    -0.101 C 
ATOM      6  C   UNL     1      31.732 -10.859 -21.652  0.00  0.00    -0.101 C 
ATOM      7  H   UNL     1      33.595 -12.731 -22.049  0.00  0.00    -0.079 HD
ATOM      8  H   UNL     1      30.226 -11.749 -20.613  0.00  0.00    -0.080 HD
ENDROOT
BRANCH   1   9
ATOM      9  C   UNL     1      32.762 -14.108 -23.275  0.00  0.00    -0.012 C 
BRANCH   9  11
ATOM     10 CL   UNL     1      36.453 -18.527 -21.584  0.00  0.00    -0.082 Cl
ATOM     11  C   UNL     1      33.697 -15.229 -22.847  0.00  0.00    -0.038 C 
ATOM     12  C   UNL     1      33.997 -15.372 -21.507  0.00  0.00    -0.005 C 
ATOM     13  C   UNL     1      34.218 -16.068 -23.810  0.00  0.00    -0.005 C 
ATOM     14  C   UNL     1      34.855 -16.399 -21.114  0.00  0.00    +0.011 C 
ATOM     15  C   UNL     1      35.077 -17.096 -23.416  0.00  0.00    +0.011 C 
ATOM     16  C   UNL     1      35.395 -17.261 -22.069  0.00  0.00    +0.058 C 
ENDBRANCH   9  11
BRANCH   9  17
ATOM     17  C   UNL     1      33.132 -13.547 -24.640  0.00  0.00    -0.038 C 
ATOM     18  C   UNL     1      33.853 -12.372 -24.705  0.00  0.00    -0.006 C 
ATOM     19  C   UNL     1      32.737 -14.230 -25.772  0.00  0.00    -0.006 C 
ATOM     20  C   UNL     1      34.192 -11.858 -25.957  0.00  0.00    -0.000 C 
ATOM     21  C   UNL     1      33.077 -13.716 -27.023  0.00  0.00    -0.000 C 
ATOM     22  C   UNL     1      33.804 -12.530 -27.116  0.00  0.00    -0.000 C 
ENDBRANCH   9  17
ENDBRANCH   1   9
BRANCH   2  23
ATOM     23  C   UNL     1      31.063 -10.372 -19.387  0.00  0.00    -0.045 C 
BRANCH  23  24
ATOM     24  C   UNL     1      32.303  -9.492 -19.385  0.00  0.00    +0.120 C 
BRANCH  24  25
ATOM     25  O   UNL     1      31.896  -8.130 -19.388  0.00  0.00    -0.345 OA
BRANCH  25  26
ATOM     26  C   UNL     1      32.696  -7.349 -20.265  0.00  0.00    +0.252 C 
BRANCH  26  28
ATOM     27  O   UNL     1      31.422  -7.374 -22.334  0.00  0.00    -0.247 OA
ATOM     28  C   UNL     1      31.839  -6.771 -21.356  0.00  0.00    +0.344 C 
BRANCH  28  29
ATOM     29  O   UNL     1      31.581  -5.463 -21.107  0.00  0.00    -0.478 OA
ATOM     30  H   UNL     1      32.282  -4.841 -21.096  0.00  0.00    +0.295 HD
ENDBRANCH  28  29
ENDBRANCH  26  28
ENDBRANCH  25  26
ENDBRANCH  24  25
ENDBRANCH  23  24
ENDBRANCH   2  23
TORSDOF 9
ENDMDL
MODEL 9
REMARK VINA RESULT:      -8.2      6.458      9.739
REMARK  Name = 2678
REMARK  9 active torsions:
REMARK  status: ('A' for Active; 'I' for Inactive)
REMARK    1  A    between atoms: N_1  and  C_9
REMARK    2  A    between atoms: N_2  and  C_23
REMARK    3  A    between atoms: C_9  and  C_11
REMARK    4  A    between atoms: C_9  and  C_17
REMARK    5  A    between atoms: C_23  and  C_24
REMARK    6  A    between atoms: C_24  and  O_25
REMARK    7  A    between atoms: O_25  and  C_26
REMARK    8  A    between atoms: C_26  and  C_28
REMARK    9  A    between atoms: C_28  and  O_29
REMARK                            x       y       z     vdW  Elec       q    Type
REMARK                         _______ _______ _______ _____ _____    ______ ____
ROOT
ATOM      1  N   UNL     1      34.873 -18.733 -20.659  0.00  0.00    +0.390 N 
ATOM      2  N   UNL     1      34.527 -21.514 -19.950  0.00  0.00    +0.386 N 
ATOM      3  C   UNL     1      36.011 -19.659 -20.633  0.00  0.00    -0.100 C 
ATOM      4  C   UNL     1      33.634 -19.453 -20.979  0.00  0.00    -0.100 C 
ATOM      5  C   UNL     1      35.766 -20.794 -19.631  0.00  0.00    -0.101 C 
ATOM      6  C   UNL     1      33.388 -20.588 -19.978  0.00  0.00    -0.101 C 
ATOM      7  H   UNL     1      34.774 -18.318 -19.732  0.00  0.00    -0.079 HD
ATOM      8  H   UNL     1      34.626 -21.930 -20.876  0.00  0.00    -0.080 HD
ENDROOT
BRANCH   1   9
ATOM      9  C   UNL     1      35.106 -17.651 -21.614  0.00  0.00    -0.012 C 
BRANCH   9  11
ATOM     10 CL   UNL     1      31.983 -12.728 -20.190  0.00  0.00    -0.082 Cl
ATOM     11  C   UNL     1      34.314 -16.404 -21.253  0.00  0.00    -0.038 C 
ATOM     12  C   UNL     1      34.935 -15.173 -21.334  0.00  0.00    -0.005 C 
ATOM     13  C   UNL     1      32.999 -16.539 -20.856  0.00  0.00    -0.005 C 
ATOM     14  C   UNL     1      34.209 -14.029 -21.002  0.00  0.00    +0.011 C 
ATOM     15  C   UNL     1      32.273 -15.394 -20.525  0.00  0.00    +0.011 C 
ATOM     16  C   UNL     1      32.878 -14.140 -20.599  0.00  0.00    +0.058 C 
ENDBRANCH   9  11
BRANCH   9  17
ATOM     17  C   UNL     1      34.871 -18.078 -23.055  0.00  0.00    -0.038 C 
ATOM     18  C   UNL     1      34.997 -19.412 -23.385  0.00  0.00    -0.006 C 
ATOM     19  C   UNL     1      34.539 -17.119 -23.990  0.00  0.00    -0.006 C 
ATOM     20  C   UNL     1      34.781 -19.804 -24.706  0.00  0.00    -0.000 C 
ATOM     21  C   UNL     1      34.324 -17.511 -25.311  0.00  0.00    -0.000 C 
ATOM     22  C   UNL     1      34.445 -18.853 -25.669  0.00  0.00    -0.000 C 
ENDBRANCH   9  17
ENDBRANCH   1   9
BRANCH   2  23
ATOM     23  C   UNL     1      34.294 -22.594 -18.993  0.00  0.00    -0.045 C 
BRANCH  23  24
ATOM     24  C   UNL     1      35.129 -22.389 -17.739  0.00  0.00    +0.120 C 
BRANCH  24  25
ATOM     25  O   UNL     1      34.819 -23.419 -16.810  0.00  0.00    -0.345 OA
BRANCH  25  26
ATOM     26  C   UNL     1      35.275 -23.098 -15.503  0.00  0.00    +0.252 C 
BRANCH  26  28
ATOM     27  O   UNL     1      37.638 -22.792 -15.031  0.00  0.00    -0.247 OA
ATOM     28  C   UNL     1      36.709 -23.520 -15.345  0.00  0.00    +0.344 C 
BRANCH  28  29
ATOM     29  O   UNL     1      36.838 -24.846 -15.603  0.00  0.00    -0.478 OA
ATOM     30  H   UNL     1      36.872 -25.460 -14.896  0.00  0.00    +0.295 HD
ENDBRANCH  28  29
ENDBRANCH  26  28
ENDBRANCH  25  26
ENDBRANCH  24  25
ENDBRANCH  23  24
ENDBRANCH   2  23
TORSDOF 9
ENDMDL
