MODEL 1
REMARK VINA RESULT:      -8.3      0.000      0.000
REMARK  Name = 11498153
REMARK  1 active torsions:
REMARK  status: ('A' for Active; 'I' for Inactive)
REMARK    1  A    between atoms: C_11  and  C_18
REMARK                            x       y       z     vdW  Elec       q    Type
REMARK                         _______ _______ _______ _____ _____    ______ ____
ROOT
ATOM      1  N   UNL     1      34.919 -17.427 -20.584  0.00  0.00    +0.384 N 
ATOM      2  C   UNL     1      33.590 -19.227 -21.750  0.00  0.00    +0.001 C 
ATOM      3  C   UNL     1      35.959 -19.281 -21.943  0.00  0.00    +0.001 C 
ATOM      4  C   UNL     1      34.695 -19.324 -22.819  0.00  0.00    +0.004 C 
ATOM      5  C   UNL     1      34.133 -20.233 -20.765  0.00  0.00    -0.029 C 
ATOM      6  C   UNL     1      35.537 -20.266 -20.878  0.00  0.00    -0.029 C 
ATOM      7  C   UNL     1      33.619 -17.800 -21.166  0.00  0.00    -0.077 C 
ATOM      8  C   UNL     1      36.090 -17.857 -21.366  0.00  0.00    -0.077 C 
ATOM      9  C   UNL     1      33.470 -21.008 -19.834  0.00  0.00    -0.001 C 
ATOM     10  C   UNL     1      36.304 -21.074 -20.065  0.00  0.00    -0.005 C 
ATOM     11  C   UNL     1      34.239 -21.837 -19.012  0.00  0.00    +0.071 C 
ATOM     12  C   UNL     1      35.641 -21.870 -19.127  0.00  0.00    +0.004 C 
ATOM     13  H   UNL     1      34.984 -17.847 -19.657  0.00  0.00    -0.084 HD
ATOM     14  H   UNL     1      34.945 -16.408 -20.566  0.00  0.00    -0.084 HD
ENDROOT
BRANCH  11  18
ATOM     15  F   UNL     1      34.184 -22.690 -16.778  0.00  0.00    -0.166 F 
ATOM     16  F   UNL     1      32.274 -22.329 -17.741  0.00  0.00    -0.166 F 
ATOM     17  F   UNL     1      33.506 -24.006 -18.371  0.00  0.00    -0.166 F 
ATOM     18  C   UNL     1      33.565 -22.696 -17.995  0.00  0.00    +0.419 C 
ENDBRANCH  11  18
TORSDOF 1
ENDMDL
MODEL 2
REMARK VINA RESULT:      -8.2      4.305      7.002
REMARK  Name = 11498153
REMARK  1 active torsions:
REMARK  status: ('A' for Active; 'I' for Inactive)
REMARK    1  A    between atoms: C_11  and  C_18
REMARK                            x       y       z     vdW  Elec       q    Type
REMARK                         _______ _______ _______ _____ _____    ______ ____
ROOT
ATOM      1  N   UNL     1      30.408 -25.512 -15.129  0.00  0.00    +0.384 N 
ATOM      2  C   UNL     1      30.137 -23.069 -15.701  0.00  0.00    +0.001 C 
ATOM      3  C   UNL     1      31.540 -23.641 -13.870  0.00  0.00    +0.001 C 
ATOM      4  C   UNL     1      30.361 -22.717 -14.219  0.00  0.00    +0.004 C 
ATOM      5  C   UNL     1      31.573 -23.042 -16.165  0.00  0.00    -0.029 C 
ATOM      6  C   UNL     1      32.405 -23.381 -15.080  0.00  0.00    -0.029 C 
ATOM      7  C   UNL     1      29.554 -24.495 -15.767  0.00  0.00    -0.077 C 
ATOM      8  C   UNL     1      31.018 -25.093 -13.857  0.00  0.00    -0.077 C 
ATOM      9  C   UNL     1      32.094 -22.790 -17.419  0.00  0.00    -0.001 C 
ATOM     10  C   UNL     1      33.774 -23.474 -15.227  0.00  0.00    -0.005 C 
ATOM     11  C   UNL     1      33.480 -22.872 -17.574  0.00  0.00    +0.071 C 
ATOM     12  C   UNL     1      34.311 -23.210 -16.490  0.00  0.00    +0.004 C 
ATOM     13  H   UNL     1      31.158 -25.749 -15.779  0.00  0.00    -0.084 HD
ATOM     14  H   UNL     1      29.802 -26.302 -14.911  0.00  0.00    -0.084 HD
ENDROOT
BRANCH  11  18
ATOM     15  F   UNL     1      35.397 -22.215 -18.846  0.00  0.00    -0.166 F 
ATOM     16  F   UNL     1      34.078 -23.686 -19.742  0.00  0.00    -0.166 F 
ATOM     17  F   UNL     1      33.445 -21.612 -19.590  0.00  0.00    -0.166 F 
ATOM     18  C   UNL     1      34.089 -22.603 -18.910  0.00  0.00    +0.419 C 
ENDBRANCH  11  18
TORSDOF 1
ENDMDL
MODEL 3
REMARK VINA RESULT:      -8.1      1.395      2.604
REMARK  Name = 11498153
REMARK  1 active torsions:
REMARK  status: ('A' for Active; 'I' for Inactive)
REMARK    1  A    between atoms: C_11  and  C_18
REMARK                            x       y       z     vdW  Elec       q    Type
REMARK                         _______ _______ _______ _____ _____    ______ ____
ROOT
ATOM      1  N   UNL     1      35.326 -18.914 -23.613  0.00  0.00    +0.384 N 
ATOM      2  C   UNL     1      36.184 -18.504 -21.277  0.00  0.00    +0.001 C 
ATOM      3  C   UNL     1      34.068 -17.596 -21.867  0.00  0.00    +0.001 C 
ATOM      4  C   UNL     1      35.411 -17.173 -21.246  0.00  0.00    +0.004 C 
ATOM      5  C   UNL     1      35.103 -19.412 -20.745  0.00  0.00    -0.029 C 
ATOM      6  C   UNL     1      33.849 -18.875 -21.094  0.00  0.00    -0.029 C 
ATOM      7  C   UNL     1      36.514 -18.827 -22.748  0.00  0.00    -0.077 C 
ATOM      8  C   UNL     1      34.306 -17.882 -23.364  0.00  0.00    -0.077 C 
ATOM      9  C   UNL     1      35.207 -20.609 -20.063  0.00  0.00    -0.001 C 
ATOM     10  C   UNL     1      32.674 -19.523 -20.769  0.00  0.00    -0.005 C 
ATOM     11  C   UNL     1      34.023 -21.267 -19.721  0.00  0.00    +0.071 C 
ATOM     12  C   UNL     1      32.770 -20.729 -20.070  0.00  0.00    +0.004 C 
ATOM     13  H   UNL     1      34.895 -19.827 -23.470  0.00  0.00    -0.084 HD
ATOM     14  H   UNL     1      35.653 -18.769 -24.568  0.00  0.00    -0.084 HD
ENDROOT
BRANCH  11  18
ATOM     15  F   UNL     1      32.975 -22.813 -18.227  0.00  0.00    -0.166 F 
ATOM     16  F   UNL     1      34.222 -23.649 -19.793  0.00  0.00    -0.166 F 
ATOM     17  F   UNL     1      35.138 -22.617 -18.113  0.00  0.00    -0.166 F 
ATOM     18  C   UNL     1      34.086 -22.560 -18.980  0.00  0.00    +0.419 C 
ENDBRANCH  11  18
TORSDOF 1
ENDMDL
MODEL 4
REMARK VINA RESULT:      -7.8      5.165      6.954
REMARK  Name = 11498153
REMARK  1 active torsions:
REMARK  status: ('A' for Active; 'I' for Inactive)
REMARK    1  A    between atoms: C_11  and  C_18
REMARK                            x       y       z     vdW  Elec       q    Type
REMARK                         _______ _______ _______ _____ _____    ______ ____
ROOT
ATOM      1  N   UNL     1      33.778 -19.392 -22.165  0.00  0.00    +0.384 N 
ATOM      2  C   UNL     1      35.386 -17.707 -21.196  0.00  0.00    +0.001 C 
ATOM      3  C   UNL     1      35.719 -18.408 -23.443  0.00  0.00    +0.001 C 
ATOM      4  C   UNL     1      36.489 -18.256 -22.120  0.00  0.00    +0.004 C 
ATOM      5  C   UNL     1      34.811 -16.661 -22.119  0.00  0.00    -0.029 C 
ATOM      6  C   UNL     1      35.007 -17.076 -23.451  0.00  0.00    -0.029 C 
ATOM      7  C   UNL     1      34.376 -18.842 -20.937  0.00  0.00    -0.077 C 
ATOM      8  C   UNL     1      34.721 -19.573 -23.281  0.00  0.00    -0.077 C 
ATOM      9  C   UNL     1      34.144 -15.488 -21.824  0.00  0.00    -0.001 C 
ATOM     10  C   UNL     1      34.542 -16.327 -24.513  0.00  0.00    -0.005 C 
ATOM     11  C   UNL     1      33.678 -14.718 -22.893  0.00  0.00    +0.071 C 
ATOM     12  C   UNL     1      33.876 -15.133 -24.223  0.00  0.00    +0.004 C 
ATOM     13  H   UNL     1      33.042 -18.756 -22.472  0.00  0.00    -0.084 HD
ATOM     14  H   UNL     1      33.433 -20.322 -21.927  0.00  0.00    -0.084 HD
ENDROOT
BRANCH  11  18
ATOM     15  F   UNL     1      32.693 -13.233 -21.297  0.00  0.00    -0.166 F 
ATOM     16  F   UNL     1      33.641 -12.331 -23.028  0.00  0.00    -0.166 F 
ATOM     17  F   UNL     1      31.748 -13.377 -23.250  0.00  0.00    -0.166 F 
ATOM     18  C   UNL     1      32.957 -13.441 -22.621  0.00  0.00    +0.419 C 
ENDBRANCH  11  18
TORSDOF 1
ENDMDL
MODEL 5
REMARK VINA RESULT:      -7.8      5.572      7.353
REMARK  Name = 11498153
REMARK  1 active torsions:
REMARK  status: ('A' for Active; 'I' for Inactive)
REMARK    1  A    between atoms: C_11  and  C_18
REMARK                            x       y       z     vdW  Elec       q    Type
REMARK                         _______ _______ _______ _____ _____    ______ ____
ROOT
ATOM      1  N   UNL     1      33.705 -19.107 -21.934  0.00  0.00    +0.384 N 
ATOM      2  C   UNL     1      35.503 -17.363 -21.623  0.00  0.00    +0.001 C 
ATOM      3  C   UNL     1      35.587 -18.723 -23.571  0.00  0.00    +0.001 C 
ATOM      4  C   UNL     1      36.480 -18.258 -22.407  0.00  0.00    +0.004 C 
ATOM      5  C   UNL     1      34.919 -16.589 -22.779  0.00  0.00    -0.029 C 
ATOM      6  C   UNL     1      34.969 -17.394 -23.934  0.00  0.00    -0.029 C 
ATOM      7  C   UNL     1      34.444 -18.276 -20.970  0.00  0.00    -0.077 C 
ATOM      8  C   UNL     1      34.532 -19.693 -23.002  0.00  0.00    -0.077 C 
ATOM      9  C   UNL     1      34.362 -15.326 -22.808  0.00  0.00    -0.001 C 
ATOM     10  C   UNL     1      34.463 -16.952 -25.140  0.00  0.00    -0.005 C 
ATOM     11  C   UNL     1      33.856 -14.866 -24.027  0.00  0.00    +0.071 C 
ATOM     12  C   UNL     1      33.907 -15.671 -25.181  0.00  0.00    +0.004 C 
ATOM     13  H   UNL     1      32.989 -18.526 -22.370  0.00  0.00    -0.084 HD
ATOM     14  H   UNL     1      33.321 -19.890 -21.406  0.00  0.00    -0.084 HD
ENDROOT
BRANCH  11  18
ATOM     15  F   UNL     1      31.999 -13.432 -23.561  0.00  0.00    -0.166 F 
ATOM     16  F   UNL     1      33.977 -12.545 -23.464  0.00  0.00    -0.166 F 
ATOM     17  F   UNL     1      33.115 -13.065 -25.391  0.00  0.00    -0.166 F 
ATOM     18  C   UNL     1      33.249 -13.505 -24.107  0.00  0.00    +0.419 C 
ENDBRANCH  11  18
TORSDOF 1
ENDMDL
MODEL 6
REMARK VINA RESULT:      -7.6     10.394     12.374
REMARK  Name = 11498153
REMARK  1 active torsions:
REMARK  status: ('A' for Active; 'I' for Inactive)
REMARK    1  A    between atoms: C_11  and  C_18
REMARK                            x       y       z     vdW  Elec       q    Type
REMARK                         _______ _______ _______ _____ _____    ______ ____
ROOT
ATOM      1  N   UNL     1      30.598  -6.162 -23.282  0.00  0.00    +0.384 N 
ATOM      2  C   UNL     1      32.133  -8.036 -23.988  0.00  0.00    +0.001 C 
ATOM      3  C   UNL     1      33.004  -6.357 -22.549  0.00  0.00    +0.001 C 
ATOM      4  C   UNL     1      33.330  -7.074 -23.870  0.00  0.00    +0.004 C 
ATOM      5  C   UNL     1      32.113  -8.555 -22.571  0.00  0.00    -0.029 C 
ATOM      6  C   UNL     1      32.628  -7.561 -21.718  0.00  0.00    -0.029 C 
ATOM      7  C   UNL     1      30.877  -7.195 -24.294  0.00  0.00    -0.077 C 
ATOM      8  C   UNL     1      31.785  -5.444 -22.791  0.00  0.00    -0.077 C 
ATOM      9  C   UNL     1      31.649  -9.758 -22.075  0.00  0.00    -0.001 C 
ATOM     10  C   UNL     1      32.692  -7.749 -20.352  0.00  0.00    -0.005 C 
ATOM     11  C   UNL     1      31.719  -9.961 -20.695  0.00  0.00    +0.071 C 
ATOM     12  C   UNL     1      32.235  -8.967 -19.842  0.00  0.00    +0.004 C 
ATOM     13  H   UNL     1      30.147  -6.613 -22.486  0.00  0.00    -0.084 HD
ATOM     14  H   UNL     1      30.008  -5.465 -23.736  0.00  0.00    -0.084 HD
ENDROOT
BRANCH  11  18
ATOM     15  F   UNL     1      32.093 -12.292 -20.307  0.00  0.00    -0.166 F 
ATOM     16  F   UNL     1      31.033 -11.195 -18.764  0.00  0.00    -0.166 F 
ATOM     17  F   UNL     1      30.044 -11.648 -20.646  0.00  0.00    -0.166 F 
ATOM     18  C   UNL     1      31.234 -11.247 -20.114  0.00  0.00    +0.419 C 
ENDBRANCH  11  18
TORSDOF 1
ENDMDL
MODEL 7
REMARK VINA RESULT:      -7.6      5.528      6.944
REMARK  Name = 11498153
REMARK  1 active torsions:
REMARK  status: ('A' for Active; 'I' for Inactive)
REMARK    1  A    between atoms: C_11  and  C_18
REMARK                            x       y       z     vdW  Elec       q    Type
REMARK                         _______ _______ _______ _____ _____    ______ ____
ROOT
ATOM      1  N   UNL     1      36.800 -18.304 -22.728  0.00  0.00    +0.384 N 
ATOM      2  C   UNL     1      34.326 -18.423 -23.208  0.00  0.00    +0.001 C 
ATOM      3  C   UNL     1      35.026 -18.405 -20.937  0.00  0.00    +0.001 C 
ATOM      4  C   UNL     1      34.128 -19.205 -21.896  0.00  0.00    +0.004 C 
ATOM      5  C   UNL     1      34.177 -17.022 -22.668  0.00  0.00    -0.029 C 
ATOM      6  C   UNL     1      34.592 -17.010 -21.322  0.00  0.00    -0.029 C 
ATOM      7  C   UNL     1      35.763 -18.683 -23.703  0.00  0.00    -0.077 C 
ATOM      8  C   UNL     1      36.494 -18.662 -21.334  0.00  0.00    -0.077 C 
ATOM      9  C   UNL     1      33.763 -15.867 -23.301  0.00  0.00    -0.001 C 
ATOM     10  C   UNL     1      34.600 -15.845 -20.583  0.00  0.00    -0.005 C 
ATOM     11  C   UNL     1      33.758 -14.684 -22.558  0.00  0.00    +0.071 C 
ATOM     12  C   UNL     1      34.172 -14.673 -21.213  0.00  0.00    +0.004 C 
ATOM     13  H   UNL     1      36.926 -17.293 -22.777  0.00  0.00    -0.084 HD
ATOM     14  H   UNL     1      37.639 -18.826 -22.981  0.00  0.00    -0.084 HD
ENDROOT
BRANCH  11  18
ATOM     15  F   UNL     1      32.530 -12.638 -22.393  0.00  0.00    -0.166 F 
ATOM     16  F   UNL     1      34.346 -12.603 -23.580  0.00  0.00    -0.166 F 
ATOM     17  F   UNL     1      32.580 -13.624 -24.330  0.00  0.00    -0.166 F 
ATOM     18  C   UNL     1      33.314 -13.413 -23.200  0.00  0.00    +0.419 C 
ENDBRANCH  11  18
TORSDOF 1
ENDMDL
MODEL 8
REMARK VINA RESULT:      -7.6     10.861     12.545
REMARK  Name = 11498153
REMARK  1 active torsions:
REMARK  status: ('A' for Active; 'I' for Inactive)
REMARK    1  A    between atoms: C_11  and  C_18
REMARK                            x       y       z     vdW  Elec       q    Type
REMARK                         _______ _______ _______ _____ _____    ______ ____
ROOT
ATOM      1  N   UNL     1      32.905  -8.468 -19.947  0.00  0.00    +0.384 N 
ATOM      2  C   UNL     1      31.348  -8.594 -21.929  0.00  0.00    +0.001 C 
ATOM      3  C   UNL     1      32.825  -6.738 -21.782  0.00  0.00    +0.001 C 
ATOM      4  C   UNL     1      31.335  -7.056 -21.993  0.00  0.00    +0.004 C 
ATOM      5  C   UNL     1      32.539  -8.853 -22.819  0.00  0.00    -0.029 C 
ATOM      6  C   UNL     1      33.415  -7.753 -22.732  0.00  0.00    -0.029 C 
ATOM      7  C   UNL     1      31.638  -9.006 -20.472  0.00  0.00    -0.077 C 
ATOM      8  C   UNL     1      33.181  -7.071 -20.319  0.00  0.00    -0.077 C 
ATOM      9  C   UNL     1      32.846  -9.956 -23.591  0.00  0.00    -0.001 C 
ATOM     10  C   UNL     1      34.614  -7.734 -23.416  0.00  0.00    -0.005 C 
ATOM     11  C   UNL     1      34.054  -9.941 -24.294  0.00  0.00    +0.071 C 
ATOM     12  C   UNL     1      34.928  -8.842 -24.208  0.00  0.00    +0.004 C 
ATOM     13  H   UNL     1      33.666  -9.047 -20.302  0.00  0.00    -0.084 HD
ATOM     14  H   UNL     1      32.827  -8.485 -18.931  0.00  0.00    -0.084 HD
ENDROOT
BRANCH  11  18
ATOM     15  F   UNL     1      33.501 -11.398 -26.109  0.00  0.00    -0.166 F 
ATOM     16  F   UNL     1      35.602 -10.943 -25.817  0.00  0.00    -0.166 F 
ATOM     17  F   UNL     1      34.573 -12.258 -24.424  0.00  0.00    -0.166 F 
ATOM     18  C   UNL     1      34.425 -11.109 -25.145  0.00  0.00    +0.419 C 
ENDBRANCH  11  18
TORSDOF 1
ENDMDL
MODEL 9
REMARK VINA RESULT:      -7.4     14.005     16.129
REMARK  Name = 11498153
REMARK  1 active torsions:
REMARK  status: ('A' for Active; 'I' for Inactive)
REMARK    1  A    between atoms: C_11  and  C_18
REMARK                            x       y       z     vdW  Elec       q    Type
REMARK                         _______ _______ _______ _____ _____    ______ ____
ROOT
ATOM      1  N   UNL     1      31.754  -8.904 -23.702  0.00  0.00    +0.384 N 
ATOM      2  C   UNL     1      31.599  -6.494 -22.970  0.00  0.00    +0.001 C 
ATOM      3  C   UNL     1      33.689  -7.602 -22.739  0.00  0.00    +0.001 C 
ATOM      4  C   UNL     1      32.694  -6.762 -21.920  0.00  0.00    +0.004 C 
ATOM      5  C   UNL     1      32.482  -6.108 -24.131  0.00  0.00    -0.029 C 
ATOM      6  C   UNL     1      33.721  -6.765 -23.995  0.00  0.00    -0.029 C 
ATOM      7  C   UNL     1      30.866  -7.823 -23.241  0.00  0.00    -0.077 C 
ATOM      8  C   UNL     1      33.046  -8.979 -23.002  0.00  0.00    -0.077 C 
ATOM      9  C   UNL     1      32.213  -5.301 -25.219  0.00  0.00    -0.001 C 
ATOM     10  C   UNL     1      34.715  -6.626 -24.943  0.00  0.00    -0.005 C 
ATOM     11  C   UNL     1      33.217  -5.146 -26.178  0.00  0.00    +0.071 C 
ATOM     12  C   UNL     1      34.455  -5.802 -26.041  0.00  0.00    +0.004 C 
ATOM     13  H   UNL     1      31.939  -8.760 -24.695  0.00  0.00    -0.084 HD
ATOM     14  H   UNL     1      31.270  -9.779 -23.506  0.00  0.00    -0.084 HD
ENDROOT
BRANCH  11  18
ATOM     15  F   UNL     1      32.922  -4.969 -28.545  0.00  0.00    -0.166 F 
ATOM     16  F   UNL     1      31.796  -3.589 -27.307  0.00  0.00    -0.166 F 
ATOM     17  F   UNL     1      33.943  -3.336 -27.536  0.00  0.00    -0.166 F 
ATOM     18  C   UNL     1      32.973  -4.279 -27.367  0.00  0.00    +0.419 C 
ENDBRANCH  11  18
TORSDOF 1
ENDMDL
