MODEL 1
REMARK VINA RESULT:      -7.3      0.000      0.000
REMARK  Name = 32938
REMARK  6 active torsions:
REMARK  status: ('A' for Active; 'I' for Inactive)
REMARK    1  A    between atoms: C_2  and  C_9
REMARK    2  A    between atoms: C_2  and  O_15
REMARK    3  A    between atoms: C_3  and  C_20
REMARK    4  A    between atoms: O_15  and  C_17
REMARK    5  A    between atoms: C_17  and  C_18
REMARK    6  A    between atoms: C_20  and  C_21
REMARK                            x       y       z     vdW  Elec       q    Type
REMARK                         _______ _______ _______ _____ _____    ______ ____
ROOT
ATOM      1  N   UNL     1      35.677 -23.600 -12.027  0.00  0.00    +0.386 N 
ATOM      2  C   UNL     1      36.061 -23.446 -14.963  0.00  0.00    +0.151 C 
ATOM      3  C   UNL     1      34.779 -24.060 -14.313  0.00  0.00    +0.024 C 
ATOM      4  C   UNL     1      36.703 -22.450 -13.969  0.00  0.00    +0.022 C 
ATOM      5  C   UNL     1      35.102 -24.624 -12.910  0.00  0.00    -0.073 C 
ATOM      6  C   UNL     1      36.926 -23.069 -12.582  0.00  0.00    -0.074 C 
ATOM      7  C   UNL     1      35.903 -24.146 -10.688  0.00  0.00    -0.101 C 
ATOM      8  H   UNL     1      35.009 -22.832 -11.954  0.00  0.00    -0.080 HD
ENDROOT
BRANCH   2   9
ATOM      9  C   UNL     1      35.809 -22.887 -16.363  0.00  0.00    +0.013 C 
ATOM     10  C   UNL     1      34.585 -23.112 -16.991  0.00  0.00    -0.001 C 
ATOM     11  C   UNL     1      36.802 -22.155 -17.009  0.00  0.00    -0.001 C 
ATOM     12  C   UNL     1      34.355 -22.602 -18.270  0.00  0.00    -0.000 C 
ATOM     13  C   UNL     1      36.573 -21.645 -18.287  0.00  0.00    -0.000 C 
ATOM     14  C   UNL     1      35.349 -21.869 -18.917  0.00  0.00    -0.000 C 
ENDBRANCH   2   9
BRANCH   2  15
ATOM     15  O   UNL     1      37.047 -24.486 -15.133  0.00  0.00    -0.452 OA
BRANCH  15  17
ATOM     16  O   UNL     1      35.621 -26.117 -15.929  0.00  0.00    -0.250 OA
ATOM     17  C   UNL     1      36.552 -25.757 -15.222  0.00  0.00    +0.317 C 
BRANCH  17  18
ATOM     18  C   UNL     1      37.346 -26.656 -14.304  0.00  0.00    +0.110 C 
ATOM     19  C   UNL     1      38.607 -25.981 -13.792  0.00  0.00    +0.012 C 
ENDBRANCH  17  18
ENDBRANCH  15  17
ENDBRANCH   2  15
BRANCH   3  20
ATOM     20  C   UNL     1      33.605 -23.071 -14.234  0.00  0.00    +0.028 C 
BRANCH  20  21
ATOM     21  C   UNL     1      32.300 -23.796 -14.243  0.00  0.00    -0.026 C 
ATOM     22  C   UNL     1      31.216 -23.366 -14.899  0.00  0.00    -0.005 C 
ENDBRANCH  20  21
ENDBRANCH   3  20
TORSDOF 6
ENDMDL
MODEL 2
REMARK VINA RESULT:      -7.1     14.266     17.153
REMARK  Name = 32938
REMARK  6 active torsions:
REMARK  status: ('A' for Active; 'I' for Inactive)
REMARK    1  A    between atoms: C_2  and  C_9
REMARK    2  A    between atoms: C_2  and  O_15
REMARK    3  A    between atoms: C_3  and  C_20
REMARK    4  A    between atoms: O_15  and  C_17
REMARK    5  A    between atoms: C_17  and  C_18
REMARK    6  A    between atoms: C_20  and  C_21
REMARK                            x       y       z     vdW  Elec       q    Type
REMARK                         _______ _______ _______ _____ _____    ______ ____
ROOT
ATOM      1  N   UNL     1      32.316 -12.771 -22.707  0.00  0.00    +0.386 N 
ATOM      2  C   UNL     1      32.635  -9.826 -22.848  0.00  0.00    +0.151 C 
ATOM      3  C   UNL     1      33.602 -10.813 -23.576  0.00  0.00    +0.024 C 
ATOM      4  C   UNL     1      31.270 -10.524 -22.634  0.00  0.00    +0.022 C 
ATOM      5  C   UNL     1      33.649 -12.170 -22.834  0.00  0.00    -0.073 C 
ATOM      6  C   UNL     1      31.413 -11.893 -21.954  0.00  0.00    -0.074 C 
ATOM      7  C   UNL     1      32.404 -14.084 -22.066  0.00  0.00    -0.101 C 
ATOM      8  H   UNL     1      31.932 -12.893 -23.644  0.00  0.00    -0.080 HD
ENDROOT
BRANCH   2   9
ATOM      9  C   UNL     1      32.560  -8.459 -23.525  0.00  0.00    +0.013 C 
ATOM     10  C   UNL     1      33.731  -7.756 -23.805  0.00  0.00    -0.001 C 
ATOM     11  C   UNL     1      31.322  -7.916 -23.863  0.00  0.00    -0.001 C 
ATOM     12  C   UNL     1      33.662  -6.507 -24.423  0.00  0.00    -0.000 C 
ATOM     13  C   UNL     1      31.252  -6.667 -24.481  0.00  0.00    -0.000 C 
ATOM     14  C   UNL     1      32.423  -5.963 -24.761  0.00  0.00    -0.000 C 
ENDBRANCH   2   9
BRANCH   2  15
ATOM     15  O   UNL     1      33.134  -9.573 -21.518  0.00  0.00    -0.452 OA
BRANCH  15  17
ATOM     16  O   UNL     1      31.246  -9.218 -20.238  0.00  0.00    -0.250 OA
ATOM     17  C   UNL     1      32.310  -8.841 -20.709  0.00  0.00    +0.317 C 
BRANCH  17  18
ATOM     18  C   UNL     1      32.928  -7.481 -20.484  0.00  0.00    +0.110 C 
ATOM     19  C   UNL     1      31.926  -6.357 -20.685  0.00  0.00    +0.012 C 
ENDBRANCH  17  18
ENDBRANCH  15  17
ENDBRANCH   2  15
BRANCH   3  20
ATOM     20  C   UNL     1      33.252 -11.027 -25.057  0.00  0.00    +0.028 C 
BRANCH  20  21
ATOM     21  C   UNL     1      34.489 -11.194 -25.876  0.00  0.00    -0.026 C 
ATOM     22  C   UNL     1      35.512 -10.332 -25.860  0.00  0.00    -0.005 C 
ENDBRANCH  20  21
ENDBRANCH   3  20
TORSDOF 6
ENDMDL
MODEL 3
REMARK VINA RESULT:      -7.0      1.823      4.405
REMARK  Name = 32938
REMARK  6 active torsions:
REMARK  status: ('A' for Active; 'I' for Inactive)
REMARK    1  A    between atoms: C_2  and  C_9
REMARK    2  A    between atoms: C_2  and  O_15
REMARK    3  A    between atoms: C_3  and  C_20
REMARK    4  A    between atoms: O_15  and  C_17
REMARK    5  A    between atoms: C_17  and  C_18
REMARK    6  A    between atoms: C_20  and  C_21
REMARK                            x       y       z     vdW  Elec       q    Type
REMARK                         _______ _______ _______ _____ _____    ______ ____
ROOT
ATOM      1  N   UNL     1      37.521 -24.423 -15.454  0.00  0.00    +0.386 N 
ATOM      2  C   UNL     1      34.876 -23.879 -14.230  0.00  0.00    +0.151 C 
ATOM      3  C   UNL     1      35.421 -23.070 -15.451  0.00  0.00    +0.024 C 
ATOM      4  C   UNL     1      35.554 -25.269 -14.203  0.00  0.00    +0.022 C 
ATOM      5  C   UNL     1      36.967 -23.063 -15.447  0.00  0.00    -0.073 C 
ATOM      6  C   UNL     1      37.085 -25.174 -14.272  0.00  0.00    -0.074 C 
ATOM      7  C   UNL     1      38.982 -24.382 -15.523  0.00  0.00    -0.101 C 
ATOM      8  H   UNL     1      37.171 -24.904 -16.283  0.00  0.00    -0.080 HD
ENDROOT
BRANCH   2   9
ATOM      9  C   UNL     1      33.349 -23.906 -14.170  0.00  0.00    +0.013 C 
ATOM     10  C   UNL     1      32.626 -22.723 -14.312  0.00  0.00    -0.001 C 
ATOM     11  C   UNL     1      32.682 -25.113 -13.972  0.00  0.00    -0.001 C 
ATOM     12  C   UNL     1      31.232 -22.747 -14.255  0.00  0.00    -0.000 C 
ATOM     13  C   UNL     1      31.288 -25.139 -13.916  0.00  0.00    -0.000 C 
ATOM     14  C   UNL     1      30.563 -23.956 -14.058  0.00  0.00    -0.000 C 
ENDBRANCH   2   9
BRANCH   2  15
ATOM     15  O   UNL     1      35.300 -23.235 -13.011  0.00  0.00    -0.452 OA
BRANCH  15  17
ATOM     16  O   UNL     1      34.621 -24.957 -11.634  0.00  0.00    -0.250 OA
ATOM     17  C   UNL     1      35.388 -24.048 -11.916  0.00  0.00    +0.317 C 
BRANCH  17  18
ATOM     18  C   UNL     1      36.593 -23.642 -11.101  0.00  0.00    +0.110 C 
ATOM     19  C   UNL     1      37.536 -22.743 -11.883  0.00  0.00    +0.012 C 
ENDBRANCH  17  18
ENDBRANCH  15  17
ENDBRANCH   2  15
BRANCH   3  20
ATOM     20  C   UNL     1      34.892 -23.578 -16.802  0.00  0.00    +0.028 C 
BRANCH  20  21
ATOM     21  C   UNL     1      34.715 -22.447 -17.761  0.00  0.00    -0.026 C 
ATOM     22  C   UNL     1      33.779 -22.423 -18.716  0.00  0.00    -0.005 C 
ENDBRANCH  20  21
ENDBRANCH   3  20
TORSDOF 6
ENDMDL
MODEL 4
REMARK VINA RESULT:      -6.9     13.941     16.964
REMARK  Name = 32938
REMARK  6 active torsions:
REMARK  status: ('A' for Active; 'I' for Inactive)
REMARK    1  A    between atoms: C_2  and  C_9
REMARK    2  A    between atoms: C_2  and  O_15
REMARK    3  A    between atoms: C_3  and  C_20
REMARK    4  A    between atoms: O_15  and  C_17
REMARK    5  A    between atoms: C_17  and  C_18
REMARK    6  A    between atoms: C_20  and  C_21
REMARK                            x       y       z     vdW  Elec       q    Type
REMARK                         _______ _______ _______ _____ _____    ______ ____
ROOT
ATOM      1  N   UNL     1      35.122 -10.567 -25.257  0.00  0.00    +0.386 N 
ATOM      2  C   UNL     1      32.932  -9.989 -23.343  0.00  0.00    +0.151 C 
ATOM      3  C   UNL     1      33.079 -11.368 -24.062  0.00  0.00    +0.024 C 
ATOM      4  C   UNL     1      34.317  -9.302 -23.282  0.00  0.00    +0.022 C 
ATOM      5  C   UNL     1      33.805 -11.197 -25.417  0.00  0.00    -0.073 C 
ATOM      6  C   UNL     1      34.998  -9.235 -24.656  0.00  0.00    -0.074 C 
ATOM      7  C   UNL     1      35.811 -10.485 -26.545  0.00  0.00    -0.101 C 
ATOM      8  H   UNL     1      35.677 -11.148 -24.629  0.00  0.00    -0.080 HD
ENDROOT
BRANCH   2   9
ATOM      9  C   UNL     1      32.204 -10.092 -22.003  0.00  0.00    +0.013 C 
ATOM     10  C   UNL     1      31.150 -10.991 -21.851  0.00  0.00    -0.001 C 
ATOM     11  C   UNL     1      32.595  -9.287 -20.935  0.00  0.00    -0.001 C 
ATOM     12  C   UNL     1      30.485 -11.084 -20.628  0.00  0.00    -0.000 C 
ATOM     13  C   UNL     1      31.930  -9.379 -19.712  0.00  0.00    -0.000 C 
ATOM     14  C   UNL     1      30.876 -10.279 -19.559  0.00  0.00    -0.000 C 
ENDBRANCH   2   9
BRANCH   2  15
ATOM     15  O   UNL     1      32.122  -9.117 -24.158  0.00  0.00    -0.452 OA
BRANCH  15  17
ATOM     16  O   UNL     1      33.077  -7.046 -23.810  0.00  0.00    -0.250 OA
ATOM     17  C   UNL     1      32.116  -7.801 -23.788  0.00  0.00    +0.317 C 
BRANCH  17  18
ATOM     18  C   UNL     1      30.722  -7.424 -23.345  0.00  0.00    +0.110 C 
ATOM     19  C   UNL     1      30.723  -6.225 -22.413  0.00  0.00    +0.012 C 
ENDBRANCH  17  18
ENDBRANCH  15  17
ENDBRANCH   2  15
BRANCH   3  20
ATOM     20  C   UNL     1      33.790 -12.428 -23.206  0.00  0.00    +0.028 C 
BRANCH  20  21
ATOM     21  C   UNL     1      33.036 -13.717 -23.221  0.00  0.00    -0.026 C 
ATOM     22  C   UNL     1      32.603 -14.337 -22.117  0.00  0.00    -0.005 C 
ENDBRANCH  20  21
ENDBRANCH   3  20
TORSDOF 6
ENDMDL
MODEL 5
REMARK VINA RESULT:      -6.8      8.769     12.347
REMARK  Name = 32938
REMARK  6 active torsions:
REMARK  status: ('A' for Active; 'I' for Inactive)
REMARK    1  A    between atoms: C_2  and  C_9
REMARK    2  A    between atoms: C_2  and  O_15
REMARK    3  A    between atoms: C_3  and  C_20
REMARK    4  A    between atoms: O_15  and  C_17
REMARK    5  A    between atoms: C_17  and  C_18
REMARK    6  A    between atoms: C_20  and  C_21
REMARK                            x       y       z     vdW  Elec       q    Type
REMARK                         _______ _______ _______ _____ _____    ______ ____
ROOT
ATOM      1  N   UNL     1      34.056 -13.477 -24.532  0.00  0.00    +0.386 N 
ATOM      2  C   UNL     1      33.734 -15.727 -22.628  0.00  0.00    +0.151 C 
ATOM      3  C   UNL     1      33.538 -15.894 -24.169  0.00  0.00    +0.024 C 
ATOM      4  C   UNL     1      34.665 -14.520 -22.366  0.00  0.00    +0.022 C 
ATOM      5  C   UNL     1      33.097 -14.555 -24.806  0.00  0.00    -0.073 C 
ATOM      6  C   UNL     1      34.193 -13.250 -23.090  0.00  0.00    -0.074 C 
ATOM      7  C   UNL     1      33.648 -12.244 -25.207  0.00  0.00    -0.101 C 
ATOM      8  H   UNL     1      34.965 -13.760 -24.897  0.00  0.00    -0.080 HD
ENDROOT
BRANCH   2   9
ATOM      9  C   UNL     1      34.153 -17.025 -21.938  0.00  0.00    +0.013 C 
ATOM     10  C   UNL     1      35.501 -17.275 -21.685  0.00  0.00    -0.001 C 
ATOM     11  C   UNL     1      33.187 -17.957 -21.563  0.00  0.00    -0.001 C 
ATOM     12  C   UNL     1      35.883 -18.460 -21.056  0.00  0.00    -0.000 C 
ATOM     13  C   UNL     1      33.569 -19.142 -20.934  0.00  0.00    -0.000 C 
ATOM     14  C   UNL     1      34.917 -19.393 -20.681  0.00  0.00    -0.000 C 
ENDBRANCH   2   9
BRANCH   2  15
ATOM     15  O   UNL     1      32.474 -15.360 -22.030  0.00  0.00    -0.452 OA
BRANCH  15  17
ATOM     16  O   UNL     1      33.053 -14.867 -19.852  0.00  0.00    -0.250 OA
ATOM     17  C   UNL     1      32.557 -14.559 -20.926  0.00  0.00    +0.317 C 
BRANCH  17  18
ATOM     18  C   UNL     1      31.935 -13.220 -21.246  0.00  0.00    +0.110 C 
ATOM     19  C   UNL     1      31.944 -12.285 -20.049  0.00  0.00    +0.012 C 
ENDBRANCH  17  18
ENDBRANCH  15  17
ENDBRANCH   2  15
BRANCH   3  20
ATOM     20  C   UNL     1      34.783 -16.442 -24.885  0.00  0.00    +0.028 C 
BRANCH  20  21
ATOM     21  C   UNL     1      34.502 -17.778 -25.489  0.00  0.00    -0.026 C 
ATOM     22  C   UNL     1      34.590 -18.931 -24.816  0.00  0.00    -0.005 C 
ENDBRANCH  20  21
ENDBRANCH   3  20
TORSDOF 6
ENDMDL
MODEL 6
REMARK VINA RESULT:      -6.7     15.323     18.084
REMARK  Name = 32938
REMARK  6 active torsions:
REMARK  status: ('A' for Active; 'I' for Inactive)
REMARK    1  A    between atoms: C_2  and  C_9
REMARK    2  A    between atoms: C_2  and  O_15
REMARK    3  A    between atoms: C_3  and  C_20
REMARK    4  A    between atoms: O_15  and  C_17
REMARK    5  A    between atoms: C_17  and  C_18
REMARK    6  A    between atoms: C_20  and  C_21
REMARK                            x       y       z     vdW  Elec       q    Type
REMARK                         _______ _______ _______ _____ _____    ______ ____
ROOT
ATOM      1  N   UNL     1      31.799  -5.868 -24.364  0.00  0.00    +0.386 N 
ATOM      2  C   UNL     1      31.966  -8.494 -22.998  0.00  0.00    +0.151 C 
ATOM      3  C   UNL     1      32.895  -7.294 -22.629  0.00  0.00    +0.024 C 
ATOM      4  C   UNL     1      30.665  -7.949 -23.633  0.00  0.00    +0.022 C 
ATOM      5  C   UNL     1      33.083  -6.361 -23.849  0.00  0.00    -0.073 C 
ATOM      6  C   UNL     1      30.942  -6.979 -24.791  0.00  0.00    -0.074 C 
ATOM      7  C   UNL     1      32.015  -4.934 -25.469  0.00  0.00    -0.101 C 
ATOM      8  H   UNL     1      31.324  -5.372 -23.609  0.00  0.00    -0.080 HD
ENDROOT
BRANCH   2   9
ATOM      9  C   UNL     1      31.757  -9.464 -21.834  0.00  0.00    +0.013 C 
ATOM     10  C   UNL     1      31.069 -10.658 -22.039  0.00  0.00    -0.001 C 
ATOM     11  C   UNL     1      32.256  -9.151 -20.571  0.00  0.00    -0.001 C 
ATOM     12  C   UNL     1      30.877 -11.542 -20.977  0.00  0.00    -0.000 C 
ATOM     13  C   UNL     1      32.065 -10.035 -19.508  0.00  0.00    -0.000 C 
ATOM     14  C   UNL     1      31.376 -11.230 -19.712  0.00  0.00    -0.000 C 
ENDBRANCH   2   9
BRANCH   2  15
ATOM     15  O   UNL     1      32.591  -9.271 -24.041  0.00  0.00    -0.452 OA
BRANCH  15  17
ATOM     16  O   UNL     1      34.799  -9.033 -23.414  0.00  0.00    -0.250 OA
ATOM     17  C   UNL     1      33.851  -9.722 -23.765  0.00  0.00    +0.317 C 
BRANCH  17  18
ATOM     18  C   UNL     1      33.889 -11.219 -23.962  0.00  0.00    +0.110 C 
ATOM     19  C   UNL     1      33.951 -11.601 -25.431  0.00  0.00    +0.012 C 
ENDBRANCH  17  18
ENDBRANCH  15  17
ENDBRANCH   2  15
BRANCH   3  20
ATOM     20  C   UNL     1      32.400  -6.492 -21.415  0.00  0.00    +0.028 C 
BRANCH  20  21
ATOM     21  C   UNL     1      31.635  -5.286 -21.852  0.00  0.00    -0.026 C 
ATOM     22  C   UNL     1      30.378  -5.027 -21.475  0.00  0.00    -0.005 C 
ENDBRANCH  20  21
ENDBRANCH   3  20
TORSDOF 6
ENDMDL
MODEL 7
REMARK VINA RESULT:      -6.5     15.642     18.311
REMARK  Name = 32938
REMARK  6 active torsions:
REMARK  status: ('A' for Active; 'I' for Inactive)
REMARK    1  A    between atoms: C_2  and  C_9
REMARK    2  A    between atoms: C_2  and  O_15
REMARK    3  A    between atoms: C_3  and  C_20
REMARK    4  A    between atoms: O_15  and  C_17
REMARK    5  A    between atoms: C_17  and  C_18
REMARK    6  A    between atoms: C_20  and  C_21
REMARK                            x       y       z     vdW  Elec       q    Type
REMARK                         _______ _______ _______ _____ _____    ______ ____
ROOT
ATOM      1  N   UNL     1      31.198  -5.356 -22.093  0.00  0.00    +0.386 N 
ATOM      2  C   UNL     1      32.250  -8.024 -22.850  0.00  0.00    +0.151 C 
ATOM      3  C   UNL     1      31.410  -7.142 -23.828  0.00  0.00    +0.024 C 
ATOM      4  C   UNL     1      32.928  -7.109 -21.802  0.00  0.00    +0.022 C 
ATOM      5  C   UNL     1      30.464  -6.208 -23.038  0.00  0.00    -0.073 C 
ATOM      6  C   UNL     1      31.929  -6.167 -21.114  0.00  0.00    -0.074 C 
ATOM      7  C   UNL     1      30.283  -4.437 -21.415  0.00  0.00    -0.101 C 
ATOM      8  H   UNL     1      31.876  -4.808 -22.621  0.00  0.00    -0.080 HD
ENDROOT
BRANCH   2   9
ATOM      9  C   UNL     1      33.194  -8.983 -23.574  0.00  0.00    +0.013 C 
ATOM     10  C   UNL     1      34.513  -8.607 -23.821  0.00  0.00    -0.001 C 
ATOM     11  C   UNL     1      32.734 -10.231 -23.987  0.00  0.00    -0.001 C 
ATOM     12  C   UNL     1      35.374  -9.482 -24.484  0.00  0.00    -0.000 C 
ATOM     13  C   UNL     1      33.594 -11.107 -24.650  0.00  0.00    -0.000 C 
ATOM     14  C   UNL     1      34.914 -10.732 -24.897  0.00  0.00    -0.000 C 
ENDBRANCH   2   9
BRANCH   2  15
ATOM     15  O   UNL     1      31.356  -8.862 -22.087  0.00  0.00    -0.452 OA
BRANCH  15  17
ATOM     16  O   UNL     1      32.662  -8.982 -20.188  0.00  0.00    -0.250 OA
ATOM     17  C   UNL     1      31.915  -9.492 -21.011  0.00  0.00    +0.317 C 
BRANCH  17  18
ATOM     18  C   UNL     1      31.459 -10.932 -20.997  0.00  0.00    +0.110 C 
ATOM     19  C   UNL     1      31.557 -11.550 -19.612  0.00  0.00    +0.012 C 
ENDBRANCH  17  18
ENDBRANCH  15  17
ENDBRANCH   2  15
BRANCH   3  20
ATOM     20  C   UNL     1      32.273  -6.325 -24.804  0.00  0.00    +0.028 C 
BRANCH  20  21
ATOM     21  C   UNL     1      31.597  -5.044 -25.166  0.00  0.00    -0.026 C 
ATOM     22  C   UNL     1      32.170  -4.085 -25.902  0.00  0.00    -0.005 C 
ENDBRANCH  20  21
ENDBRANCH   3  20
TORSDOF 6
ENDMDL
MODEL 8
REMARK VINA RESULT:      -6.3     11.478     14.188
REMARK  Name = 32938
REMARK  6 active torsions:
REMARK  status: ('A' for Active; 'I' for Inactive)
REMARK    1  A    between atoms: C_2  and  C_9
REMARK    2  A    between atoms: C_2  and  O_15
REMARK    3  A    between atoms: C_3  and  C_20
REMARK    4  A    between atoms: O_15  and  C_17
REMARK    5  A    between atoms: C_17  and  C_18
REMARK    6  A    between atoms: C_20  and  C_21
REMARK                            x       y       z     vdW  Elec       q    Type
REMARK                         _______ _______ _______ _____ _____    ______ ____
ROOT
ATOM      1  N   UNL     1      33.775 -15.335 -21.506  0.00  0.00    +0.386 N 
ATOM      2  C   UNL     1      32.939 -12.888 -22.958  0.00  0.00    +0.151 C 
ATOM      3  C   UNL     1      32.209 -13.394 -21.673  0.00  0.00    +0.024 C 
ATOM      4  C   UNL     1      34.392 -13.420 -22.955  0.00  0.00    +0.022 C 
ATOM      5  C   UNL     1      32.365 -14.927 -21.532  0.00  0.00    -0.073 C 
ATOM      6  C   UNL     1      34.459 -14.939 -22.741  0.00  0.00    -0.074 C 
ATOM      7  C   UNL     1      33.888 -16.779 -21.299  0.00  0.00    -0.101 C 
ATOM      8  H   UNL     1      34.229 -14.859 -20.725  0.00  0.00    -0.080 HD
ENDROOT
BRANCH   2   9
ATOM      9  C   UNL     1      32.805 -11.379 -23.163  0.00  0.00    +0.013 C 
ATOM     10  C   UNL     1      31.575 -10.757 -22.962  0.00  0.00    -0.001 C 
ATOM     11  C   UNL     1      33.914 -10.629 -23.549  0.00  0.00    -0.001 C 
ATOM     12  C   UNL     1      31.452  -9.380 -23.150  0.00  0.00    -0.000 C 
ATOM     13  C   UNL     1      33.792  -9.252 -23.737  0.00  0.00    -0.000 C 
ATOM     14  C   UNL     1      32.561  -8.628 -23.536  0.00  0.00    -0.000 C 
ENDBRANCH   2   9
BRANCH   2  15
ATOM     15  O   UNL     1      32.326 -13.492 -24.117  0.00  0.00    -0.452 OA
BRANCH  15  17
ATOM     16  O   UNL     1      33.822 -12.530 -25.587  0.00  0.00    -0.250 OA
ATOM     17  C   UNL     1      33.058 -13.430 -25.270  0.00  0.00    +0.317 C 
BRANCH  17  18
ATOM     18  C   UNL     1      32.772 -14.662 -26.096  0.00  0.00    +0.110 C 
ATOM     19  C   UNL     1      33.640 -15.840 -25.686  0.00  0.00    +0.012 C 
ENDBRANCH  17  18
ENDBRANCH  15  17
ENDBRANCH   2  15
BRANCH   3  20
ATOM     20  C   UNL     1      32.678 -12.690 -20.390  0.00  0.00    +0.028 C 
BRANCH  20  21
ATOM     21  C   UNL     1      31.578 -11.866 -19.805  0.00  0.00    -0.026 C 
ATOM     22  C   UNL     1      31.758 -10.644 -19.293  0.00  0.00    -0.005 C 
ENDBRANCH  20  21
ENDBRANCH   3  20
TORSDOF 6
ENDMDL
MODEL 9
REMARK VINA RESULT:      -6.2     10.818     13.855
REMARK  Name = 32938
REMARK  6 active torsions:
REMARK  status: ('A' for Active; 'I' for Inactive)
REMARK    1  A    between atoms: C_2  and  C_9
REMARK    2  A    between atoms: C_2  and  O_15
REMARK    3  A    between atoms: C_3  and  C_20
REMARK    4  A    between atoms: O_15  and  C_17
REMARK    5  A    between atoms: C_17  and  C_18
REMARK    6  A    between atoms: C_20  and  C_21
REMARK                            x       y       z     vdW  Elec       q    Type
REMARK                         _______ _______ _______ _____ _____    ______ ____
ROOT
ATOM      1  N   UNL     1      31.405 -12.099 -21.088  0.00  0.00    +0.386 N 
ATOM      2  C   UNL     1      33.200 -13.445 -23.027  0.00  0.00    +0.151 C 
ATOM      3  C   UNL     1      33.172 -13.815 -21.509  0.00  0.00    +0.024 C 
ATOM      4  C   UNL     1      31.839 -12.823 -23.420  0.00  0.00    +0.022 C 
ATOM      5  C   UNL     1      32.719 -12.600 -20.666  0.00  0.00    -0.073 C 
ATOM      6  C   UNL     1      31.432 -11.670 -22.490  0.00  0.00    -0.074 C 
ATOM      7  C   UNL     1      30.974 -10.999 -20.225  0.00  0.00    -0.101 C 
ATOM      8  H   UNL     1      30.732 -12.861 -21.002  0.00  0.00    -0.080 HD
ENDROOT
BRANCH   2   9
ATOM      9  C   UNL     1      33.659 -14.603 -23.913  0.00  0.00    +0.013 C 
ATOM     10  C   UNL     1      34.743 -15.387 -23.525  0.00  0.00    -0.001 C 
ATOM     11  C   UNL     1      32.993 -14.872 -25.107  0.00  0.00    -0.001 C 
ATOM     12  C   UNL     1      35.163 -16.444 -24.334  0.00  0.00    -0.000 C 
ATOM     13  C   UNL     1      33.412 -15.928 -25.916  0.00  0.00    -0.000 C 
ATOM     14  C   UNL     1      34.496 -16.714 -25.529  0.00  0.00    -0.000 C 
ENDBRANCH   2   9
BRANCH   2  15
ATOM     15  O   UNL     1      34.163 -12.391 -23.237  0.00  0.00    -0.452 OA
BRANCH  15  17
ATOM     16  O   UNL     1      33.853 -12.030 -25.495  0.00  0.00    -0.250 OA
ATOM     17  C   UNL     1      33.961 -11.621 -24.348  0.00  0.00    +0.317 C 
BRANCH  17  18
ATOM     18  C   UNL     1      33.888 -10.171 -23.931  0.00  0.00    +0.110 C 
ATOM     19  C   UNL     1      35.054  -9.361 -24.471  0.00  0.00    +0.012 C 
ENDBRANCH  17  18
ENDBRANCH  15  17
ENDBRANCH   2  15
BRANCH   3  20
ATOM     20  C   UNL     1      32.296 -15.038 -21.198  0.00  0.00    +0.028 C 
BRANCH  20  21
ATOM     21  C   UNL     1      33.110 -16.134 -20.594  0.00  0.00    -0.026 C 
ATOM     22  C   UNL     1      34.413 -16.022 -20.312  0.00  0.00    -0.005 C 
ENDBRANCH  20  21
ENDBRANCH   3  20
TORSDOF 6
ENDMDL
