MODEL 1
REMARK VINA RESULT:      -9.4      0.000      0.000
REMARK  Name = 124653
REMARK  4 active torsions:
REMARK  status: ('A' for Active; 'I' for Inactive)
REMARK    1  A    between atoms: C_7  and  O_23
REMARK    2  A    between atoms: C_7  and  C_26
REMARK    3  A    between atoms: C_26  and  C_27
REMARK    4  A    between atoms: C_27  and  O_28
REMARK                            x       y       z     vdW  Elec       q    Type
REMARK                         _______ _______ _______ _____ _____    ______ ____
ROOT
ATOM      1  O   UNL     1      33.660 -24.925 -12.220  0.00  0.00    -0.296 OA
ATOM      2  O   UNL     1      39.555 -26.441 -14.660  0.00  0.00    -0.287 OA
ATOM      3  C   UNL     1      32.859 -23.541 -15.925  0.00  0.00    +0.004 C 
ATOM      4  C   UNL     1      31.745 -23.796 -14.879  0.00  0.00    +0.036 C 
ATOM      5  C   UNL     1      34.224 -23.231 -15.289  0.00  0.00    +0.008 C 
ATOM      6  C   UNL     1      34.663 -24.445 -14.412  0.00  0.00    +0.065 C 
ATOM      7  C   UNL     1      30.535 -23.964 -15.830  0.00  0.00    +0.142 C 
ATOM      8  C   UNL     1      32.239 -22.506 -16.860  0.00  0.00    +0.003 C 
ATOM      9  C   UNL     1      32.145 -25.029 -14.061  0.00  0.00    +0.067 C 
ATOM     10  C   UNL     1      36.086 -24.258 -13.779  0.00  0.00    +0.040 C 
ATOM     11  C   UNL     1      30.743 -22.877 -16.907  0.00  0.00    +0.034 C 
ATOM     12  C   UNL     1      35.277 -22.915 -16.363  0.00  0.00    +0.004 C 
ATOM     13  C   UNL     1      33.513 -24.792 -13.434  0.00  0.00    +0.151 C 
ATOM     14  C   UNL     1      36.663 -22.670 -15.750  0.00  0.00    +0.019 C 
ATOM     15  C   UNL     1      31.519 -22.598 -13.915  0.00  0.00    +0.003 C 
ATOM     16  C   UNL     1      37.063 -23.888 -14.918  0.00  0.00    -0.038 C 
ATOM     17  C   UNL     1      36.126 -23.141 -12.710  0.00  0.00    +0.009 C 
ATOM     18  C   UNL     1      36.513 -25.543 -13.080  0.00  0.00    -0.019 C 
ATOM     19  C   UNL     1      37.635 -22.252 -16.862  0.00  0.00    +0.004 C 
ATOM     20  C   UNL     1      38.169 -24.607 -15.184  0.00  0.00    +0.034 C 
ATOM     21  C   UNL     1      37.610 -26.252 -13.354  0.00  0.00    +0.038 C 
ATOM     22  C   UNL     1      38.529 -25.817 -14.415  0.00  0.00    +0.195 C 
ENDROOT
BRANCH   7  23
ATOM     23  O   UNL     1      30.545 -25.250 -16.446  0.00  0.00    -0.380 OA
ATOM     24  H   UNL     1      31.417 -25.414 -16.837  0.00  0.00    +0.211 HD
ENDBRANCH   7  23
BRANCH   7  26
ATOM     25  O   UNL     1      28.771 -24.797 -14.464  0.00  0.00    -0.291 OA
ATOM     26  C   UNL     1      29.195 -23.879 -15.165  0.00  0.00    +0.204 C 
BRANCH  26  27
ATOM     27  C   UNL     1      28.405 -22.610 -15.406  0.00  0.00    +0.204 C 
BRANCH  27  28
ATOM     28  O   UNL     1      27.111 -22.912 -15.882  0.00  0.00    -0.375 OA
ATOM     29  H   UNL     1      27.025 -22.613 -16.801  0.00  0.00    +0.211 HD
ENDBRANCH  27  28
ENDBRANCH  26  27
ENDBRANCH   7  26
TORSDOF 4
ENDMDL
MODEL 2
REMARK VINA RESULT:      -8.2     10.768     13.286
REMARK  Name = 124653
REMARK  4 active torsions:
REMARK  status: ('A' for Active; 'I' for Inactive)
REMARK    1  A    between atoms: C_7  and  O_23
REMARK    2  A    between atoms: C_7  and  C_26
REMARK    3  A    between atoms: C_26  and  C_27
REMARK    4  A    between atoms: C_27  and  O_28
REMARK                            x       y       z     vdW  Elec       q    Type
REMARK                         _______ _______ _______ _____ _____    ______ ____
ROOT
ATOM      1  O   UNL     1      33.881 -14.189 -20.942  0.00  0.00    -0.296 OA
ATOM      2  O   UNL     1      34.801  -9.906 -25.822  0.00  0.00    -0.287 OA
ATOM      3  C   UNL     1      34.669 -17.006 -23.721  0.00  0.00    +0.004 C 
ATOM      4  C   UNL     1      34.676 -17.317 -22.203  0.00  0.00    +0.036 C 
ATOM      5  C   UNL     1      33.758 -15.825 -24.090  0.00  0.00    +0.008 C 
ATOM      6  C   UNL     1      34.254 -14.547 -23.345  0.00  0.00    +0.065 C 
ATOM      7  C   UNL     1      35.578 -18.577 -22.204  0.00  0.00    +0.142 C 
ATOM      8  C   UNL     1      34.397 -18.364 -24.361  0.00  0.00    +0.003 C 
ATOM      9  C   UNL     1      35.227 -16.086 -21.476  0.00  0.00    +0.067 C 
ATOM     10  C   UNL     1      33.433 -13.264 -23.718  0.00  0.00    +0.040 C 
ATOM     11  C   UNL     1      35.116 -19.374 -23.443  0.00  0.00    +0.034 C 
ATOM     12  C   UNL     1      33.729 -15.601 -25.610  0.00  0.00    +0.004 C 
ATOM     13  C   UNL     1      34.381 -14.871 -21.835  0.00  0.00    +0.151 C 
ATOM     14  C   UNL     1      32.877 -14.383 -25.993  0.00  0.00    +0.019 C 
ATOM     15  C   UNL     1      33.268 -17.654 -21.637  0.00  0.00    +0.003 C 
ATOM     16  C   UNL     1      33.409 -13.152 -25.259  0.00  0.00    -0.038 C 
ATOM     17  C   UNL     1      31.977 -13.312 -23.201  0.00  0.00    +0.009 C 
ATOM     18  C   UNL     1      34.078 -12.037 -23.084  0.00  0.00    -0.019 C 
ATOM     19  C   UNL     1      32.800 -14.286 -27.523  0.00  0.00    +0.004 C 
ATOM     20  C   UNL     1      33.857 -12.065 -25.912  0.00  0.00    +0.034 C 
ATOM     21  C   UNL     1      34.524 -10.963 -23.742  0.00  0.00    +0.038 C 
ATOM     22  C   UNL     1      34.422 -10.895 -25.206  0.00  0.00    +0.195 C 
ENDROOT
BRANCH   7  23
ATOM     23  O   UNL     1      36.950 -18.221 -22.353  0.00  0.00    -0.380 OA
ATOM     24  H   UNL     1      37.018 -17.276 -22.557  0.00  0.00    +0.211 HD
ENDBRANCH   7  23
BRANCH   7  26
ATOM     25  O   UNL     1      36.415 -19.278 -20.088  0.00  0.00    -0.291 OA
ATOM     26  C   UNL     1      35.535 -19.382 -20.941  0.00  0.00    +0.204 C 
BRANCH  26  27
ATOM     27  C   UNL     1      34.357 -20.319 -20.782  0.00  0.00    +0.204 C 
BRANCH  27  28
ATOM     28  O   UNL     1      34.522 -21.137 -19.643  0.00  0.00    -0.375 OA
ATOM     29  H   UNL     1      33.676 -21.557 -19.422  0.00  0.00    +0.211 HD
ENDBRANCH  27  28
ENDBRANCH  26  27
ENDBRANCH   7  26
TORSDOF 4
ENDMDL
MODEL 3
REMARK VINA RESULT:      -7.7      2.977      6.752
REMARK  Name = 124653
REMARK  4 active torsions:
REMARK  status: ('A' for Active; 'I' for Inactive)
REMARK    1  A    between atoms: C_7  and  O_23
REMARK    2  A    between atoms: C_7  and  C_26
REMARK    3  A    between atoms: C_26  and  C_27
REMARK    4  A    between atoms: C_27  and  O_28
REMARK                            x       y       z     vdW  Elec       q    Type
REMARK                         _______ _______ _______ _____ _____    ______ ____
ROOT
ATOM      1  O   UNL     1      32.717 -23.903 -17.074  0.00  0.00    -0.296 OA
ATOM      2  O   UNL     1      33.012 -18.652 -20.991  0.00  0.00    -0.287 OA
ATOM      3  C   UNL     1      36.392 -22.774 -15.850  0.00  0.00    +0.004 C 
ATOM      4  C   UNL     1      35.542 -23.806 -15.069  0.00  0.00    +0.036 C 
ATOM      5  C   UNL     1      36.055 -22.726 -17.350  0.00  0.00    +0.008 C 
ATOM      6  C   UNL     1      34.555 -22.333 -17.520  0.00  0.00    +0.065 C 
ATOM      7  C   UNL     1      36.193 -23.668 -13.670  0.00  0.00    +0.142 C 
ATOM      8  C   UNL     1      37.824 -23.106 -15.436  0.00  0.00    +0.003 C 
ATOM      9  C   UNL     1      34.073 -23.382 -15.181  0.00  0.00    +0.067 C 
ATOM     10  C   UNL     1      34.130 -22.180 -19.023  0.00  0.00    +0.040 C 
ATOM     11  C   UNL     1      37.704 -23.552 -13.965  0.00  0.00    +0.034 C 
ATOM     12  C   UNL     1      36.972 -21.742 -18.093  0.00  0.00    +0.004 C 
ATOM     13  C   UNL     1      33.691 -23.282 -16.652  0.00  0.00    +0.151 C 
ATOM     14  C   UNL     1      36.605 -21.630 -19.579  0.00  0.00    +0.019 C 
ATOM     15  C   UNL     1      35.694 -25.259 -15.600  0.00  0.00    +0.003 C 
ATOM     16  C   UNL     1      35.137 -21.224 -19.701  0.00  0.00    -0.038 C 
ATOM     17  C   UNL     1      34.131 -23.525 -19.786  0.00  0.00    +0.009 C 
ATOM     18  C   UNL     1      32.709 -21.637 -19.104  0.00  0.00    -0.019 C 
ATOM     19  C   UNL     1      37.626 -20.722 -20.280  0.00  0.00    +0.004 C 
ATOM     20  C   UNL     1      34.754 -20.095 -20.324  0.00  0.00    +0.034 C 
ATOM     21  C   UNL     1      32.339 -20.512 -19.722  0.00  0.00    +0.038 C 
ATOM     22  C   UNL     1      33.339 -19.672 -20.396  0.00  0.00    +0.195 C 
ENDROOT
BRANCH   7  23
ATOM     23  O   UNL     1      35.746 -22.485 -13.014  0.00  0.00    -0.380 OA
ATOM     24  H   UNL     1      34.859 -22.632 -12.651  0.00  0.00    +0.211 HD
ENDBRANCH   7  23
BRANCH   7  26
ATOM     25  O   UNL     1      34.739 -24.892 -12.236  0.00  0.00    -0.291 OA
ATOM     26  C   UNL     1      35.867 -24.772 -12.712  0.00  0.00    +0.204 C 
BRANCH  26  27
ATOM     27  C   UNL     1      36.997 -25.721 -12.371  0.00  0.00    +0.204 C 
BRANCH  27  28
ATOM     28  O   UNL     1      36.827 -26.956 -13.032  0.00  0.00    -0.375 OA
ATOM     29  H   UNL     1      35.919 -27.271 -12.901  0.00  0.00    +0.211 HD
ENDBRANCH  27  28
ENDBRANCH  26  27
ENDBRANCH   7  26
TORSDOF 4
ENDMDL
MODEL 4
REMARK VINA RESULT:      -6.6     14.724     17.296
REMARK  Name = 124653
REMARK  4 active torsions:
REMARK  status: ('A' for Active; 'I' for Inactive)
REMARK    1  A    between atoms: C_7  and  O_23
REMARK    2  A    between atoms: C_7  and  C_26
REMARK    3  A    between atoms: C_26  and  C_27
REMARK    4  A    between atoms: C_27  and  O_28
REMARK                            x       y       z     vdW  Elec       q    Type
REMARK                         _______ _______ _______ _____ _____    ______ ____
ROOT
ATOM      1  O   UNL     1      34.850  -9.642 -25.318  0.00  0.00    -0.296 OA
ATOM      2  O   UNL     1      31.173  -4.342 -24.131  0.00  0.00    -0.287 OA
ATOM      3  C   UNL     1      32.421 -11.497 -22.683  0.00  0.00    +0.004 C 
ATOM      4  C   UNL     1      33.362 -12.280 -23.633  0.00  0.00    +0.036 C 
ATOM      5  C   UNL     1      32.927 -10.081 -22.366  0.00  0.00    +0.008 C 
ATOM      6  C   UNL     1      33.041  -9.272 -23.695  0.00  0.00    +0.065 C 
ATOM      7  C   UNL     1      32.629 -13.645 -23.652  0.00  0.00    +0.142 C 
ATOM      8  C   UNL     1      32.197 -12.467 -21.526  0.00  0.00    +0.003 C 
ATOM      9  C   UNL     1      33.421 -11.520 -24.963  0.00  0.00    +0.067 C 
ATOM     10  C   UNL     1      33.476  -7.782 -23.469  0.00  0.00    +0.040 C 
ATOM     11  C   UNL     1      32.190 -13.860 -22.187  0.00  0.00    +0.034 C 
ATOM     12  C   UNL     1      32.000  -9.373 -21.366  0.00  0.00    +0.004 C 
ATOM     13  C   UNL     1      33.883 -10.092 -24.704  0.00  0.00    +0.151 C 
ATOM     14  C   UNL     1      32.452  -7.932 -21.089  0.00  0.00    +0.019 C 
ATOM     15  C   UNL     1      34.804 -12.443 -23.076  0.00  0.00    +0.003 C 
ATOM     16  C   UNL     1      32.529  -7.171 -22.412  0.00  0.00    -0.038 C 
ATOM     17  C   UNL     1      34.932  -7.653 -22.965  0.00  0.00    +0.009 C 
ATOM     18  C   UNL     1      33.404  -7.018 -24.785  0.00  0.00    -0.019 C 
ATOM     19  C   UNL     1      31.552  -7.325 -20.003  0.00  0.00    +0.004 C 
ATOM     20  C   UNL     1      31.798  -6.067 -22.649  0.00  0.00    +0.034 C 
ATOM     21  C   UNL     1      32.670  -5.926 -25.013  0.00  0.00    +0.038 C 
ATOM     22  C   UNL     1      31.831  -5.361 -23.947  0.00  0.00    +0.195 C 
ENDROOT
BRANCH   7  23
ATOM     23  O   UNL     1      31.478 -13.593 -24.490  0.00  0.00    -0.380 OA
ATOM     24  H   UNL     1      30.773 -14.136 -24.104  0.00  0.00    +0.211 HD
ENDBRANCH   7  23
BRANCH   7  26
ATOM     25  O   UNL     1      33.525 -14.984 -25.406  0.00  0.00    -0.291 OA
ATOM     26  C   UNL     1      33.436 -14.784 -24.195  0.00  0.00    +0.204 C 
BRANCH  26  27
ATOM     27  C   UNL     1      34.126 -15.665 -23.174  0.00  0.00    +0.204 C 
BRANCH  27  28
ATOM     28  O   UNL     1      35.469 -15.895 -23.542  0.00  0.00    -0.375 OA
ATOM     29  H   UNL     1      35.571 -15.757 -24.497  0.00  0.00    +0.211 HD
ENDBRANCH  27  28
ENDBRANCH  26  27
ENDBRANCH   7  26
TORSDOF 4
ENDMDL
