MODEL 1
REMARK VINA RESULT:      -9.2      0.000      0.000
REMARK  Name = 12412578
REMARK  1 active torsions:
REMARK  status: ('A' for Active; 'I' for Inactive)
REMARK    1  A    between atoms: C_4  and  C_12
REMARK                            x       y       z     vdW  Elec       q    Type
REMARK                         _______ _______ _______ _____ _____    ______ ____
ROOT
ATOM      1  N   UNL     1      35.100 -16.484 -21.580  0.00  0.00    -0.276 N 
ATOM      2  N   UNL     1      35.133 -17.427 -20.625  0.00  0.00    -0.173 NA
ATOM      3  C   UNL     1      34.807 -18.352 -22.693  0.00  0.00    +0.036 A 
ATOM      4  C   UNL     1      34.955 -18.562 -21.305  0.00  0.00    +0.102 A 
ATOM      5  C   UNL     1      34.907 -16.973 -22.845  0.00  0.00    +0.075 A 
ATOM      6  C   UNL     1      34.604 -19.156 -23.827  0.00  0.00    +0.003 C 
ATOM      7  C   UNL     1      34.813 -16.334 -24.083  0.00  0.00    +0.019 C 
ATOM      8  C   UNL     1      34.507 -18.535 -25.079  0.00  0.00    +0.000 C 
ATOM      9  C   UNL     1      34.610 -17.149 -25.202  0.00  0.00    +0.002 C 
ATOM     10  H   UNL     1      35.204 -15.524 -21.388  0.00  0.00    +0.189 HD
ENDROOT
BRANCH   4  12
ATOM     11  N   UNL     1      34.893 -22.267 -19.264  0.00  0.00    -0.242 NA
ATOM     12  C   UNL     1      34.933 -19.825 -20.611  0.00  0.00    +0.022 C 
ATOM     13  C   UNL     1      33.721 -20.419 -20.291  0.00  0.00    +0.022 C 
ATOM     14  C   UNL     1      36.126 -20.443 -20.263  0.00  0.00    +0.022 C 
ATOM     15  C   UNL     1      33.754 -21.632 -19.622  0.00  0.00    +0.099 C 
ATOM     16  C   UNL     1      36.052 -21.655 -19.596  0.00  0.00    +0.099 C 
ENDBRANCH   4  12
TORSDOF 1
ENDMDL
MODEL 2
REMARK VINA RESULT:      -8.9      1.458      5.258
REMARK  Name = 12412578
REMARK  1 active torsions:
REMARK  status: ('A' for Active; 'I' for Inactive)
REMARK    1  A    between atoms: C_4  and  C_12
REMARK                            x       y       z     vdW  Elec       q    Type
REMARK                         _______ _______ _______ _____ _____    ______ ____
ROOT
ATOM      1  N   UNL     1      36.796 -20.099 -20.173  0.00  0.00    -0.276 N 
ATOM      2  N   UNL     1      36.852 -19.069 -21.033  0.00  0.00    -0.173 NA
ATOM      3  C   UNL     1      34.705 -19.822 -20.777  0.00  0.00    +0.036 A 
ATOM      4  C   UNL     1      35.578 -18.903 -21.398  0.00  0.00    +0.102 A 
ATOM      5  C   UNL     1      35.536 -20.597 -19.976  0.00  0.00    +0.075 A 
ATOM      6  C   UNL     1      33.326 -20.086 -20.798  0.00  0.00    +0.003 C 
ATOM      7  C   UNL     1      35.065 -21.643 -19.179  0.00  0.00    +0.019 C 
ATOM      8  C   UNL     1      32.833 -21.130 -20.004  0.00  0.00    +0.000 C 
ATOM      9  C   UNL     1      33.689 -21.894 -19.210  0.00  0.00    +0.002 C 
ATOM     10  H   UNL     1      37.592 -20.465 -19.725  0.00  0.00    +0.189 HD
ENDROOT
BRANCH   4  12
ATOM     11  N   UNL     1      34.542 -15.852 -24.140  0.00  0.00    -0.242 NA
ATOM     12  C   UNL     1      35.224 -17.864 -22.332  0.00  0.00    +0.022 C 
ATOM     13  C   UNL     1      35.165 -18.144 -23.690  0.00  0.00    +0.022 C 
ATOM     14  C   UNL     1      34.944 -16.585 -21.871  0.00  0.00    +0.022 C 
ATOM     15  C   UNL     1      34.821 -17.110 -24.547  0.00  0.00    +0.099 C 
ATOM     16  C   UNL     1      34.610 -15.622 -22.809  0.00  0.00    +0.099 C 
ENDBRANCH   4  12
TORSDOF 1
ENDMDL
MODEL 3
REMARK VINA RESULT:      -8.8      1.663      2.676
REMARK  Name = 12412578
REMARK  1 active torsions:
REMARK  status: ('A' for Active; 'I' for Inactive)
REMARK    1  A    between atoms: C_4  and  C_12
REMARK                            x       y       z     vdW  Elec       q    Type
REMARK                         _______ _______ _______ _____ _____    ______ ____
ROOT
ATOM      1  N   UNL     1      34.738 -17.817 -23.999  0.00  0.00    -0.276 N 
ATOM      2  N   UNL     1      34.734 -19.010 -23.381  0.00  0.00    -0.173 NA
ATOM      3  C   UNL     1      34.564 -17.294 -21.876  0.00  0.00    +0.036 A 
ATOM      4  C   UNL     1      34.628 -18.688 -22.090  0.00  0.00    +0.102 A 
ATOM      5  C   UNL     1      34.639 -16.746 -23.151  0.00  0.00    +0.075 A 
ATOM      6  C   UNL     1      34.452 -16.440 -20.766  0.00  0.00    +0.003 C 
ATOM      7  C   UNL     1      34.610 -15.371 -23.393  0.00  0.00    +0.019 C 
ATOM      8  C   UNL     1      34.420 -15.058 -20.986  0.00  0.00    +0.000 C 
ATOM      9  C   UNL     1      34.499 -14.534 -22.277  0.00  0.00    +0.002 C 
ATOM     10  H   UNL     1      34.808 -17.721 -24.976  0.00  0.00    +0.189 HD
ENDROOT
BRANCH   4  12
ATOM     11  N   UNL     1      34.503 -21.730 -19.152  0.00  0.00    -0.242 NA
ATOM     12  C   UNL     1      34.586 -19.723 -21.088  0.00  0.00    +0.022 C 
ATOM     13  C   UNL     1      35.766 -20.274 -20.612  0.00  0.00    +0.022 C 
ATOM     14  C   UNL     1      33.364 -20.167 -20.603  0.00  0.00    +0.022 C 
ATOM     15  C   UNL     1      35.672 -21.268 -19.650  0.00  0.00    +0.099 C 
ATOM     16  C   UNL     1      33.376 -21.165 -19.643  0.00  0.00    +0.099 C 
ENDBRANCH   4  12
TORSDOF 1
ENDMDL
MODEL 4
REMARK VINA RESULT:      -8.7      1.555      5.459
REMARK  Name = 12412578
REMARK  1 active torsions:
REMARK  status: ('A' for Active; 'I' for Inactive)
REMARK    1  A    between atoms: C_4  and  C_12
REMARK                            x       y       z     vdW  Elec       q    Type
REMARK                         _______ _______ _______ _____ _____    ______ ____
ROOT
ATOM      1  N   UNL     1      32.651 -20.982 -20.093  0.00  0.00    -0.276 N 
ATOM      2  N   UNL     1      32.663 -20.013 -21.023  0.00  0.00    -0.173 NA
ATOM      3  C   UNL     1      34.772 -20.446 -20.246  0.00  0.00    +0.036 A 
ATOM      4  C   UNL     1      33.956 -19.689 -21.113  0.00  0.00    +0.102 A 
ATOM      5  C   UNL     1      33.885 -21.289 -19.586  0.00  0.00    +0.075 A 
ATOM      6  C   UNL     1      36.143 -20.517 -19.944  0.00  0.00    +0.003 C 
ATOM      7  C   UNL     1      34.289 -22.217 -18.623  0.00  0.00    +0.019 C 
ATOM      8  C   UNL     1      36.569 -21.441 -18.982  0.00  0.00    +0.000 C 
ATOM      9  C   UNL     1      35.657 -22.275 -18.334  0.00  0.00    +0.002 C 
ATOM     10  H   UNL     1      31.826 -21.432 -19.801  0.00  0.00    +0.189 HD
ENDROOT
BRANCH   4  12
ATOM     11  N   UNL     1      35.201 -16.679 -23.812  0.00  0.00    -0.242 NA
ATOM     12  C   UNL     1      34.382 -18.664 -22.032  0.00  0.00    +0.022 C 
ATOM     13  C   UNL     1      34.533 -17.358 -21.590  0.00  0.00    +0.022 C 
ATOM     14  C   UNL     1      34.636 -18.985 -23.358  0.00  0.00    +0.022 C 
ATOM     15  C   UNL     1      34.943 -16.408 -22.513  0.00  0.00    +0.099 C 
ATOM     16  C   UNL     1      35.041 -17.964 -24.201  0.00  0.00    +0.099 C 
ENDBRANCH   4  12
TORSDOF 1
ENDMDL
MODEL 5
REMARK VINA RESULT:      -8.1      9.324     12.043
REMARK  Name = 12412578
REMARK  1 active torsions:
REMARK  status: ('A' for Active; 'I' for Inactive)
REMARK    1  A    between atoms: C_4  and  C_12
REMARK                            x       y       z     vdW  Elec       q    Type
REMARK                         _______ _______ _______ _____ _____    ______ ____
ROOT
ATOM      1  N   UNL     1      32.436  -8.097 -19.506  0.00  0.00    -0.276 N 
ATOM      2  N   UNL     1      32.848  -7.213 -20.430  0.00  0.00    -0.173 NA
ATOM      3  C   UNL     1      32.199  -9.184 -21.397  0.00  0.00    +0.036 A 
ATOM      4  C   UNL     1      32.702  -7.878 -21.579  0.00  0.00    +0.102 A 
ATOM      5  C   UNL     1      32.033  -9.300 -20.021  0.00  0.00    +0.075 A 
ATOM      6  C   UNL     1      31.868 -10.270 -22.224  0.00  0.00    +0.003 C 
ATOM      7  C   UNL     1      31.548 -10.457 -19.408  0.00  0.00    +0.019 C 
ATOM      8  C   UNL     1      31.379 -11.440 -21.629  0.00  0.00    +0.000 C 
ATOM      9  C   UNL     1      31.223 -11.530 -20.245  0.00  0.00    +0.002 C 
ATOM     10  H   UNL     1      32.425  -7.897 -18.543  0.00  0.00    +0.189 HD
ENDROOT
BRANCH   4  12
ATOM     11  N   UNL     1      33.710  -6.019 -25.244  0.00  0.00    -0.242 NA
ATOM     12  C   UNL     1      33.045  -7.246 -22.828  0.00  0.00    +0.022 C 
ATOM     13  C   UNL     1      34.284  -7.481 -23.406  0.00  0.00    +0.022 C 
ATOM     14  C   UNL     1      32.136  -6.401 -23.449  0.00  0.00    +0.022 C 
ATOM     15  C   UNL     1      34.566  -6.849 -24.607  0.00  0.00    +0.099 C 
ATOM     16  C   UNL     1      32.513  -5.817 -24.647  0.00  0.00    +0.099 C 
ENDBRANCH   4  12
TORSDOF 1
ENDMDL
MODEL 6
REMARK VINA RESULT:      -8.0      0.926      1.052
REMARK  Name = 12412578
REMARK  1 active torsions:
REMARK  status: ('A' for Active; 'I' for Inactive)
REMARK    1  A    between atoms: C_4  and  C_12
REMARK                            x       y       z     vdW  Elec       q    Type
REMARK                         _______ _______ _______ _____ _____    ______ ____
ROOT
ATOM      1  N   UNL     1      34.873 -15.578 -21.355  0.00  0.00    -0.276 N 
ATOM      2  N   UNL     1      35.094 -16.609 -20.522  0.00  0.00    -0.173 NA
ATOM      3  C   UNL     1      34.708 -17.335 -22.658  0.00  0.00    +0.036 A 
ATOM      4  C   UNL     1      34.993 -17.676 -21.318  0.00  0.00    +0.102 A 
ATOM      5  C   UNL     1      34.634 -15.947 -22.652  0.00  0.00    +0.075 A 
ATOM      6  C   UNL     1      34.505 -18.029 -23.863  0.00  0.00    +0.003 C 
ATOM      7  C   UNL     1      34.365 -15.193 -23.797  0.00  0.00    +0.019 C 
ATOM      8  C   UNL     1      34.235 -17.292 -25.022  0.00  0.00    +0.000 C 
ATOM      9  C   UNL     1      34.166 -15.899 -24.988  0.00  0.00    +0.002 C 
ATOM     10  H   UNL     1      34.882 -14.640 -21.058  0.00  0.00    +0.189 HD
ENDROOT
BRANCH   4  12
ATOM     11  N   UNL     1      35.528 -21.561 -19.731  0.00  0.00    -0.242 NA
ATOM     12  C   UNL     1      35.175 -19.000 -20.779  0.00  0.00    +0.022 C 
ATOM     13  C   UNL     1      34.085 -19.847 -20.641  0.00  0.00    +0.022 C 
ATOM     14  C   UNL     1      36.440 -19.423 -20.397  0.00  0.00    +0.022 C 
ATOM     15  C   UNL     1      34.313 -21.110 -20.116  0.00  0.00    +0.099 C 
ATOM     16  C   UNL     1      36.563 -20.703 -19.884  0.00  0.00    +0.099 C 
ENDBRANCH   4  12
TORSDOF 1
ENDMDL
MODEL 7
REMARK VINA RESULT:      -8.0      3.316      6.468
REMARK  Name = 12412578
REMARK  1 active torsions:
REMARK  status: ('A' for Active; 'I' for Inactive)
REMARK    1  A    between atoms: C_4  and  C_12
REMARK                            x       y       z     vdW  Elec       q    Type
REMARK                         _______ _______ _______ _____ _____    ______ ____
ROOT
ATOM      1  N   UNL     1      34.326 -16.897 -25.170  0.00  0.00    -0.276 N 
ATOM      2  N   UNL     1      33.788 -15.666 -25.167  0.00  0.00    -0.173 NA
ATOM      3  C   UNL     1      34.440 -16.294 -23.064  0.00  0.00    +0.036 A 
ATOM      4  C   UNL     1      33.859 -15.303 -23.884  0.00  0.00    +0.102 A 
ATOM      5  C   UNL     1      34.738 -17.333 -23.939  0.00  0.00    +0.075 A 
ATOM      6  C   UNL     1      34.746 -16.434 -21.700  0.00  0.00    +0.003 C 
ATOM      7  C   UNL     1      35.333 -18.527 -23.528  0.00  0.00    +0.019 C 
ATOM      8  C   UNL     1      35.344 -17.624 -21.268  0.00  0.00    +0.000 C 
ATOM      9  C   UNL     1      35.632 -18.651 -22.167  0.00  0.00    +0.002 C 
ATOM     10  H   UNL     1      34.417 -17.438 -25.987  0.00  0.00    +0.189 HD
ENDROOT
BRANCH   4  12
ATOM     11  N   UNL     1      32.425 -11.510 -22.675  0.00  0.00    -0.242 NA
ATOM     12  C   UNL     1      33.372 -14.011 -23.471  0.00  0.00    +0.022 C 
ATOM     13  C   UNL     1      32.471 -13.914 -22.420  0.00  0.00    +0.022 C 
ATOM     14  C   UNL     1      33.802 -12.867 -24.128  0.00  0.00    +0.022 C 
ATOM     15  C   UNL     1      32.031 -12.649 -22.063  0.00  0.00    +0.099 C 
ATOM     16  C   UNL     1      33.303 -11.649 -23.694  0.00  0.00    +0.099 C 
ENDBRANCH   4  12
TORSDOF 1
ENDMDL
MODEL 8
REMARK VINA RESULT:      -7.9      2.829      5.794
REMARK  Name = 12412578
REMARK  1 active torsions:
REMARK  status: ('A' for Active; 'I' for Inactive)
REMARK    1  A    between atoms: C_4  and  C_12
REMARK                            x       y       z     vdW  Elec       q    Type
REMARK                         _______ _______ _______ _____ _____    ______ ____
ROOT
ATOM      1  N   UNL     1      35.201 -17.051 -20.731  0.00  0.00    -0.276 N 
ATOM      2  N   UNL     1      34.685 -15.814 -20.632  0.00  0.00    -0.173 NA
ATOM      3  C   UNL     1      34.474 -16.634 -22.758  0.00  0.00    +0.036 A 
ATOM      4  C   UNL     1      34.244 -15.565 -21.867  0.00  0.00    +0.102 A 
ATOM      5  C   UNL     1      35.106 -17.599 -21.982  0.00  0.00    +0.075 A 
ATOM      6  C   UNL     1      34.225 -16.898 -24.116  0.00  0.00    +0.003 C 
ATOM      7  C   UNL     1      35.515 -18.836 -22.487  0.00  0.00    +0.019 C 
ATOM      8  C   UNL     1      34.626 -18.133 -24.642  0.00  0.00    +0.000 C 
ATOM      9  C   UNL     1      35.260 -19.083 -23.840  0.00  0.00    +0.002 C 
ATOM     10  H   UNL     1      35.612 -17.521 -19.970  0.00  0.00    +0.189 HD
ENDROOT
BRANCH   4  12
ATOM     11  N   UNL     1      32.371 -11.875 -22.751  0.00  0.00    -0.242 NA
ATOM     12  C   UNL     1      33.607 -14.307 -22.167  0.00  0.00    +0.022 C 
ATOM     13  C   UNL     1      32.560 -13.855 -21.377  0.00  0.00    +0.022 C 
ATOM     14  C   UNL     1      34.040 -13.552 -23.248  0.00  0.00    +0.022 C 
ATOM     15  C   UNL     1      31.980 -12.641 -21.708  0.00  0.00    +0.099 C 
ATOM     16  C   UNL     1      33.395 -12.352 -23.495  0.00  0.00    +0.099 C 
ENDBRANCH   4  12
TORSDOF 1
ENDMDL
MODEL 9
REMARK VINA RESULT:      -7.9      7.074      8.425
REMARK  Name = 12412578
REMARK  1 active torsions:
REMARK  status: ('A' for Active; 'I' for Inactive)
REMARK    1  A    between atoms: C_4  and  C_12
REMARK                            x       y       z     vdW  Elec       q    Type
REMARK                         _______ _______ _______ _____ _____    ______ ____
ROOT
ATOM      1  N   UNL     1      32.448 -23.026 -17.846  0.00  0.00    -0.276 N 
ATOM      2  N   UNL     1      33.786 -23.133 -17.787  0.00  0.00    -0.173 NA
ATOM      3  C   UNL     1      32.851 -23.247 -15.701  0.00  0.00    +0.036 A 
ATOM      4  C   UNL     1      34.027 -23.267 -16.481  0.00  0.00    +0.102 A 
ATOM      5  C   UNL     1      31.826 -23.086 -16.628  0.00  0.00    +0.075 A 
ATOM      6  C   UNL     1      32.534 -23.344 -14.336  0.00  0.00    +0.003 C 
ATOM      7  C   UNL     1      30.478 -23.014 -16.269  0.00  0.00    +0.019 C 
ATOM      8  C   UNL     1      31.188 -23.275 -13.955  0.00  0.00    +0.000 C 
ATOM      9  C   UNL     1      30.180 -23.112 -14.906  0.00  0.00    +0.002 C 
ATOM     10  H   UNL     1      31.958 -22.912 -18.692  0.00  0.00    +0.189 HD
ENDROOT
BRANCH   4  12
ATOM     11  N   UNL     1      37.999 -23.709 -15.094  0.00  0.00    -0.242 NA
ATOM     12  C   UNL     1      35.380 -23.417 -16.007  0.00  0.00    +0.022 C 
ATOM     13  C   UNL     1      36.342 -22.479 -16.353  0.00  0.00    +0.022 C 
ATOM     14  C   UNL     1      35.717 -24.500 -15.208  0.00  0.00    +0.022 C 
ATOM     15  C   UNL     1      37.629 -22.669 -15.873  0.00  0.00    +0.099 C 
ATOM     16  C   UNL     1      37.030 -24.600 -14.780  0.00  0.00    +0.099 C 
ENDBRANCH   4  12
TORSDOF 1
ENDMDL
