MODEL 1
REMARK VINA RESULT:      -9.4      0.000      0.000
REMARK  Name = 46940575
REMARK  8 active torsions:
REMARK  status: ('A' for Active; 'I' for Inactive)
REMARK    1  A    between atoms: C_3  and  C_10
REMARK    2  A    between atoms: C_4  and  C_23
REMARK    3  A    between atoms: N_9  and  C_15
REMARK    4  A    between atoms: C_16  and  C_17
REMARK    5  A    between atoms: C_23  and  C_24
REMARK    6  A    between atoms: C_23  and  N_31
REMARK    7  A    between atoms: C_32  and  C_34
REMARK    8  A    between atoms: C_34  and  N_36
REMARK                            x       y       z     vdW  Elec       q    Type
REMARK                         _______ _______ _______ _____ _____    ______ ____
ROOT
ATOM      1  O   UNL     1      34.211 -12.059 -23.959  0.00  0.00    -0.273 OA
ATOM      2  N   UNL     1      33.351 -13.158 -22.113  0.00  0.00    -0.272 N 
ATOM      3  C   UNL     1      34.352 -14.217 -22.068  0.00  0.00    +0.152 C 
ATOM      4  C   UNL     1      33.411 -12.116 -23.025  0.00  0.00    +0.244 C 
ATOM      5  C   UNL     1      32.421 -13.266 -20.993  0.00  0.00    +0.094 C 
ATOM      6  C   UNL     1      34.184 -14.850 -20.693  0.00  0.00    +0.031 C 
ATOM      7  C   UNL     1      32.707 -14.626 -20.375  0.00  0.00    +0.024 C 
ENDROOT
BRANCH   3  10
ATOM      8  O   UNL     1      33.247 -14.869 -24.066  0.00  0.00    -0.273 OA
ATOM      9  N   UNL     1      34.697 -16.383 -22.997  0.00  0.00    -0.290 N 
ATOM     10  C   UNL     1      34.024 -15.181 -23.169  0.00  0.00    +0.241 C 
ATOM     11  H   UNL     1      35.281 -16.447 -22.206  0.00  0.00    +0.151 HD
BRANCH   9  15
ATOM     12  S   UNL     1      34.582 -17.313 -25.528  0.00  0.00    +0.021 S 
ATOM     13  N   UNL     1      34.559 -19.687 -24.727  0.00  0.00    -0.154 NA
ATOM     14  N   UNL     1      34.535 -18.959 -25.832  0.00  0.00    -0.082 NA
ATOM     15  C   UNL     1      34.640 -17.528 -23.827  0.00  0.00    +0.184 C 
ATOM     16  C   UNL     1      34.619 -18.888 -23.595  0.00  0.00    +0.109 C 
BRANCH  16  17
ATOM     17  C   UNL     1      34.656 -19.463 -22.280  0.00  0.00    +0.018 C 
ATOM     18  C   UNL     1      35.882 -19.742 -21.676  0.00  0.00    +0.001 C 
ATOM     19  C   UNL     1      33.466 -19.742 -21.607  0.00  0.00    +0.001 C 
ATOM     20  C   UNL     1      35.918 -20.300 -20.398  0.00  0.00    +0.000 C 
ATOM     21  C   UNL     1      33.503 -20.300 -20.329  0.00  0.00    +0.000 C 
ATOM     22  C   UNL     1      34.729 -20.579 -19.724  0.00  0.00    +0.000 C 
ENDBRANCH  16  17
ENDBRANCH   9  15
ENDBRANCH   3  10
BRANCH   4  23
ATOM     23  C   UNL     1      32.399 -11.016 -22.820  0.00  0.00    +0.149 C 
BRANCH  23  24
ATOM     24  C   UNL     1      32.672  -9.847 -23.764  0.00  0.00    +0.027 C 
ATOM     25  C   UNL     1      34.074  -9.271 -23.523  0.00  0.00    +0.002 C 
ATOM     26  C   UNL     1      31.601  -8.760 -23.605  0.00  0.00    +0.002 C 
ATOM     27  C   UNL     1      34.351  -8.066 -24.418  0.00  0.00    +0.000 C 
ATOM     28  C   UNL     1      31.881  -7.556 -24.501  0.00  0.00    +0.000 C 
ATOM     29  C   UNL     1      33.279  -6.991 -24.264  0.00  0.00    +0.000 C 
ENDBRANCH  23  24
BRANCH  23  31
ATOM     30  O   UNL     1      30.291 -10.684 -20.888  0.00  0.00    -0.277 OA
ATOM     31  N   UNL     1      32.546 -10.650 -21.444  0.00  0.00    -0.300 N 
ATOM     32  C   UNL     1      31.466 -10.510 -20.570  0.00  0.00    +0.203 C 
ATOM     33  H   UNL     1      33.452 -10.489 -21.095  0.00  0.00    +0.150 HD
BRANCH  32  34
ATOM     34  C   UNL     1      31.900 -10.100 -19.168  0.00  0.00    +0.017 C 
ATOM     35  C   UNL     1      31.151 -10.916 -18.122  0.00  0.00    -0.014 C 
BRANCH  34  36
ATOM     36  N   UNL     1      31.617  -8.677 -18.998  0.00  0.00    +0.389 N 
ATOM     37  C   UNL     1      32.381  -7.881 -19.946  0.00  0.00    -0.105 C 
ATOM     38  H   UNL     1      31.865  -8.398 -18.049  0.00  0.00    -0.084 HD
ATOM     39  H   UNL     1      30.623  -8.519 -19.165  0.00  0.00    -0.084 HD
ENDBRANCH  34  36
ENDBRANCH  32  34
ENDBRANCH  23  31
ENDBRANCH   4  23
TORSDOF 8
ENDMDL
MODEL 2
REMARK VINA RESULT:      -9.3      3.491      5.558
REMARK  Name = 46940575
REMARK  8 active torsions:
REMARK  status: ('A' for Active; 'I' for Inactive)
REMARK    1  A    between atoms: C_3  and  C_10
REMARK    2  A    between atoms: C_4  and  C_23
REMARK    3  A    between atoms: N_9  and  C_15
REMARK    4  A    between atoms: C_16  and  C_17
REMARK    5  A    between atoms: C_23  and  C_24
REMARK    6  A    between atoms: C_23  and  N_31
REMARK    7  A    between atoms: C_32  and  C_34
REMARK    8  A    between atoms: C_34  and  N_36
REMARK                            x       y       z     vdW  Elec       q    Type
REMARK                         _______ _______ _______ _____ _____    ______ ____
ROOT
ATOM      1  O   UNL     1      34.894  -7.242 -24.423  0.00  0.00    -0.273 OA
ATOM      2  N   UNL     1      32.937  -8.232 -23.686  0.00  0.00    -0.272 N 
ATOM      3  C   UNL     1      33.568  -9.338 -22.977  0.00  0.00    +0.152 C 
ATOM      4  C   UNL     1      33.669  -7.226 -24.296  0.00  0.00    +0.244 C 
ATOM      5  C   UNL     1      31.487  -8.255 -23.514  0.00  0.00    +0.094 C 
ATOM      6  C   UNL     1      32.463  -9.916 -22.100  0.00  0.00    +0.031 C 
ATOM      7  C   UNL     1      31.189  -9.606 -22.883  0.00  0.00    +0.024 C 
ENDROOT
BRANCH   3  10
ATOM      8  O   UNL     1      34.951 -10.047 -24.771  0.00  0.00    -0.273 OA
ATOM      9  N   UNL     1      33.280 -11.490 -23.959  0.00  0.00    -0.290 N 
ATOM     10  C   UNL     1      34.028 -10.321 -24.011  0.00  0.00    +0.241 C 
ATOM     11  H   UNL     1      32.571 -11.523 -23.275  0.00  0.00    +0.151 HD
BRANCH   9  15
ATOM     12  S   UNL     1      33.429 -12.446 -26.478  0.00  0.00    +0.021 S 
ATOM     13  N   UNL     1      33.667 -14.797 -25.643  0.00  0.00    -0.154 NA
ATOM     14  N   UNL     1      33.611 -14.088 -26.759  0.00  0.00    -0.082 NA
ATOM     15  C   UNL     1      33.418 -12.639 -24.773  0.00  0.00    +0.184 C 
ATOM     16  C   UNL     1      33.560 -13.989 -24.522  0.00  0.00    +0.109 C 
BRANCH  16  17
ATOM     17  C   UNL     1      33.595 -14.544 -23.199  0.00  0.00    +0.018 C 
ATOM     18  C   UNL     1      34.556 -15.500 -22.870  0.00  0.00    +0.001 C 
ATOM     19  C   UNL     1      32.671 -14.126 -22.241  0.00  0.00    +0.001 C 
ATOM     20  C   UNL     1      34.592 -16.040 -21.584  0.00  0.00    +0.000 C 
ATOM     21  C   UNL     1      32.707 -14.666 -20.955  0.00  0.00    +0.000 C 
ATOM     22  C   UNL     1      33.668 -15.622 -20.627  0.00  0.00    +0.000 C 
ENDBRANCH  16  17
ENDBRANCH   9  15
ENDBRANCH   3  10
BRANCH   4  23
ATOM     23  C   UNL     1      32.862  -6.069 -24.832  0.00  0.00    +0.149 C 
BRANCH  23  24
ATOM     24  C   UNL     1      33.733  -5.150 -25.684  0.00  0.00    +0.027 C 
ATOM     25  C   UNL     1      32.877  -4.377 -26.696  0.00  0.00    +0.002 C 
ATOM     26  C   UNL     1      34.831  -5.951 -26.397  0.00  0.00    +0.002 C 
ATOM     27  C   UNL     1      33.732  -3.490 -27.599  0.00  0.00    +0.000 C 
ATOM     28  C   UNL     1      35.683  -5.060 -27.299  0.00  0.00    +0.000 C 
ATOM     29  C   UNL     1      34.828  -4.288 -28.298  0.00  0.00    +0.000 C 
ENDBRANCH  23  24
BRANCH  23  31
ATOM     30  O   UNL     1      30.387  -4.619 -24.591  0.00  0.00    -0.277 OA
ATOM     31  N   UNL     1      32.361  -5.414 -23.662  0.00  0.00    -0.300 N 
ATOM     32  C   UNL     1      31.145  -4.729 -23.630  0.00  0.00    +0.203 C 
ATOM     33  H   UNL     1      32.900  -5.448 -22.838  0.00  0.00    +0.150 HD
BRANCH  32  34
ATOM     34  C   UNL     1      30.859  -4.114 -22.266  0.00  0.00    +0.017 C 
ATOM     35  C   UNL     1      30.084  -5.094 -21.394  0.00  0.00    -0.014 C 
BRANCH  34  36
ATOM     36  N   UNL     1      30.082  -2.893 -22.467  0.00  0.00    +0.389 N 
ATOM     37  C   UNL     1      30.948  -1.786 -22.845  0.00  0.00    -0.105 C 
ATOM     38  H   UNL     1      29.598  -2.658 -21.601  0.00  0.00    -0.084 HD
ATOM     39  H   UNL     1      29.409  -3.053 -23.217  0.00  0.00    -0.084 HD
ENDBRANCH  34  36
ENDBRANCH  32  34
ENDBRANCH  23  31
ENDBRANCH   4  23
TORSDOF 8
ENDMDL
MODEL 3
REMARK VINA RESULT:      -9.3      2.045      3.048
REMARK  Name = 46940575
REMARK  8 active torsions:
REMARK  status: ('A' for Active; 'I' for Inactive)
REMARK    1  A    between atoms: C_3  and  C_10
REMARK    2  A    between atoms: C_4  and  C_23
REMARK    3  A    between atoms: N_9  and  C_15
REMARK    4  A    between atoms: C_16  and  C_17
REMARK    5  A    between atoms: C_23  and  C_24
REMARK    6  A    between atoms: C_23  and  N_31
REMARK    7  A    between atoms: C_32  and  C_34
REMARK    8  A    between atoms: C_34  and  N_36
REMARK                            x       y       z     vdW  Elec       q    Type
REMARK                         _______ _______ _______ _____ _____    ______ ____
ROOT
ATOM      1  O   UNL     1      35.185 -13.651 -22.509  0.00  0.00    -0.273 OA
ATOM      2  N   UNL     1      33.313 -14.557 -21.494  0.00  0.00    -0.272 N 
ATOM      3  C   UNL     1      34.020 -15.228 -20.411  0.00  0.00    +0.152 C 
ATOM      4  C   UNL     1      33.960 -13.756 -22.421  0.00  0.00    +0.244 C 
ATOM      5  C   UNL     1      31.868 -14.710 -21.354  0.00  0.00    +0.094 C 
ATOM      6  C   UNL     1      32.934 -15.586 -19.403  0.00  0.00    +0.031 C 
ATOM      7  C   UNL     1      31.689 -15.762 -20.270  0.00  0.00    +0.024 C 
ENDROOT
BRANCH   3  10
ATOM      8  O   UNL     1      35.539 -17.052 -20.382  0.00  0.00    -0.273 OA
ATOM      9  N   UNL     1      34.134 -16.746 -22.244  0.00  0.00    -0.290 N 
ATOM     10  C   UNL     1      34.663 -16.450 -20.994  0.00  0.00    +0.241 C 
ATOM     11  H   UNL     1      33.431 -16.139 -22.574  0.00  0.00    +0.151 HD
BRANCH   9  15
ATOM     12  S   UNL     1      34.842 -17.481 -24.742  0.00  0.00    +0.021 S 
ATOM     13  N   UNL     1      35.004 -19.887 -24.060  0.00  0.00    -0.154 NA
ATOM     14  N   UNL     1      35.149 -19.087 -25.105  0.00  0.00    -0.082 NA
ATOM     15  C   UNL     1      34.487 -17.817 -23.097  0.00  0.00    +0.184 C 
ATOM     16  C   UNL     1      34.632 -19.180 -22.927  0.00  0.00    +0.109 C 
BRANCH  16  17
ATOM     17  C   UNL     1      34.417 -19.843 -21.673  0.00  0.00    +0.018 C 
ATOM     18  C   UNL     1      33.132 -19.921 -21.137  0.00  0.00    +0.001 C 
ATOM     19  C   UNL     1      35.493 -20.412 -20.991  0.00  0.00    +0.001 C 
ATOM     20  C   UNL     1      32.922 -20.566 -19.918  0.00  0.00    +0.000 C 
ATOM     21  C   UNL     1      35.283 -21.057 -19.772  0.00  0.00    +0.000 C 
ATOM     22  C   UNL     1      33.997 -21.135 -19.236  0.00  0.00    +0.000 C 
ENDBRANCH  16  17
ENDBRANCH   9  15
ENDBRANCH   3  10
BRANCH   4  23
ATOM     23  C   UNL     1      33.061 -12.998 -23.366  0.00  0.00    +0.149 C 
BRANCH  23  24
ATOM     24  C   UNL     1      33.521 -13.175 -24.811  0.00  0.00    +0.027 C 
ATOM     25  C   UNL     1      33.482 -11.836 -25.559  0.00  0.00    +0.002 C 
ATOM     26  C   UNL     1      32.664 -14.226 -25.528  0.00  0.00    +0.002 C 
ATOM     27  C   UNL     1      33.886 -11.995 -27.023  0.00  0.00    +0.000 C 
ATOM     28  C   UNL     1      33.070 -14.382 -26.992  0.00  0.00    +0.000 C 
ATOM     29  C   UNL     1      33.038 -13.048 -27.730  0.00  0.00    +0.000 C 
ENDBRANCH  23  24
BRANCH  23  31
ATOM     30  O   UNL     1      30.972 -11.434 -22.150  0.00  0.00    -0.277 OA
ATOM     31  N   UNL     1      33.151 -11.638 -22.927  0.00  0.00    -0.300 N 
ATOM     32  C   UNL     1      32.085 -10.950 -22.345  0.00  0.00    +0.203 C 
ATOM     33  H   UNL     1      34.006 -11.165 -23.042  0.00  0.00    +0.150 HD
BRANCH  32  34
ATOM     34  C   UNL     1      32.446  -9.514 -21.985  0.00  0.00    +0.017 C 
ATOM     35  C   UNL     1      32.048  -9.213 -20.546  0.00  0.00    -0.014 C 
BRANCH  34  36
ATOM     36  N   UNL     1      31.743  -8.620 -22.902  0.00  0.00    +0.389 N 
ATOM     37  C   UNL     1      31.705  -7.265 -22.375  0.00  0.00    -0.105 C 
ATOM     38  H   UNL     1      30.790  -8.957 -23.031  0.00  0.00    -0.084 HD
ATOM     39  H   UNL     1      32.240  -8.611 -23.794  0.00  0.00    -0.084 HD
ENDBRANCH  34  36
ENDBRANCH  32  34
ENDBRANCH  23  31
ENDBRANCH   4  23
TORSDOF 8
ENDMDL
MODEL 4
REMARK VINA RESULT:      -9.3      4.976      8.648
REMARK  Name = 46940575
REMARK  8 active torsions:
REMARK  status: ('A' for Active; 'I' for Inactive)
REMARK    1  A    between atoms: C_3  and  C_10
REMARK    2  A    between atoms: C_4  and  C_23
REMARK    3  A    between atoms: N_9  and  C_15
REMARK    4  A    between atoms: C_16  and  C_17
REMARK    5  A    between atoms: C_23  and  C_24
REMARK    6  A    between atoms: C_23  and  N_31
REMARK    7  A    between atoms: C_32  and  C_34
REMARK    8  A    between atoms: C_34  and  N_36
REMARK                            x       y       z     vdW  Elec       q    Type
REMARK                         _______ _______ _______ _____ _____    ______ ____
ROOT
ATOM      1  O   UNL     1      32.864 -19.722 -21.600  0.00  0.00    -0.273 OA
ATOM      2  N   UNL     1      34.874 -20.285 -20.600  0.00  0.00    -0.272 N 
ATOM      3  C   UNL     1      34.543 -21.679 -20.335  0.00  0.00    +0.152 C 
ATOM      4  C   UNL     1      34.019 -19.435 -21.284  0.00  0.00    +0.244 C 
ATOM      5  C   UNL     1      36.248 -19.986 -20.207  0.00  0.00    +0.094 C 
ATOM      6  C   UNL     1      35.877 -22.338 -20.008  0.00  0.00    +0.031 C 
ATOM      7  C   UNL     1      36.699 -21.199 -19.408  0.00  0.00    +0.024 C 
ENDROOT
BRANCH   3  10
ATOM      8  O   UNL     1      32.684 -20.897 -19.083  0.00  0.00    -0.273 OA
ATOM      9  N   UNL     1      33.964 -22.689 -18.256  0.00  0.00    -0.290 N 
ATOM     10  C   UNL     1      33.611 -21.695 -19.160  0.00  0.00    +0.241 C 
ATOM     11  H   UNL     1      34.749 -23.235 -18.492  0.00  0.00    +0.151 HD
BRANCH   9  15
ATOM     12  S   UNL     1      31.620 -22.856 -16.930  0.00  0.00    +0.021 S 
ATOM     13  N   UNL     1      32.775 -23.644 -14.850  0.00  0.00    -0.154 NA
ATOM     14  N   UNL     1      31.576 -23.360 -15.333  0.00  0.00    -0.082 NA
ATOM     15  C   UNL     1      33.325 -23.008 -17.034  0.00  0.00    +0.184 C 
ATOM     16  C   UNL     1      33.764 -23.449 -15.802  0.00  0.00    +0.109 C 
BRANCH  16  17
ATOM     17  C   UNL     1      35.145 -23.696 -15.501  0.00  0.00    +0.018 C 
ATOM     18  C   UNL     1      35.535 -24.929 -14.979  0.00  0.00    +0.001 C 
ATOM     19  C   UNL     1      36.098 -22.703 -15.730  0.00  0.00    +0.001 C 
ATOM     20  C   UNL     1      36.877 -25.171 -14.686  0.00  0.00    +0.000 C 
ATOM     21  C   UNL     1      37.441 -22.945 -15.437  0.00  0.00    +0.000 C 
ATOM     22  C   UNL     1      37.830 -24.179 -14.916  0.00  0.00    +0.000 C 
ENDBRANCH  16  17
ENDBRANCH   9  15
ENDBRANCH   3  10
BRANCH   4  23
ATOM     23  C   UNL     1      34.588 -18.080 -21.627  0.00  0.00    +0.149 C 
BRANCH  23  24
ATOM     24  C   UNL     1      33.949 -16.992 -20.767  0.00  0.00    +0.027 C 
ATOM     25  C   UNL     1      32.500 -16.738 -21.204  0.00  0.00    +0.002 C 
ATOM     26  C   UNL     1      34.773 -15.699 -20.830  0.00  0.00    +0.002 C 
ATOM     27  C   UNL     1      31.855 -15.614 -20.395  0.00  0.00    +0.000 C 
ATOM     28  C   UNL     1      34.124 -14.577 -20.020  0.00  0.00    +0.000 C 
ATOM     29  C   UNL     1      32.681 -14.333 -20.451  0.00  0.00    +0.000 C 
ENDBRANCH  23  24
BRANCH  23  31
ATOM     30  O   UNL     1      36.024 -16.439 -23.506  0.00  0.00    -0.277 OA
ATOM     31  N   UNL     1      34.299 -17.915 -23.019  0.00  0.00    -0.300 N 
ATOM     32  C   UNL     1      35.049 -17.096 -23.865  0.00  0.00    +0.203 C 
ATOM     33  H   UNL     1      33.533 -18.403 -23.400  0.00  0.00    +0.150 HD
BRANCH  32  34
ATOM     34  C   UNL     1      34.518 -17.091 -25.292  0.00  0.00    +0.017 C 
ATOM     35  C   UNL     1      33.653 -15.859 -25.530  0.00  0.00    -0.014 C 
BRANCH  34  36
ATOM     36  N   UNL     1      33.734 -18.307 -25.495  0.00  0.00    +0.389 N 
ATOM     37  C   UNL     1      34.541 -19.490 -25.240  0.00  0.00    -0.105 C 
ATOM     38  H   UNL     1      33.397 -18.331 -26.457  0.00  0.00    -0.084 HD
ATOM     39  H   UNL     1      32.948 -18.301 -24.845  0.00  0.00    -0.084 HD
ENDBRANCH  34  36
ENDBRANCH  32  34
ENDBRANCH  23  31
ENDBRANCH   4  23
TORSDOF 8
ENDMDL
MODEL 5
REMARK VINA RESULT:      -8.8      3.352      6.124
REMARK  Name = 46940575
REMARK  8 active torsions:
REMARK  status: ('A' for Active; 'I' for Inactive)
REMARK    1  A    between atoms: C_3  and  C_10
REMARK    2  A    between atoms: C_4  and  C_23
REMARK    3  A    between atoms: N_9  and  C_15
REMARK    4  A    between atoms: C_16  and  C_17
REMARK    5  A    between atoms: C_23  and  C_24
REMARK    6  A    between atoms: C_23  and  N_31
REMARK    7  A    between atoms: C_32  and  C_34
REMARK    8  A    between atoms: C_34  and  N_36
REMARK                            x       y       z     vdW  Elec       q    Type
REMARK                         _______ _______ _______ _____ _____    ______ ____
ROOT
ATOM      1  O   UNL     1      31.354  -8.305 -23.953  0.00  0.00    -0.273 OA
ATOM      2  N   UNL     1      33.514  -9.063 -24.288  0.00  0.00    -0.272 N 
ATOM      3  C   UNL     1      33.160 -10.444 -24.593  0.00  0.00    +0.152 C 
ATOM      4  C   UNL     1      32.560  -8.084 -24.061  0.00  0.00    +0.244 C 
ATOM      5  C   UNL     1      34.951  -8.846 -24.423  0.00  0.00    +0.094 C 
ATOM      6  C   UNL     1      34.420 -11.039 -25.210  0.00  0.00    +0.031 C 
ATOM      7  C   UNL     1      35.547 -10.239 -24.560  0.00  0.00    +0.024 C 
ENDROOT
BRANCH   3  10
ATOM      8  O   UNL     1      32.335 -10.460 -22.367  0.00  0.00    -0.273 OA
ATOM      9  N   UNL     1      33.100 -12.464 -23.332  0.00  0.00    -0.290 N 
ATOM     10  C   UNL     1      32.810 -11.107 -23.295  0.00  0.00    +0.241 C 
ATOM     11  H   UNL     1      33.483 -12.805 -24.173  0.00  0.00    +0.151 HD
BRANCH   9  15
ATOM     12  S   UNL     1      32.230 -12.895 -20.814  0.00  0.00    +0.021 S 
ATOM     13  N   UNL     1      32.804 -15.330 -20.960  0.00  0.00    -0.154 NA
ATOM     14  N   UNL     1      32.297 -14.426 -20.137  0.00  0.00    -0.082 NA
ATOM     15  C   UNL     1      32.909 -13.415 -22.301  0.00  0.00    +0.184 C 
ATOM     16  C   UNL     1      33.150 -14.768 -22.179  0.00  0.00    +0.109 C 
BRANCH  16  17
ATOM     17  C   UNL     1      33.720 -15.564 -23.229  0.00  0.00    +0.018 C 
ATOM     18  C   UNL     1      34.541 -16.647 -22.915  0.00  0.00    +0.001 C 
ATOM     19  C   UNL     1      33.452 -15.255 -24.563  0.00  0.00    +0.001 C 
ATOM     20  C   UNL     1      35.096 -17.421 -23.934  0.00  0.00    +0.000 C 
ATOM     21  C   UNL     1      34.007 -16.029 -25.582  0.00  0.00    +0.000 C 
ATOM     22  C   UNL     1      34.828 -17.112 -25.268  0.00  0.00    +0.000 C 
ENDBRANCH  16  17
ENDBRANCH   9  15
ENDBRANCH   3  10
BRANCH   4  23
ATOM     23  C   UNL     1      33.091  -6.677 -23.935  0.00  0.00    +0.149 C 
BRANCH  23  24
ATOM     24  C   UNL     1      32.518  -5.991 -22.698  0.00  0.00    +0.027 C 
ATOM     25  C   UNL     1      32.448  -6.970 -21.518  0.00  0.00    +0.002 C 
ATOM     26  C   UNL     1      31.135  -5.398 -22.999  0.00  0.00    +0.002 C 
ATOM     27  C   UNL     1      31.826  -6.322 -20.283  0.00  0.00    +0.000 C 
ATOM     28  C   UNL     1      30.516  -4.752 -21.761  0.00  0.00    +0.000 C 
ATOM     29  C   UNL     1      30.456  -5.726 -20.588  0.00  0.00    +0.000 C 
ENDBRANCH  23  24
BRANCH  23  31
ATOM     30  O   UNL     1      34.817  -5.650 -25.997  0.00  0.00    -0.277 OA
ATOM     31  N   UNL     1      32.690  -6.035 -25.150  0.00  0.00    -0.300 N 
ATOM     32  C   UNL     1      33.596  -5.564 -26.102  0.00  0.00    +0.203 C 
ATOM     33  H   UNL     1      31.728  -5.920 -25.323  0.00  0.00    +0.150 HD
BRANCH  32  34
ATOM     34  C   UNL     1      32.903  -4.911 -27.291  0.00  0.00    +0.017 C 
ATOM     35  C   UNL     1      33.934  -4.415 -28.297  0.00  0.00    -0.014 C 
BRANCH  34  36
ATOM     36  N   UNL     1      32.099  -3.795 -26.799  0.00  0.00    +0.389 N 
ATOM     37  C   UNL     1      32.927  -2.621 -26.572  0.00  0.00    -0.105 C 
ATOM     38  H   UNL     1      31.654  -4.066 -25.922  0.00  0.00    -0.084 HD
ATOM     39  H   UNL     1      31.393  -3.567 -27.499  0.00  0.00    -0.084 HD
ENDBRANCH  34  36
ENDBRANCH  32  34
ENDBRANCH  23  31
ENDBRANCH   4  23
TORSDOF 8
ENDMDL
MODEL 6
REMARK VINA RESULT:      -8.8      1.785      2.406
REMARK  Name = 46940575
REMARK  8 active torsions:
REMARK  status: ('A' for Active; 'I' for Inactive)
REMARK    1  A    between atoms: C_3  and  C_10
REMARK    2  A    between atoms: C_4  and  C_23
REMARK    3  A    between atoms: N_9  and  C_15
REMARK    4  A    between atoms: C_16  and  C_17
REMARK    5  A    between atoms: C_23  and  C_24
REMARK    6  A    between atoms: C_23  and  N_31
REMARK    7  A    between atoms: C_32  and  C_34
REMARK    8  A    between atoms: C_34  and  N_36
REMARK                            x       y       z     vdW  Elec       q    Type
REMARK                         _______ _______ _______ _____ _____    ______ ____
ROOT
ATOM      1  O   UNL     1      34.637 -13.431 -23.756  0.00  0.00    -0.273 OA
ATOM      2  N   UNL     1      33.236 -13.520 -21.917  0.00  0.00    -0.272 N 
ATOM      3  C   UNL     1      33.974 -14.548 -21.195  0.00  0.00    +0.152 C 
ATOM      4  C   UNL     1      33.678 -12.992 -23.120  0.00  0.00    +0.244 C 
ATOM      5  C   UNL     1      32.106 -13.032 -21.130  0.00  0.00    +0.094 C 
ATOM      6  C   UNL     1      33.422 -14.497 -19.776  0.00  0.00    +0.031 C 
ATOM      7  C   UNL     1      31.988 -14.008 -19.969  0.00  0.00    +0.024 C 
ENDROOT
BRANCH   3  10
ATOM      8  O   UNL     1      32.745 -16.560 -21.477  0.00  0.00    -0.273 OA
ATOM      9  N   UNL     1      34.564 -16.106 -22.899  0.00  0.00    -0.290 N 
ATOM     10  C   UNL     1      33.674 -15.857 -21.862  0.00  0.00    +0.241 C 
ATOM     11  H   UNL     1      35.251 -15.418 -23.058  0.00  0.00    +0.151 HD
BRANCH   9  15
ATOM     12  S   UNL     1      34.231 -17.021 -25.416  0.00  0.00    +0.021 S 
ATOM     13  N   UNL     1      34.791 -19.360 -24.711  0.00  0.00    -0.154 NA
ATOM     14  N   UNL     1      34.453 -18.643 -25.771  0.00  0.00    -0.082 NA
ATOM     15  C   UNL     1      34.597 -17.233 -23.753  0.00  0.00    +0.184 C 
ATOM     16  C   UNL     1      34.875 -18.573 -23.573  0.00  0.00    +0.109 C 
BRANCH  16  17
ATOM     17  C   UNL     1      35.228 -19.140 -22.302  0.00  0.00    +0.018 C 
ATOM     18  C   UNL     1      34.282 -19.863 -21.575  0.00  0.00    +0.001 C 
ATOM     19  C   UNL     1      36.516 -18.969 -21.795  0.00  0.00    +0.001 C 
ATOM     20  C   UNL     1      34.624 -20.414 -20.340  0.00  0.00    +0.000 C 
ATOM     21  C   UNL     1      36.858 -19.520 -20.560  0.00  0.00    +0.000 C 
ATOM     22  C   UNL     1      35.912 -20.243 -19.833  0.00  0.00    +0.000 C 
ENDBRANCH  16  17
ENDBRANCH   9  15
ENDBRANCH   3  10
BRANCH   4  23
ATOM     23  C   UNL     1      32.890 -11.817 -23.642  0.00  0.00    +0.149 C 
BRANCH  23  24
ATOM     24  C   UNL     1      33.431 -11.361 -24.995  0.00  0.00    +0.027 C 
ATOM     25  C   UNL     1      33.543 -12.548 -25.961  0.00  0.00    +0.002 C 
ATOM     26  C   UNL     1      34.786 -10.660 -24.830  0.00  0.00    +0.002 C 
ATOM     27  C   UNL     1      34.133 -12.128 -27.306  0.00  0.00    +0.000 C 
ATOM     28  C   UNL     1      35.372 -10.242 -26.177  0.00  0.00    +0.000 C 
ATOM     29  C   UNL     1      35.475 -11.423 -27.137  0.00  0.00    +0.000 C 
ENDBRANCH  23  24
BRANCH  23  31
ATOM     30  O   UNL     1      30.921  -9.878 -22.834  0.00  0.00    -0.277 OA
ATOM     31  N   UNL     1      33.037 -10.814 -22.631  0.00  0.00    -0.300 N 
ATOM     32  C   UNL     1      32.027  -9.908 -22.299  0.00  0.00    +0.203 C 
ATOM     33  H   UNL     1      33.892 -10.759 -22.146  0.00  0.00    +0.150 HD
BRANCH  32  34
ATOM     34  C   UNL     1      32.451  -8.940 -21.202  0.00  0.00    +0.017 C 
ATOM     35  C   UNL     1      31.932  -9.413 -19.850  0.00  0.00    -0.014 C 
BRANCH  34  36
ATOM     36  N   UNL     1      31.909  -7.621 -21.519  0.00  0.00    +0.389 N 
ATOM     37  C   UNL     1      32.801  -6.898 -22.412  0.00  0.00    -0.105 C 
ATOM     38  H   UNL     1      31.796  -7.090 -20.655  0.00  0.00    -0.084 HD
ATOM     39  H   UNL     1      31.008  -7.740 -21.982  0.00  0.00    -0.084 HD
ENDBRANCH  34  36
ENDBRANCH  32  34
ENDBRANCH  23  31
ENDBRANCH   4  23
TORSDOF 8
ENDMDL
MODEL 7
REMARK VINA RESULT:      -8.3      2.463      4.740
REMARK  Name = 46940575
REMARK  8 active torsions:
REMARK  status: ('A' for Active; 'I' for Inactive)
REMARK    1  A    between atoms: C_3  and  C_10
REMARK    2  A    between atoms: C_4  and  C_23
REMARK    3  A    between atoms: N_9  and  C_15
REMARK    4  A    between atoms: C_16  and  C_17
REMARK    5  A    between atoms: C_23  and  C_24
REMARK    6  A    between atoms: C_23  and  N_31
REMARK    7  A    between atoms: C_32  and  C_34
REMARK    8  A    between atoms: C_34  and  N_36
REMARK                            x       y       z     vdW  Elec       q    Type
REMARK                         _______ _______ _______ _____ _____    ______ ____
ROOT
ATOM      1  O   UNL     1      31.609 -11.469 -23.116  0.00  0.00    -0.273 OA
ATOM      2  N   UNL     1      33.505 -10.831 -24.280  0.00  0.00    -0.272 N 
ATOM      3  C   UNL     1      33.510 -11.950 -25.214  0.00  0.00    +0.152 C 
ATOM      4  C   UNL     1      32.499 -10.648 -23.344  0.00  0.00    +0.244 C 
ATOM      5  C   UNL     1      34.576  -9.887 -24.584  0.00  0.00    +0.094 C 
ATOM      6  C   UNL     1      34.474 -11.529 -26.316  0.00  0.00    +0.031 C 
ATOM      7  C   UNL     1      35.454 -10.603 -25.598  0.00  0.00    +0.024 C 
ENDROOT
BRANCH   3  10
ATOM      8  O   UNL     1      34.622 -13.019 -23.410  0.00  0.00    -0.273 OA
ATOM      9  N   UNL     1      33.685 -14.324 -25.127  0.00  0.00    -0.290 N 
ATOM     10  C   UNL     1      34.010 -13.148 -24.465  0.00  0.00    +0.241 C 
ATOM     11  H   UNL     1      33.188 -14.226 -25.972  0.00  0.00    +0.151 HD
BRANCH   9  15
ATOM     12  S   UNL     1      34.422 -16.793 -25.933  0.00  0.00    +0.021 S 
ATOM     13  N   UNL     1      34.381 -17.646 -23.577  0.00  0.00    -0.154 NA
ATOM     14  N   UNL     1      34.621 -18.030 -24.821  0.00  0.00    -0.082 NA
ATOM     15  C   UNL     1      33.987 -15.649 -24.730  0.00  0.00    +0.184 C 
ATOM     16  C   UNL     1      34.025 -16.308 -23.519  0.00  0.00    +0.109 C 
BRANCH  16  17
ATOM     17  C   UNL     1      33.719 -15.674 -22.268  0.00  0.00    +0.018 C 
ATOM     18  C   UNL     1      34.662 -15.670 -21.240  0.00  0.00    +0.001 C 
ATOM     19  C   UNL     1      32.480 -15.061 -22.080  0.00  0.00    +0.001 C 
ATOM     20  C   UNL     1      34.367 -15.054 -20.024  0.00  0.00    +0.000 C 
ATOM     21  C   UNL     1      32.185 -14.444 -20.864  0.00  0.00    +0.000 C 
ATOM     22  C   UNL     1      33.128 -14.441 -19.836  0.00  0.00    +0.000 C 
ENDBRANCH  16  17
ENDBRANCH   9  15
ENDBRANCH   3  10
BRANCH   4  23
ATOM     23  C   UNL     1      32.553  -9.350 -22.578  0.00  0.00    +0.149 C 
BRANCH  23  24
ATOM     24  C   UNL     1      31.790  -9.466 -21.261  0.00  0.00    +0.027 C 
ATOM     25  C   UNL     1      32.439  -8.591 -20.180  0.00  0.00    +0.002 C 
ATOM     26  C   UNL     1      31.715 -10.930 -20.806  0.00  0.00    +0.002 C 
ATOM     27  C   UNL     1      31.726  -8.732 -18.837  0.00  0.00    +0.000 C 
ATOM     28  C   UNL     1      31.002 -11.066 -19.462  0.00  0.00    +0.000 C 
ATOM     29  C   UNL     1      31.645 -10.188 -18.392  0.00  0.00    +0.000 C 
ENDBRANCH  23  24
BRANCH  23  31
ATOM     30  O   UNL     1      33.410  -6.633 -22.992  0.00  0.00    -0.277 OA
ATOM     31  N   UNL     1      31.967  -8.390 -23.464  0.00  0.00    -0.300 N 
ATOM     32  C   UNL     1      32.446  -7.086 -23.605  0.00  0.00    +0.203 C 
ATOM     33  H   UNL     1      31.187  -8.662 -24.000  0.00  0.00    +0.150 HD
BRANCH  32  34
ATOM     34  C   UNL     1      31.632  -6.271 -24.602  0.00  0.00    +0.017 C 
ATOM     35  C   UNL     1      32.555  -5.464 -25.506  0.00  0.00    -0.014 C 
BRANCH  34  36
ATOM     36  N   UNL     1      30.750  -5.378 -23.852  0.00  0.00    +0.389 N 
ATOM     37  C   UNL     1      31.133  -3.989 -24.050  0.00  0.00    -0.105 C 
ATOM     38  H   UNL     1      30.810  -5.606 -22.860  0.00  0.00    -0.084 HD
ATOM     39  H   UNL     1      29.795  -5.505 -24.188  0.00  0.00    -0.084 HD
ENDBRANCH  34  36
ENDBRANCH  32  34
ENDBRANCH  23  31
ENDBRANCH   4  23
TORSDOF 8
ENDMDL
MODEL 8
REMARK VINA RESULT:      -8.1      2.138      3.416
REMARK  Name = 46940575
REMARK  8 active torsions:
REMARK  status: ('A' for Active; 'I' for Inactive)
REMARK    1  A    between atoms: C_3  and  C_10
REMARK    2  A    between atoms: C_4  and  C_23
REMARK    3  A    between atoms: N_9  and  C_15
REMARK    4  A    between atoms: C_16  and  C_17
REMARK    5  A    between atoms: C_23  and  C_24
REMARK    6  A    between atoms: C_23  and  N_31
REMARK    7  A    between atoms: C_32  and  C_34
REMARK    8  A    between atoms: C_34  and  N_36
REMARK                            x       y       z     vdW  Elec       q    Type
REMARK                         _______ _______ _______ _____ _____    ______ ____
ROOT
ATOM      1  O   UNL     1      34.326  -9.100 -24.068  0.00  0.00    -0.273 OA
ATOM      2  N   UNL     1      32.611 -10.275 -23.052  0.00  0.00    -0.272 N 
ATOM      3  C   UNL     1      33.391 -11.465 -22.733  0.00  0.00    +0.152 C 
ATOM      4  C   UNL     1      33.174  -9.152 -23.636  0.00  0.00    +0.244 C 
ATOM      5  C   UNL     1      31.253 -10.381 -22.528  0.00  0.00    +0.094 C 
ATOM      6  C   UNL     1      32.540 -12.227 -21.725  0.00  0.00    +0.031 C 
ATOM      7  C   UNL     1      31.112 -11.832 -22.094  0.00  0.00    +0.024 C 
ENDROOT
BRANCH   3  10
ATOM      8  O   UNL     1      33.869 -11.662 -25.050  0.00  0.00    -0.273 OA
ATOM      9  N   UNL     1      33.334 -13.589 -23.811  0.00  0.00    -0.290 N 
ATOM     10  C   UNL     1      33.565 -12.233 -24.008  0.00  0.00    +0.241 C 
ATOM     11  H   UNL     1      33.096 -13.861 -22.895  0.00  0.00    +0.151 HD
BRANCH   9  15
ATOM     12  S   UNL     1      32.815 -14.318 -26.357  0.00  0.00    +0.021 S 
ATOM     13  N   UNL     1      33.737 -16.614 -25.957  0.00  0.00    -0.154 NA
ATOM     14  N   UNL     1      33.189 -15.859 -26.896  0.00  0.00    -0.082 NA
ATOM     15  C   UNL     1      33.402 -14.623 -24.774  0.00  0.00    +0.184 C 
ATOM     16  C   UNL     1      33.861 -15.925 -24.761  0.00  0.00    +0.109 C 
BRANCH  16  17
ATOM     17  C   UNL     1      34.431 -16.547 -23.600  0.00  0.00    +0.018 C 
ATOM     18  C   UNL     1      35.126 -17.750 -23.725  0.00  0.00    +0.001 C 
ATOM     19  C   UNL     1      34.291 -15.950 -22.347  0.00  0.00    +0.001 C 
ATOM     20  C   UNL     1      35.681 -18.356 -22.597  0.00  0.00    +0.000 C 
ATOM     21  C   UNL     1      34.845 -16.555 -21.220  0.00  0.00    +0.000 C 
ATOM     22  C   UNL     1      35.541 -17.758 -21.345  0.00  0.00    +0.000 C 
ENDBRANCH  16  17
ENDBRANCH   9  15
ENDBRANCH   3  10
BRANCH   4  23
ATOM     23  C   UNL     1      32.268  -7.949 -23.736  0.00  0.00    +0.149 C 
BRANCH  23  24
ATOM     24  C   UNL     1      33.018  -6.753 -24.316  0.00  0.00    +0.027 C 
ATOM     25  C   UNL     1      32.044  -5.778 -24.992  0.00  0.00    +0.002 C 
ATOM     26  C   UNL     1      34.099  -7.216 -25.302  0.00  0.00    +0.002 C 
ATOM     27  C   UNL     1      32.776  -4.598 -25.628  0.00  0.00    +0.000 C 
ATOM     28  C   UNL     1      34.828  -6.034 -25.937  0.00  0.00    +0.000 C 
ATOM     29  C   UNL     1      33.856  -5.063 -26.600  0.00  0.00    +0.000 C 
ENDBRANCH  23  24
BRANCH  23  31
ATOM     30  O   UNL     1      33.935  -7.509 -21.431  0.00  0.00    -0.277 OA
ATOM     31  N   UNL     1      31.832  -7.720 -22.392  0.00  0.00    -0.300 N 
ATOM     32  C   UNL     1      32.711  -7.515 -21.327  0.00  0.00    +0.203 C 
ATOM     33  H   UNL     1      30.865  -7.707 -22.209  0.00  0.00    +0.150 HD
BRANCH  32  34
ATOM     34  C   UNL     1      31.984  -7.310 -20.004  0.00  0.00    +0.017 C 
ATOM     35  C   UNL     1      32.324  -5.944 -19.420  0.00  0.00    -0.014 C 
BRANCH  34  36
ATOM     36  N   UNL     1      32.395  -8.370 -19.085  0.00  0.00    +0.389 N 
ATOM     37  C   UNL     1      31.587  -9.563 -19.280  0.00  0.00    -0.105 C 
ATOM     38  H   UNL     1      32.283  -8.042 -18.126  0.00  0.00    -0.084 HD
ATOM     39  H   UNL     1      33.371  -8.601 -19.270  0.00  0.00    -0.084 HD
ENDBRANCH  34  36
ENDBRANCH  32  34
ENDBRANCH  23  31
ENDBRANCH   4  23
TORSDOF 8
ENDMDL
MODEL 9
REMARK VINA RESULT:      -7.9      5.188      8.153
REMARK  Name = 46940575
REMARK  8 active torsions:
REMARK  status: ('A' for Active; 'I' for Inactive)
REMARK    1  A    between atoms: C_3  and  C_10
REMARK    2  A    between atoms: C_4  and  C_23
REMARK    3  A    between atoms: N_9  and  C_15
REMARK    4  A    between atoms: C_16  and  C_17
REMARK    5  A    between atoms: C_23  and  C_24
REMARK    6  A    between atoms: C_23  and  N_31
REMARK    7  A    between atoms: C_32  and  C_34
REMARK    8  A    between atoms: C_34  and  N_36
REMARK                            x       y       z     vdW  Elec       q    Type
REMARK                         _______ _______ _______ _____ _____    ______ ____
ROOT
ATOM      1  O   UNL     1      34.157  -6.547 -25.270  0.00  0.00    -0.273 OA
ATOM      2  N   UNL     1      32.248  -6.143 -24.027  0.00  0.00    -0.272 N 
ATOM      3  C   UNL     1      32.600  -6.996 -22.899  0.00  0.00    +0.152 C 
ATOM      4  C   UNL     1      33.103  -5.934 -25.097  0.00  0.00    +0.244 C 
ATOM      5  C   UNL     1      30.991  -5.440 -23.783  0.00  0.00    +0.094 C 
ATOM      6  C   UNL     1      31.639  -6.587 -21.789  0.00  0.00    +0.031 C 
ATOM      7  C   UNL     1      30.404  -6.105 -22.547  0.00  0.00    +0.024 C 
ENDROOT
BRANCH   3  10
ATOM      8  O   UNL     1      32.015  -8.672 -24.475  0.00  0.00    -0.273 OA
ATOM      9  N   UNL     1      32.632  -9.300 -22.294  0.00  0.00    -0.290 N 
ATOM     10  C   UNL     1      32.378  -8.414 -23.332  0.00  0.00    +0.241 C 
ATOM     11  H   UNL     1      32.915  -8.900 -21.439  0.00  0.00    +0.151 HD
BRANCH   9  15
ATOM     12  S   UNL     1      31.632 -11.500 -21.092  0.00  0.00    +0.021 S 
ATOM     13  N   UNL     1      32.672 -12.995 -22.814  0.00  0.00    -0.154 NA
ATOM     14  N   UNL     1      31.928 -13.025 -21.719  0.00  0.00    -0.082 NA
ATOM     15  C   UNL     1      32.532 -10.711 -22.322  0.00  0.00    +0.184 C 
ATOM     16  C   UNL     1      33.015 -11.697 -23.159  0.00  0.00    +0.109 C 
BRANCH  16  17
ATOM     17  C   UNL     1      33.821 -11.423 -24.315  0.00  0.00    +0.018 C 
ATOM     18  C   UNL     1      33.697 -12.217 -25.454  0.00  0.00    +0.001 C 
ATOM     19  C   UNL     1      34.727 -10.362 -24.299  0.00  0.00    +0.001 C 
ATOM     20  C   UNL     1      34.479 -11.952 -26.579  0.00  0.00    +0.000 C 
ATOM     21  C   UNL     1      35.509 -10.097 -25.423  0.00  0.00    +0.000 C 
ATOM     22  C   UNL     1      35.384 -10.891 -26.563  0.00  0.00    +0.000 C 
ENDBRANCH  16  17
ENDBRANCH   9  15
ENDBRANCH   3  10
BRANCH   4  23
ATOM     23  C   UNL     1      32.658  -4.888 -26.089  0.00  0.00    +0.149 C 
BRANCH  23  24
ATOM     24  C   UNL     1      33.756  -4.612 -27.113  0.00  0.00    +0.027 C 
ATOM     25  C   UNL     1      34.443  -3.270 -26.823  0.00  0.00    +0.002 C 
ATOM     26  C   UNL     1      33.188  -4.637 -28.538  0.00  0.00    +0.002 C 
ATOM     27  C   UNL     1      35.509  -2.944 -27.866  0.00  0.00    +0.000 C 
ATOM     28  C   UNL     1      34.257  -4.310 -29.578  0.00  0.00    +0.000 C 
ATOM     29  C   UNL     1      34.943  -2.980 -29.282  0.00  0.00    +0.000 C 
ENDBRANCH  23  24
BRANCH  23  31
ATOM     30  O   UNL     1      30.373  -3.154 -26.336  0.00  0.00    -0.277 OA
ATOM     31  N   UNL     1      32.360  -3.741 -25.286  0.00  0.00    -0.300 N 
ATOM     32  C   UNL     1      31.225  -2.950 -25.473  0.00  0.00    +0.203 C 
ATOM     33  H   UNL     1      32.986  -3.497 -24.567  0.00  0.00    +0.150 HD
BRANCH  32  34
ATOM     34  C   UNL     1      31.158  -1.786 -24.493  0.00  0.00    +0.017 C 
ATOM     35  C   UNL     1      32.292  -1.882 -23.480  0.00  0.00    -0.014 C 
BRANCH  34  36
ATOM     36  N   UNL     1      29.866  -1.831 -23.813  0.00  0.00    +0.389 N 
ATOM     37  C   UNL     1      30.027  -2.237 -22.426  0.00  0.00    -0.105 C 
ATOM     38  H   UNL     1      29.261  -2.498 -24.290  0.00  0.00    -0.084 HD
ATOM     39  H   UNL     1      29.453  -0.898 -23.835  0.00  0.00    -0.084 HD
ENDBRANCH  34  36
ENDBRANCH  32  34
ENDBRANCH  23  31
ENDBRANCH   4  23
TORSDOF 8
ENDMDL
