MODEL 1
REMARK VINA RESULT:      -7.8      0.000      0.000
REMARK  Name = 71741
REMARK  9 active torsions:
REMARK  status: ('A' for Active; 'I' for Inactive)
REMARK    1  A    between atoms: C_2  and  O_7
REMARK    2  A    between atoms: C_3  and  C_15
REMARK    3  A    between atoms: C_4  and  O_9
REMARK    4  A    between atoms: C_5  and  O_11
REMARK    5  A    between atoms: C_6  and  O_13
REMARK    6  A    between atoms: C_15  and  N_17
REMARK    7  A    between atoms: N_18  and  N_22
REMARK    8  A    between atoms: N_18  and  C_23
REMARK    9  A    between atoms: C_23  and  C_25
REMARK                            x       y       z     vdW  Elec       q    Type
REMARK                         _______ _______ _______ _____ _____    ______ ____
ROOT
ATOM      1  O   UNL     1      38.065 -23.467 -13.935  0.00  0.00    -0.327 OA
ATOM      2  C   UNL     1      35.664 -23.677 -14.342  0.00  0.00    +0.169 C 
ATOM      3  C   UNL     1      37.065 -23.554 -14.957  0.00  0.00    +0.166 C 
ATOM      4  C   UNL     1      35.594 -24.844 -13.355  0.00  0.00    +0.171 C 
ATOM      5  C   UNL     1      36.755 -24.779 -12.364  0.00  0.00    +0.196 C 
ATOM      6  C   UNL     1      38.097 -24.609 -13.077  0.00  0.00    +0.266 C 
ENDROOT
BRANCH   2   7
ATOM      7  O   UNL     1      34.694 -23.903 -15.362  0.00  0.00    -0.379 OA
ATOM      8  H   UNL     1      33.989 -23.241 -15.290  0.00  0.00    +0.211 HD
ENDBRANCH   2   7
BRANCH   4   9
ATOM      9  O   UNL     1      34.361 -24.751 -12.637  0.00  0.00    -0.379 OA
ATOM     10  H   UNL     1      34.528 -24.385 -11.755  0.00  0.00    +0.211 HD
ENDBRANCH   4   9
BRANCH   5  11
ATOM     11  O   UNL     1      36.764 -25.962 -11.571  0.00  0.00    -0.378 OA
ATOM     12  H   UNL     1      35.935 -26.447 -11.705  0.00  0.00    +0.211 HD
ENDBRANCH   5  11
BRANCH   6  13
ATOM     13  O   UNL     1      38.507 -25.789 -13.764  0.00  0.00    -0.326 OA
ATOM     14  C   UNL     1      39.870 -25.713 -14.154  0.00  0.00    +0.177 C 
ENDBRANCH   6  13
BRANCH   3  15
ATOM     15  C   UNL     1      37.202 -22.305 -15.823  0.00  0.00    +0.123 C 
BRANCH  15  17
ATOM     16  O   UNL     1      37.192 -20.469 -17.960  0.00  0.00    -0.251 OA
ATOM     17  N   UNL     1      36.414 -22.416 -17.014  0.00  0.00    -0.285 N 
ATOM     18  N   UNL     1      35.632 -21.710 -19.144  0.00  0.00    -0.163 N 
ATOM     19  C   UNL     1      36.460 -21.462 -18.037  0.00  0.00    +0.320 C 
ATOM     20  H   UNL     1      35.817 -23.192 -17.117  0.00  0.00    +0.151 HD
BRANCH  18  22
ATOM     21  O   UNL     1      33.970 -22.995 -18.244  0.00  0.00    -0.078 OA
ATOM     22  N   UNL     1      34.775 -22.929 -19.179  0.00  0.00    +0.054 NA
ENDBRANCH  18  22
BRANCH  18  23
ATOM     23  C   UNL     1      35.588 -20.796 -20.278  0.00  0.00    +0.134 C 
BRANCH  23  25
ATOM     24 CL   UNL     1      34.148 -19.240 -21.997  0.00  0.00    -0.112 Cl
ATOM     25  C   UNL     1      34.199 -20.226 -20.514  0.00  0.00    +0.118 C 
ENDBRANCH  23  25
ENDBRANCH  18  23
ENDBRANCH  15  17
ENDBRANCH   3  15
TORSDOF 9
ENDMDL
MODEL 2
REMARK VINA RESULT:      -7.8      4.579      6.819
REMARK  Name = 71741
REMARK  9 active torsions:
REMARK  status: ('A' for Active; 'I' for Inactive)
REMARK    1  A    between atoms: C_2  and  O_7
REMARK    2  A    between atoms: C_3  and  C_15
REMARK    3  A    between atoms: C_4  and  O_9
REMARK    4  A    between atoms: C_5  and  O_11
REMARK    5  A    between atoms: C_6  and  O_13
REMARK    6  A    between atoms: C_15  and  N_17
REMARK    7  A    between atoms: N_18  and  N_22
REMARK    8  A    between atoms: N_18  and  C_23
REMARK    9  A    between atoms: C_23  and  C_25
REMARK                            x       y       z     vdW  Elec       q    Type
REMARK                         _______ _______ _______ _____ _____    ______ ____
ROOT
ATOM      1  O   UNL     1      31.732 -23.824 -16.345  0.00  0.00    -0.327 OA
ATOM      2  C   UNL     1      32.559 -24.182 -14.073  0.00  0.00    +0.169 C 
ATOM      3  C   UNL     1      32.531 -23.259 -15.299  0.00  0.00    +0.166 C 
ATOM      4  C   UNL     1      31.143 -24.525 -13.606  0.00  0.00    +0.171 C 
ATOM      5  C   UNL     1      30.291 -25.002 -14.782  0.00  0.00    +0.196 C 
ATOM      6  C   UNL     1      30.371 -24.037 -15.965  0.00  0.00    +0.266 C 
ENDROOT
BRANCH   2   7
ATOM      7  O   UNL     1      33.239 -23.548 -12.992  0.00  0.00    -0.379 OA
ATOM      8  H   UNL     1      34.086 -23.993 -12.837  0.00  0.00    +0.211 HD
ENDBRANCH   2   7
BRANCH   4   9
ATOM      9  O   UNL     1      31.232 -25.573 -12.638  0.00  0.00    -0.379 OA
ATOM     10  H   UNL     1      31.766 -25.274 -11.886  0.00  0.00    +0.211 HD
ENDBRANCH   4   9
BRANCH   5  11
ATOM     11  O   UNL     1      28.941 -25.149 -14.355  0.00  0.00    -0.378 OA
ATOM     12  H   UNL     1      28.919 -25.629 -13.513  0.00  0.00    +0.211 HD
ENDBRANCH   5  11
BRANCH   6  13
ATOM     13  O   UNL     1      29.681 -22.813 -15.722  0.00  0.00    -0.326 OA
ATOM     14  C   UNL     1      28.643 -22.608 -16.669  0.00  0.00    +0.177 C 
ENDBRANCH   6  13
BRANCH   3  15
ATOM     15  C   UNL     1      33.925 -23.031 -15.876  0.00  0.00    +0.123 C 
BRANCH  15  17
ATOM     16  O   UNL     1      36.564 -23.029 -14.889  0.00  0.00    -0.251 OA
ATOM     17  N   UNL     1      34.750 -24.188 -15.700  0.00  0.00    -0.285 N 
ATOM     18  N   UNL     1      36.740 -25.332 -15.085  0.00  0.00    -0.163 N 
ATOM     19  C   UNL     1      36.057 -24.111 -15.203  0.00  0.00    +0.320 C 
ATOM     20  H   UNL     1      34.385 -25.071 -15.937  0.00  0.00    +0.151 HD
BRANCH  18  22
ATOM     21  O   UNL     1      36.748 -27.308 -16.233  0.00  0.00    -0.078 OA
ATOM     22  N   UNL     1      36.071 -26.605 -15.475  0.00  0.00    +0.054 NA
ENDBRANCH  18  22
BRANCH  18  23
ATOM     23  C   UNL     1      38.106 -25.391 -14.579  0.00  0.00    +0.134 C 
BRANCH  23  25
ATOM     24 CL   UNL     1      38.387 -24.289 -12.098  0.00  0.00    -0.112 Cl
ATOM     25  C   UNL     1      38.165 -25.744 -13.102  0.00  0.00    +0.118 C 
ENDBRANCH  23  25
ENDBRANCH  18  23
ENDBRANCH  15  17
ENDBRANCH   3  15
TORSDOF 9
ENDMDL
MODEL 3
REMARK VINA RESULT:      -7.7      5.283     10.121
REMARK  Name = 71741
REMARK  9 active torsions:
REMARK  status: ('A' for Active; 'I' for Inactive)
REMARK    1  A    between atoms: C_2  and  O_7
REMARK    2  A    between atoms: C_3  and  C_15
REMARK    3  A    between atoms: C_4  and  O_9
REMARK    4  A    between atoms: C_5  and  O_11
REMARK    5  A    between atoms: C_6  and  O_13
REMARK    6  A    between atoms: C_15  and  N_17
REMARK    7  A    between atoms: N_18  and  N_22
REMARK    8  A    between atoms: N_18  and  C_23
REMARK    9  A    between atoms: C_23  and  C_25
REMARK                            x       y       z     vdW  Elec       q    Type
REMARK                         _______ _______ _______ _____ _____    ______ ____
ROOT
ATOM      1  O   UNL     1      35.240 -16.650 -21.712  0.00  0.00    -0.327 OA
ATOM      2  C   UNL     1      35.080 -17.900 -23.807  0.00  0.00    +0.169 C 
ATOM      3  C   UNL     1      34.864 -17.907 -22.287  0.00  0.00    +0.166 C 
ATOM      4  C   UNL     1      34.359 -16.719 -24.461  0.00  0.00    +0.171 C 
ATOM      5  C   UNL     1      34.691 -15.418 -23.734  0.00  0.00    +0.196 C 
ATOM      6  C   UNL     1      34.489 -15.548 -22.224  0.00  0.00    +0.266 C 
ENDROOT
BRANCH   2   7
ATOM      7  O   UNL     1      34.574 -19.101 -24.384  0.00  0.00    -0.379 OA
ATOM      8  H   UNL     1      33.855 -18.887 -24.999  0.00  0.00    +0.211 HD
ENDBRANCH   2   7
BRANCH   4   9
ATOM      9  O   UNL     1      34.801 -16.622 -25.818  0.00  0.00    -0.379 OA
ATOM     10  H   UNL     1      34.076 -16.870 -26.412  0.00  0.00    +0.211 HD
ENDBRANCH   4   9
BRANCH   5  11
ATOM     11  O   UNL     1      33.880 -14.369 -24.252  0.00  0.00    -0.378 OA
ATOM     12  H   UNL     1      33.927 -14.373 -25.221  0.00  0.00    +0.211 HD
ENDBRANCH   5  11
BRANCH   6  13
ATOM     13  O   UNL     1      33.112 -15.617 -21.859  0.00  0.00    -0.326 OA
ATOM     14  C   UNL     1      32.855 -14.886 -20.669  0.00  0.00    +0.177 C 
ENDBRANCH   6  13
BRANCH   3  15
ATOM     15  C   UNL     1      35.699 -18.982 -21.596  0.00  0.00    +0.123 C 
BRANCH  15  17
ATOM     16  O   UNL     1      36.497 -20.648 -19.469  0.00  0.00    -0.251 OA
ATOM     17  N   UNL     1      34.863 -19.926 -20.919  0.00  0.00    -0.285 N 
ATOM     18  N   UNL     1      34.390 -21.601 -19.300  0.00  0.00    -0.163 N 
ATOM     19  C   UNL     1      35.329 -20.724 -19.866  0.00  0.00    +0.320 C 
ATOM     20  H   UNL     1      33.924 -20.018 -21.203  0.00  0.00    +0.151 HD
BRANCH  18  22
ATOM     21  O   UNL     1      32.387 -20.573 -19.691  0.00  0.00    -0.078 OA
ATOM     22  N   UNL     1      32.994 -21.641 -19.821  0.00  0.00    +0.054 NA
ENDBRANCH  18  22
BRANCH  18  23
ATOM     23  C   UNL     1      34.746 -22.484 -18.197  0.00  0.00    +0.134 C 
BRANCH  23  25
ATOM     24 CL   UNL     1      33.714 -23.387 -15.837  0.00  0.00    -0.112 Cl
ATOM     25  C   UNL     1      33.539 -23.186 -17.599  0.00  0.00    +0.118 C 
ENDBRANCH  23  25
ENDBRANCH  18  23
ENDBRANCH  15  17
ENDBRANCH   3  15
TORSDOF 9
ENDMDL
MODEL 4
REMARK VINA RESULT:      -7.7      4.667      7.210
REMARK  Name = 71741
REMARK  9 active torsions:
REMARK  status: ('A' for Active; 'I' for Inactive)
REMARK    1  A    between atoms: C_2  and  O_7
REMARK    2  A    between atoms: C_3  and  C_15
REMARK    3  A    between atoms: C_4  and  O_9
REMARK    4  A    between atoms: C_5  and  O_11
REMARK    5  A    between atoms: C_6  and  O_13
REMARK    6  A    between atoms: C_15  and  N_17
REMARK    7  A    between atoms: N_18  and  N_22
REMARK    8  A    between atoms: N_18  and  C_23
REMARK    9  A    between atoms: C_23  and  C_25
REMARK                            x       y       z     vdW  Elec       q    Type
REMARK                         _______ _______ _______ _____ _____    ______ ____
ROOT
ATOM      1  O   UNL     1      31.649 -24.101 -16.120  0.00  0.00    -0.327 OA
ATOM      2  C   UNL     1      32.043 -23.892 -13.717  0.00  0.00    +0.169 C 
ATOM      3  C   UNL     1      32.254 -23.285 -15.111  0.00  0.00    +0.166 C 
ATOM      4  C   UNL     1      30.559 -24.153 -13.447  0.00  0.00    +0.171 C 
ATOM      5  C   UNL     1      29.927 -24.915 -14.611  0.00  0.00    +0.196 C 
ATOM      6  C   UNL     1      30.238 -24.254 -15.953  0.00  0.00    +0.266 C 
ENDROOT
BRANCH   2   7
ATOM      7  O   UNL     1      32.525 -23.005 -12.712  0.00  0.00    -0.379 OA
ATOM      8  H   UNL     1      33.164 -22.389 -13.103  0.00  0.00    +0.211 HD
ENDBRANCH   2   7
BRANCH   4   9
ATOM      9  O   UNL     1      30.452 -24.941 -12.259  0.00  0.00    -0.379 OA
ATOM     10  H   UNL     1      29.961 -24.445 -11.585  0.00  0.00    +0.211 HD
ENDBRANCH   4   9
BRANCH   5  11
ATOM     11  O   UNL     1      28.519 -24.993 -14.413  0.00  0.00    -0.378 OA
ATOM     12  H   UNL     1      28.322 -24.928 -13.465  0.00  0.00    +0.211 HD
ENDBRANCH   5  11
BRANCH   6  13
ATOM     13  O   UNL     1      29.537 -23.026 -16.136  0.00  0.00    -0.326 OA
ATOM     14  C   UNL     1      28.462 -23.175 -17.052  0.00  0.00    +0.177 C 
ENDBRANCH   6  13
BRANCH   3  15
ATOM     15  C   UNL     1      33.734 -23.163 -15.463  0.00  0.00    +0.123 C 
BRANCH  15  17
ATOM     16  O   UNL     1      35.671 -25.186 -15.763  0.00  0.00    -0.251 OA
ATOM     17  N   UNL     1      34.557 -23.689 -14.417  0.00  0.00    -0.285 N 
ATOM     18  N   UNL     1      36.235 -25.110 -13.515  0.00  0.00    -0.163 N 
ATOM     19  C   UNL     1      35.501 -24.699 -14.640  0.00  0.00    +0.320 C 
ATOM     20  H   UNL     1      34.455 -23.329 -13.506  0.00  0.00    +0.151 HD
BRANCH  18  22
ATOM     21  O   UNL     1      34.927 -24.832 -11.662  0.00  0.00    -0.078 OA
ATOM     22  N   UNL     1      35.988 -24.479 -12.188  0.00  0.00    +0.054 NA
ENDBRANCH  18  22
BRANCH  18  23
ATOM     23  C   UNL     1      37.251 -26.151 -13.612  0.00  0.00    +0.134 C 
BRANCH  23  25
ATOM     24 CL   UNL     1      39.574 -25.226 -14.705  0.00  0.00    -0.112 Cl
ATOM     25  C   UNL     1      38.638 -25.648 -13.249  0.00  0.00    +0.118 C 
ENDBRANCH  23  25
ENDBRANCH  18  23
ENDBRANCH  15  17
ENDBRANCH   3  15
TORSDOF 9
ENDMDL
MODEL 5
REMARK VINA RESULT:      -7.6      4.049      4.759
REMARK  Name = 71741
REMARK  9 active torsions:
REMARK  status: ('A' for Active; 'I' for Inactive)
REMARK    1  A    between atoms: C_2  and  O_7
REMARK    2  A    between atoms: C_3  and  C_15
REMARK    3  A    between atoms: C_4  and  O_9
REMARK    4  A    between atoms: C_5  and  O_11
REMARK    5  A    between atoms: C_6  and  O_13
REMARK    6  A    between atoms: C_15  and  N_17
REMARK    7  A    between atoms: N_18  and  N_22
REMARK    8  A    between atoms: N_18  and  C_23
REMARK    9  A    between atoms: C_23  and  C_25
REMARK                            x       y       z     vdW  Elec       q    Type
REMARK                         _______ _______ _______ _____ _____    ______ ____
ROOT
ATOM      1  O   UNL     1      36.554 -23.230 -14.228  0.00  0.00    -0.327 OA
ATOM      2  C   UNL     1      34.773 -24.119 -12.810  0.00  0.00    +0.169 C 
ATOM      3  C   UNL     1      35.297 -23.916 -14.239  0.00  0.00    +0.166 C 
ATOM      4  C   UNL     1      35.813 -24.819 -11.933  0.00  0.00    +0.171 C 
ATOM      5  C   UNL     1      37.170 -24.127 -12.055  0.00  0.00    +0.196 C 
ATOM      6  C   UNL     1      37.575 -23.932 -13.516  0.00  0.00    +0.266 C 
ENDROOT
BRANCH   2   7
ATOM      7  O   UNL     1      33.595 -24.922 -12.824  0.00  0.00    -0.379 OA
ATOM      8  H   UNL     1      32.935 -24.538 -12.227  0.00  0.00    +0.211 HD
ENDBRANCH   2   7
BRANCH   4   9
ATOM      9  O   UNL     1      35.374 -24.749 -10.575  0.00  0.00    -0.379 OA
ATOM     10  H   UNL     1      34.518 -24.294 -10.535  0.00  0.00    +0.211 HD
ENDBRANCH   4   9
BRANCH   5  11
ATOM     11  O   UNL     1      38.153 -24.895 -11.368  0.00  0.00    -0.378 OA
ATOM     12  H   UNL     1      37.717 -25.591 -10.853  0.00  0.00    +0.211 HD
ENDBRANCH   5  11
BRANCH   6  13
ATOM     13  O   UNL     1      37.935 -25.155 -14.154  0.00  0.00    -0.326 OA
ATOM     14  C   UNL     1      39.211 -25.063 -14.769  0.00  0.00    +0.177 C 
ENDBRANCH   6  13
BRANCH   3  15
ATOM     15  C   UNL     1      34.341 -23.083 -15.087  0.00  0.00    +0.123 C 
BRANCH  15  17
ATOM     16  O   UNL     1      32.122 -23.361 -16.801  0.00  0.00    -0.251 OA
ATOM     17  N   UNL     1      32.984 -23.274 -14.670  0.00  0.00    -0.285 N 
ATOM     18  N   UNL     1      30.655 -23.589 -15.021  0.00  0.00    -0.163 N 
ATOM     19  C   UNL     1      31.929 -23.405 -15.581  0.00  0.00    +0.320 C 
ATOM     20  H   UNL     1      32.785 -23.315 -13.706  0.00  0.00    +0.151 HD
BRANCH  18  22
ATOM     21  O   UNL     1      30.857 -24.704 -13.036  0.00  0.00    -0.078 OA
ATOM     22  N   UNL     1      30.488 -23.638 -13.540  0.00  0.00    +0.054 NA
ENDBRANCH  18  22
BRANCH  18  23
ATOM     23  C   UNL     1      29.473 -23.741 -15.859  0.00  0.00    +0.134 C 
BRANCH  23  25
ATOM     24 CL   UNL     1      27.136 -22.333 -15.783  0.00  0.00    -0.112 Cl
ATOM     25  C   UNL     1      28.855 -22.407 -16.243  0.00  0.00    +0.118 C 
ENDBRANCH  23  25
ENDBRANCH  18  23
ENDBRANCH  15  17
ENDBRANCH   3  15
TORSDOF 9
ENDMDL
MODEL 6
REMARK VINA RESULT:      -7.6      1.358      2.497
REMARK  Name = 71741
REMARK  9 active torsions:
REMARK  status: ('A' for Active; 'I' for Inactive)
REMARK    1  A    between atoms: C_2  and  O_7
REMARK    2  A    between atoms: C_3  and  C_15
REMARK    3  A    between atoms: C_4  and  O_9
REMARK    4  A    between atoms: C_5  and  O_11
REMARK    5  A    between atoms: C_6  and  O_13
REMARK    6  A    between atoms: C_15  and  N_17
REMARK    7  A    between atoms: N_18  and  N_22
REMARK    8  A    between atoms: N_18  and  C_23
REMARK    9  A    between atoms: C_23  and  C_25
REMARK                            x       y       z     vdW  Elec       q    Type
REMARK                         _______ _______ _______ _____ _____    ______ ____
ROOT
ATOM      1  O   UNL     1      36.135 -23.642 -14.205  0.00  0.00    -0.327 OA
ATOM      2  C   UNL     1      38.197 -24.528 -15.172  0.00  0.00    +0.169 C 
ATOM      3  C   UNL     1      37.454 -23.294 -14.642  0.00  0.00    +0.166 C 
ATOM      4  C   UNL     1      38.203 -25.656 -14.138  0.00  0.00    +0.171 C 
ATOM      5  C   UNL     1      36.792 -25.904 -13.607  0.00  0.00    +0.196 C 
ATOM      6  C   UNL     1      36.125 -24.606 -13.151  0.00  0.00    +0.266 C 
ENDROOT
BRANCH   2   7
ATOM      7  O   UNL     1      39.551 -24.199 -15.473  0.00  0.00    -0.379 OA
ATOM      8  H   UNL     1      40.042 -24.063 -14.648  0.00  0.00    +0.211 HD
ENDBRANCH   2   7
BRANCH   4   9
ATOM      9  O   UNL     1      38.677 -26.845 -14.776  0.00  0.00    -0.379 OA
ATOM     10  H   UNL     1      38.046 -27.566 -14.626  0.00  0.00    +0.211 HD
ENDBRANCH   4   9
BRANCH   5  11
ATOM     11  O   UNL     1      36.851 -26.834 -12.530  0.00  0.00    -0.378 OA
ATOM     12  H   UNL     1      37.040 -26.361 -11.705  0.00  0.00    +0.211 HD
ENDBRANCH   5  11
BRANCH   6  13
ATOM     13  O   UNL     1      36.688 -24.094 -11.945  0.00  0.00    -0.326 OA
ATOM     14  C   UNL     1      35.739 -24.094 -10.890  0.00  0.00    +0.177 C 
ENDBRANCH   6  13
BRANCH   3  15
ATOM     15  C   UNL     1      37.300 -22.216 -15.711  0.00  0.00    +0.123 C 
BRANCH  15  17
ATOM     16  O   UNL     1      36.805 -20.978 -18.193  0.00  0.00    -0.251 OA
ATOM     17  N   UNL     1      36.206 -22.512 -16.586  0.00  0.00    -0.285 N 
ATOM     18  N   UNL     1      34.905 -22.254 -18.558  0.00  0.00    -0.163 N 
ATOM     19  C   UNL     1      36.022 -21.853 -17.808  0.00  0.00    +0.320 C 
ATOM     20  H   UNL     1      35.559 -23.204 -16.319  0.00  0.00    +0.151 HD
BRANCH  18  22
ATOM     21  O   UNL     1      33.710 -24.175 -18.886  0.00  0.00    -0.078 OA
ATOM     22  N   UNL     1      34.001 -23.321 -18.042  0.00  0.00    +0.054 NA
ENDBRANCH  18  22
BRANCH  18  23
ATOM     23  C   UNL     1      34.601 -21.650 -19.849  0.00  0.00    +0.134 C 
BRANCH  23  25
ATOM     24 CL   UNL     1      33.397 -19.466 -20.957  0.00  0.00    -0.112 Cl
ATOM     25  C   UNL     1      33.316 -20.839 -19.825  0.00  0.00    +0.118 C 
ENDBRANCH  23  25
ENDBRANCH  18  23
ENDBRANCH  15  17
ENDBRANCH   3  15
TORSDOF 9
ENDMDL
MODEL 7
REMARK VINA RESULT:      -7.4      3.819      5.514
REMARK  Name = 71741
REMARK  9 active torsions:
REMARK  status: ('A' for Active; 'I' for Inactive)
REMARK    1  A    between atoms: C_2  and  O_7
REMARK    2  A    between atoms: C_3  and  C_15
REMARK    3  A    between atoms: C_4  and  O_9
REMARK    4  A    between atoms: C_5  and  O_11
REMARK    5  A    between atoms: C_6  and  O_13
REMARK    6  A    between atoms: C_15  and  N_17
REMARK    7  A    between atoms: N_18  and  N_22
REMARK    8  A    between atoms: N_18  and  C_23
REMARK    9  A    between atoms: C_23  and  C_25
REMARK                            x       y       z     vdW  Elec       q    Type
REMARK                         _______ _______ _______ _____ _____    ______ ____
ROOT
ATOM      1  O   UNL     1      31.358 -24.055 -16.299  0.00  0.00    -0.327 OA
ATOM      2  C   UNL     1      32.101 -24.052 -13.970  0.00  0.00    +0.169 C 
ATOM      3  C   UNL     1      32.128 -23.337 -15.328  0.00  0.00    +0.166 C 
ATOM      4  C   UNL     1      30.664 -24.305 -13.507  0.00  0.00    +0.171 C 
ATOM      5  C   UNL     1      29.847 -24.956 -14.622  0.00  0.00    +0.196 C 
ATOM      6  C   UNL     1      29.982 -24.193 -15.940  0.00  0.00    +0.266 C 
ENDROOT
BRANCH   2   7
ATOM      7  O   UNL     1      32.751 -23.260 -12.980  0.00  0.00    -0.379 OA
ATOM      8  H   UNL     1      33.391 -22.670 -13.407  0.00  0.00    +0.211 HD
ENDBRANCH   2   7
BRANCH   4   9
ATOM      9  O   UNL     1      30.705 -25.186 -12.382  0.00  0.00    -0.379 OA
ATOM     10  H   UNL     1      29.821 -25.246 -11.987  0.00  0.00    +0.211 HD
ENDBRANCH   4   9
BRANCH   5  11
ATOM     11  O   UNL     1      28.481 -25.022 -14.227  0.00  0.00    -0.378 OA
ATOM     12  H   UNL     1      28.422 -25.383 -13.329  0.00  0.00    +0.211 HD
ENDBRANCH   5  11
BRANCH   6  13
ATOM     13  O   UNL     1      29.301 -22.940 -15.921  0.00  0.00    -0.326 OA
ATOM     14  C   UNL     1      28.295 -22.883 -16.921  0.00  0.00    +0.177 C 
ENDBRANCH   6  13
BRANCH   3  15
ATOM     15  C   UNL     1      33.544 -23.215 -15.882  0.00  0.00    +0.123 C 
BRANCH  15  17
ATOM     16  O   UNL     1      35.810 -22.560 -17.423  0.00  0.00    -0.251 OA
ATOM     17  N   UNL     1      33.527 -22.780 -17.246  0.00  0.00    -0.285 N 
ATOM     18  N   UNL     1      34.519 -22.060 -19.282  0.00  0.00    -0.163 N 
ATOM     19  C   UNL     1      34.697 -22.471 -17.951  0.00  0.00    +0.320 C 
ATOM     20  H   UNL     1      32.661 -22.695 -17.706  0.00  0.00    +0.151 HD
BRANCH  18  22
ATOM     21  O   UNL     1      32.538 -20.950 -19.546  0.00  0.00    -0.078 OA
ATOM     22  N   UNL     1      33.149 -21.977 -19.864  0.00  0.00    +0.054 NA
ENDBRANCH  18  22
BRANCH  18  23
ATOM     23  C   UNL     1      35.655 -21.711 -20.126  0.00  0.00    +0.134 C 
BRANCH  23  25
ATOM     24 CL   UNL     1      35.026 -19.660 -21.813  0.00  0.00    -0.112 Cl
ATOM     25  C   UNL     1      35.806 -20.210 -20.309  0.00  0.00    +0.118 C 
ENDBRANCH  23  25
ENDBRANCH  18  23
ENDBRANCH  15  17
ENDBRANCH   3  15
TORSDOF 9
ENDMDL
MODEL 8
REMARK VINA RESULT:      -7.4      6.411     10.623
REMARK  Name = 71741
REMARK  9 active torsions:
REMARK  status: ('A' for Active; 'I' for Inactive)
REMARK    1  A    between atoms: C_2  and  O_7
REMARK    2  A    between atoms: C_3  and  C_15
REMARK    3  A    between atoms: C_4  and  O_9
REMARK    4  A    between atoms: C_5  and  O_11
REMARK    5  A    between atoms: C_6  and  O_13
REMARK    6  A    between atoms: C_15  and  N_17
REMARK    7  A    between atoms: N_18  and  N_22
REMARK    8  A    between atoms: N_18  and  C_23
REMARK    9  A    between atoms: C_23  and  C_25
REMARK                            x       y       z     vdW  Elec       q    Type
REMARK                         _______ _______ _______ _____ _____    ______ ____
ROOT
ATOM      1  O   UNL     1      33.866 -15.735 -23.522  0.00  0.00    -0.327 OA
ATOM      2  C   UNL     1      34.058 -15.961 -21.096  0.00  0.00    +0.169 C 
ATOM      3  C   UNL     1      34.782 -15.985 -22.450  0.00  0.00    +0.166 C 
ATOM      4  C   UNL     1      33.278 -14.657 -20.909  0.00  0.00    +0.171 C 
ATOM      5  C   UNL     1      32.413 -14.368 -22.135  0.00  0.00    +0.196 C 
ATOM      6  C   UNL     1      33.219 -14.465 -23.430  0.00  0.00    +0.266 C 
ENDROOT
BRANCH   2   7
ATOM      7  O   UNL     1      34.997 -16.070 -20.030  0.00  0.00    -0.379 OA
ATOM      8  H   UNL     1      35.790 -15.554 -20.244  0.00  0.00    +0.211 HD
ENDBRANCH   2   7
BRANCH   4   9
ATOM      9  O   UNL     1      32.434 -14.801 -19.764  0.00  0.00    -0.379 OA
ATOM     10  H   UNL     1      32.096 -15.709 -19.724  0.00  0.00    +0.211 HD
ENDBRANCH   4   9
BRANCH   5  11
ATOM     11  O   UNL     1      31.834 -13.074 -22.009  0.00  0.00    -0.378 OA
ATOM     12  H   UNL     1      31.919 -12.599 -22.850  0.00  0.00    +0.211 HD
ENDBRANCH   5  11
BRANCH   6  13
ATOM     13  O   UNL     1      34.132 -13.381 -23.590  0.00  0.00    -0.326 OA
ATOM     14  C   UNL     1      33.771 -12.559 -24.690  0.00  0.00    +0.177 C 
ENDBRANCH   6  13
BRANCH   3  15
ATOM     15  C   UNL     1      35.436 -17.335 -22.725  0.00  0.00    +0.123 C 
BRANCH  15  17
ATOM     16  O   UNL     1      36.599 -19.161 -20.922  0.00  0.00    -0.251 OA
ATOM     17  N   UNL     1      34.745 -18.389 -22.045  0.00  0.00    -0.285 N 
ATOM     18  N   UNL     1      34.579 -20.243 -20.567  0.00  0.00    -0.163 N 
ATOM     19  C   UNL     1      35.390 -19.262 -21.160  0.00  0.00    +0.320 C 
ATOM     20  H   UNL     1      33.780 -18.505 -22.205  0.00  0.00    +0.151 HD
BRANCH  18  22
ATOM     21  O   UNL     1      32.484 -19.332 -20.489  0.00  0.00    -0.078 OA
ATOM     22  N   UNL     1      33.126 -20.309 -20.891  0.00  0.00    +0.054 NA
ENDBRANCH  18  22
BRANCH  18  23
ATOM     23  C   UNL     1      35.127 -21.212 -19.626  0.00  0.00    +0.134 C 
BRANCH  23  25
ATOM     24 CL   UNL     1      34.487 -22.796 -17.497  0.00  0.00    -0.112 Cl
ATOM     25  C   UNL     1      34.080 -22.192 -19.123  0.00  0.00    +0.118 C 
ENDBRANCH  23  25
ENDBRANCH  18  23
ENDBRANCH  15  17
ENDBRANCH   3  15
TORSDOF 9
ENDMDL
MODEL 9
REMARK VINA RESULT:      -7.4      1.498      2.229
REMARK  Name = 71741
REMARK  9 active torsions:
REMARK  status: ('A' for Active; 'I' for Inactive)
REMARK    1  A    between atoms: C_2  and  O_7
REMARK    2  A    between atoms: C_3  and  C_15
REMARK    3  A    between atoms: C_4  and  O_9
REMARK    4  A    between atoms: C_5  and  O_11
REMARK    5  A    between atoms: C_6  and  O_13
REMARK    6  A    between atoms: C_15  and  N_17
REMARK    7  A    between atoms: N_18  and  N_22
REMARK    8  A    between atoms: N_18  and  C_23
REMARK    9  A    between atoms: C_23  and  C_25
REMARK                            x       y       z     vdW  Elec       q    Type
REMARK                         _______ _______ _______ _____ _____    ______ ____
ROOT
ATOM      1  O   UNL     1      36.521 -23.605 -14.309  0.00  0.00    -0.327 OA
ATOM      2  C   UNL     1      34.707 -24.182 -12.775  0.00  0.00    +0.169 C 
ATOM      3  C   UNL     1      35.234 -24.226 -14.216  0.00  0.00    +0.166 C 
ATOM      4  C   UNL     1      35.719 -24.786 -11.799  0.00  0.00    +0.171 C 
ATOM      5  C   UNL     1      37.106 -24.185 -12.022  0.00  0.00    +0.196 C 
ATOM      6  C   UNL     1      37.512 -24.235 -13.495  0.00  0.00    +0.266 C 
ENDROOT
BRANCH   2   7
ATOM      7  O   UNL     1      33.494 -24.923 -12.668  0.00  0.00    -0.379 OA
ATOM      8  H   UNL     1      33.690 -25.820 -12.353  0.00  0.00    +0.211 HD
ENDBRANCH   2   7
BRANCH   4   9
ATOM      9  O   UNL     1      35.290 -24.488 -10.468  0.00  0.00    -0.379 OA
ATOM     10  H   UNL     1      35.972 -23.966 -10.018  0.00  0.00    +0.211 HD
ENDBRANCH   4   9
BRANCH   5  11
ATOM     11  O   UNL     1      38.056 -24.882 -11.224  0.00  0.00    -0.378 OA
ATOM     12  H   UNL     1      37.905 -25.837 -11.303  0.00  0.00    +0.211 HD
ENDBRANCH   5  11
BRANCH   6  13
ATOM     13  O   UNL     1      37.812 -25.557 -13.936  0.00  0.00    -0.326 OA
ATOM     14  C   UNL     1      39.067 -25.610 -14.598  0.00  0.00    +0.177 C 
ENDBRANCH   6  13
BRANCH   3  15
ATOM     15  C   UNL     1      34.312 -23.490 -15.185  0.00  0.00    +0.123 C 
BRANCH  15  17
ATOM     16  O   UNL     1      33.767 -23.395 -17.947  0.00  0.00    -0.251 OA
ATOM     17  N   UNL     1      35.067 -22.760 -16.158  0.00  0.00    -0.285 N 
ATOM     18  N   UNL     1      35.569 -21.994 -18.351  0.00  0.00    -0.163 N 
ATOM     19  C   UNL     1      34.736 -22.759 -17.519  0.00  0.00    +0.320 C 
ATOM     20  H   UNL     1      35.847 -22.239 -15.860  0.00  0.00    +0.151 HD
BRANCH  18  22
ATOM     21  O   UNL     1      37.536 -21.965 -17.186  0.00  0.00    -0.078 OA
ATOM     22  N   UNL     1      36.721 -21.244 -17.772  0.00  0.00    +0.054 NA
ENDBRANCH  18  22
BRANCH  18  23
ATOM     23  C   UNL     1      35.334 -21.907 -19.786  0.00  0.00    +0.134 C 
BRANCH  23  25
ATOM     24 CL   UNL     1      33.049 -20.472 -20.197  0.00  0.00    -0.112 Cl
ATOM     25  C   UNL     1      34.829 -20.538 -20.213  0.00  0.00    +0.118 C 
ENDBRANCH  23  25
ENDBRANCH  18  23
ENDBRANCH  15  17
ENDBRANCH   3  15
TORSDOF 9
ENDMDL
