MODEL 1
REMARK VINA RESULT:      -9.1      0.000      0.000
REMARK  Name = 1548968
REMARK  7 active torsions:
REMARK  status: ('A' for Active; 'I' for Inactive)
REMARK    1  A    between atoms: C_1  and  C_2
REMARK    2  A    between atoms: C_1  and  O_8
REMARK    3  A    between atoms: C_1  and  C_19
REMARK    4  A    between atoms: O_8  and  C_9
REMARK    5  A    between atoms: C_12  and  C_18
REMARK    6  A    between atoms: C_19  and  C_20
REMARK    7  A    between atoms: C_20  and  N_21
REMARK                            x       y       z     vdW  Elec       q    Type
REMARK                         _______ _______ _______ _____ _____    ______ ____
ROOT
ATOM      1  C   UNL     1      34.499 -18.153 -22.222  0.00  0.00    +0.186 C 
ENDROOT
BRANCH   1   2
ATOM      2  C   UNL     1      34.441 -19.311 -21.254  0.00  0.00    +0.017 C 
ATOM      3  C   UNL     1      33.208 -19.758 -20.805  0.00  0.00    -0.001 C 
ATOM      4  C   UNL     1      35.620 -19.904 -20.835  0.00  0.00    -0.001 C 
ATOM      5  C   UNL     1      33.154 -20.828 -19.912  0.00  0.00    -0.000 C 
ATOM      6  C   UNL     1      35.566 -20.974 -19.941  0.00  0.00    -0.000 C 
ATOM      7  C   UNL     1      34.333 -21.436 -19.480  0.00  0.00    -0.000 C 
ENDBRANCH   1   2
BRANCH   1   8
ATOM      8  O   UNL     1      35.051 -17.029 -21.533  0.00  0.00    -0.475 OA
BRANCH   8   9
ATOM      9  C   UNL     1      34.306 -15.882 -21.540  0.00  0.00    +0.139 C 
ATOM     10  C   UNL     1      34.572 -14.893 -22.481  0.00  0.00    +0.037 C 
ATOM     11  C   UNL     1      33.287 -15.713 -20.607  0.00  0.00    +0.037 C 
ATOM     12  C   UNL     1      32.791 -13.547 -21.556  0.00  0.00    +0.072 C 
ATOM     13  C   UNL     1      33.813 -13.722 -22.489  0.00  0.00    +0.007 C 
ATOM     14  C   UNL     1      32.528 -14.544 -20.615  0.00  0.00    +0.007 C 
BRANCH  12  18
ATOM     15  F   UNL     1      32.630 -11.225 -22.104  0.00  0.00    -0.166 F 
ATOM     16  F   UNL     1      30.818 -12.404 -22.277  0.00  0.00    -0.166 F 
ATOM     17  F   UNL     1      31.604 -11.905 -20.312  0.00  0.00    -0.166 F 
ATOM     18  C   UNL     1      31.978 -12.297 -21.565  0.00  0.00    +0.419 C 
ENDBRANCH  12  18
ENDBRANCH   8   9
ENDBRANCH   1   8
BRANCH   1  19
ATOM     19  C   UNL     1      35.343 -18.430 -23.478  0.00  0.00    +0.025 C 
BRANCH  19  20
ATOM     20  C   UNL     1      34.590 -18.143 -24.777  0.00  0.00    -0.078 C 
BRANCH  20  21
ATOM     21  N   UNL     1      34.980 -16.842 -25.308  0.00  0.00    +0.382 N 
ATOM     22  C   UNL     1      33.808 -16.050 -25.654  0.00  0.00    -0.106 C 
ATOM     23  H   UNL     1      35.550 -16.978 -26.143  0.00  0.00    -0.085 HD
ATOM     24  H   UNL     1      35.510 -16.343 -24.593  0.00  0.00    -0.085 HD
ENDBRANCH  20  21
ENDBRANCH  19  20
ENDBRANCH   1  19
TORSDOF 7
ENDMDL
MODEL 2
REMARK VINA RESULT:      -9.1      5.235      7.919
REMARK  Name = 1548968
REMARK  7 active torsions:
REMARK  status: ('A' for Active; 'I' for Inactive)
REMARK    1  A    between atoms: C_1  and  C_2
REMARK    2  A    between atoms: C_1  and  O_8
REMARK    3  A    between atoms: C_1  and  C_19
REMARK    4  A    between atoms: O_8  and  C_9
REMARK    5  A    between atoms: C_12  and  C_18
REMARK    6  A    between atoms: C_19  and  C_20
REMARK    7  A    between atoms: C_20  and  N_21
REMARK                            x       y       z     vdW  Elec       q    Type
REMARK                         _______ _______ _______ _____ _____    ______ ____
ROOT
ATOM      1  C   UNL     1      33.925 -23.072 -16.676  0.00  0.00    +0.186 C 
ENDROOT
BRANCH   1   2
ATOM      2  C   UNL     1      35.174 -23.497 -15.940  0.00  0.00    +0.017 C 
ATOM      3  C   UNL     1      36.304 -22.697 -16.004  0.00  0.00    -0.001 C 
ATOM      4  C   UNL     1      35.165 -24.676 -15.213  0.00  0.00    -0.001 C 
ATOM      5  C   UNL     1      37.457 -23.088 -15.324  0.00  0.00    -0.000 C 
ATOM      6  C   UNL     1      36.319 -25.067 -14.533  0.00  0.00    -0.000 C 
ATOM      7  C   UNL     1      37.464 -24.273 -14.589  0.00  0.00    -0.000 C 
ENDBRANCH   1   2
BRANCH   1   8
ATOM      8  O   UNL     1      34.114 -23.356 -18.064  0.00  0.00    -0.475 OA
BRANCH   8   9
ATOM      9  C   UNL     1      34.228 -22.279 -18.897  0.00  0.00    +0.139 C 
ATOM     10  C   UNL     1      33.088 -21.588 -19.294  0.00  0.00    +0.037 C 
ATOM     11  C   UNL     1      35.486 -21.879 -19.342  0.00  0.00    +0.037 C 
ATOM     12  C   UNL     1      34.462 -20.084 -20.594  0.00  0.00    +0.072 C 
ATOM     13  C   UNL     1      33.205 -20.488 -20.145  0.00  0.00    +0.007 C 
ATOM     14  C   UNL     1      35.602 -20.780 -20.192  0.00  0.00    +0.007 C 
BRANCH  12  18
ATOM     15  F   UNL     1      33.762 -17.871 -21.172  0.00  0.00    -0.166 F 
ATOM     16  F   UNL     1      35.843 -18.370 -21.531  0.00  0.00    -0.166 F 
ATOM     17  F   UNL     1      34.290 -19.213 -22.800  0.00  0.00    -0.166 F 
ATOM     18  C   UNL     1      34.587 -18.909 -21.502  0.00  0.00    +0.419 C 
ENDBRANCH  12  18
ENDBRANCH   8   9
ENDBRANCH   1   8
BRANCH   1  19
ATOM     19  C   UNL     1      32.646 -23.776 -16.193  0.00  0.00    +0.025 C 
BRANCH  19  20
ATOM     20  C   UNL     1      31.528 -22.798 -15.830  0.00  0.00    -0.078 C 
BRANCH  20  21
ATOM     21  N   UNL     1      30.571 -22.698 -16.928  0.00  0.00    +0.382 N 
ATOM     22  C   UNL     1      29.203 -22.736 -16.429  0.00  0.00    -0.106 C 
ATOM     23  H   UNL     1      30.715 -23.478 -17.569  0.00  0.00    -0.085 HD
ATOM     24  H   UNL     1      30.718 -21.811 -17.408  0.00  0.00    -0.085 HD
ENDBRANCH  20  21
ENDBRANCH  19  20
ENDBRANCH   1  19
TORSDOF 7
ENDMDL
MODEL 3
REMARK VINA RESULT:      -8.9      4.488      6.972
REMARK  Name = 1548968
REMARK  7 active torsions:
REMARK  status: ('A' for Active; 'I' for Inactive)
REMARK    1  A    between atoms: C_1  and  C_2
REMARK    2  A    between atoms: C_1  and  O_8
REMARK    3  A    between atoms: C_1  and  C_19
REMARK    4  A    between atoms: O_8  and  C_9
REMARK    5  A    between atoms: C_12  and  C_18
REMARK    6  A    between atoms: C_19  and  C_20
REMARK    7  A    between atoms: C_20  and  N_21
REMARK                            x       y       z     vdW  Elec       q    Type
REMARK                         _______ _______ _______ _____ _____    ______ ____
ROOT
ATOM      1  C   UNL     1      34.937 -17.756 -21.802  0.00  0.00    +0.186 C 
ENDROOT
BRANCH   1   2
ATOM      2  C   UNL     1      34.242 -16.427 -21.625  0.00  0.00    +0.017 C 
ATOM      3  C   UNL     1      34.660 -15.338 -22.373  0.00  0.00    -0.001 C 
ATOM      4  C   UNL     1      33.200 -16.322 -20.719  0.00  0.00    -0.001 C 
ATOM      5  C   UNL     1      34.018 -14.111 -22.210  0.00  0.00    -0.000 C 
ATOM      6  C   UNL     1      32.558 -15.094 -20.555  0.00  0.00    -0.000 C 
ATOM      7  C   UNL     1      32.967 -13.989 -21.301  0.00  0.00    -0.000 C 
ENDBRANCH   1   2
BRANCH   1   8
ATOM      8  O   UNL     1      33.933 -18.763 -21.947  0.00  0.00    -0.475 OA
BRANCH   8   9
ATOM      9  C   UNL     1      33.908 -19.743 -20.994  0.00  0.00    +0.139 C 
ATOM     10  C   UNL     1      32.696 -20.127 -20.430  0.00  0.00    +0.037 C 
ATOM     11  C   UNL     1      35.096 -20.351 -20.597  0.00  0.00    +0.037 C 
ATOM     12  C   UNL     1      33.857 -21.739 -19.055  0.00  0.00    +0.072 C 
ATOM     13  C   UNL     1      32.670 -21.127 -19.458  0.00  0.00    +0.007 C 
ATOM     14  C   UNL     1      35.069 -21.351 -19.625  0.00  0.00    +0.007 C 
BRANCH  12  18
ATOM     15  F   UNL     1      34.961 -22.859 -17.252  0.00  0.00    -0.166 F 
ATOM     16  F   UNL     1      32.802 -22.681 -17.126  0.00  0.00    -0.166 F 
ATOM     17  F   UNL     1      33.696 -24.058 -18.553  0.00  0.00    -0.166 F 
ATOM     18  C   UNL     1      33.830 -22.809 -18.017  0.00  0.00    +0.419 C 
ENDBRANCH  12  18
ENDBRANCH   8   9
ENDBRANCH   1   8
BRANCH   1  19
ATOM     19  C   UNL     1      35.877 -17.812 -23.018  0.00  0.00    +0.025 C 
BRANCH  19  20
ATOM     20  C   UNL     1      35.400 -18.783 -24.098  0.00  0.00    -0.078 C 
BRANCH  20  21
ATOM     21  N   UNL     1      34.307 -18.190 -24.860  0.00  0.00    +0.382 N 
ATOM     22  C   UNL     1      34.701 -16.901 -25.415  0.00  0.00    -0.106 C 
ATOM     23  H   UNL     1      33.504 -18.057 -24.246  0.00  0.00    -0.085 HD
ATOM     24  H   UNL     1      34.068 -18.815 -25.629  0.00  0.00    -0.085 HD
ENDBRANCH  20  21
ENDBRANCH  19  20
ENDBRANCH   1  19
TORSDOF 7
ENDMDL
MODEL 4
REMARK VINA RESULT:      -8.7      6.888      9.652
REMARK  Name = 1548968
REMARK  7 active torsions:
REMARK  status: ('A' for Active; 'I' for Inactive)
REMARK    1  A    between atoms: C_1  and  C_2
REMARK    2  A    between atoms: C_1  and  O_8
REMARK    3  A    between atoms: C_1  and  C_19
REMARK    4  A    between atoms: O_8  and  C_9
REMARK    5  A    between atoms: C_12  and  C_18
REMARK    6  A    between atoms: C_19  and  C_20
REMARK    7  A    between atoms: C_20  and  N_21
REMARK                            x       y       z     vdW  Elec       q    Type
REMARK                         _______ _______ _______ _____ _____    ______ ____
ROOT
ATOM      1  C   UNL     1      35.160 -21.703 -18.289  0.00  0.00    +0.186 C 
ENDROOT
BRANCH   1   2
ATOM      2  C   UNL     1      34.744 -20.943 -19.525  0.00  0.00    +0.017 C 
ATOM      3  C   UNL     1      33.396 -20.796 -19.810  0.00  0.00    -0.001 C 
ATOM      4  C   UNL     1      35.718 -20.405 -20.350  0.00  0.00    -0.001 C 
ATOM      5  C   UNL     1      33.011 -20.093 -20.951  0.00  0.00    -0.000 C 
ATOM      6  C   UNL     1      35.333 -19.702 -21.493  0.00  0.00    -0.000 C 
ATOM      7  C   UNL     1      33.979 -19.546 -21.792  0.00  0.00    -0.000 C 
ENDBRANCH   1   2
BRANCH   1   8
ATOM      8  O   UNL     1      34.483 -22.962 -18.296  0.00  0.00    -0.475 OA
BRANCH   8   9
ATOM      9  C   UNL     1      33.670 -23.224 -17.229  0.00  0.00    +0.139 C 
ATOM     10  C   UNL     1      34.222 -23.675 -16.034  0.00  0.00    +0.037 C 
ATOM     11  C   UNL     1      32.295 -23.038 -17.345  0.00  0.00    +0.037 C 
ATOM     12  C   UNL     1      32.015 -23.758 -15.055  0.00  0.00    +0.072 C 
ATOM     13  C   UNL     1      33.393 -23.943 -14.945  0.00  0.00    +0.007 C 
ATOM     14  C   UNL     1      31.466 -23.305 -16.255  0.00  0.00    +0.007 C 
BRANCH  12  18
ATOM     15  F   UNL     1      31.241 -23.130 -12.881  0.00  0.00    -0.166 F 
ATOM     16  F   UNL     1      29.799 -24.064 -14.207  0.00  0.00    -0.166 F 
ATOM     17  F   UNL     1      31.387 -25.255 -13.318  0.00  0.00    -0.166 F 
ATOM     18  C   UNL     1      31.128 -24.043 -13.891  0.00  0.00    +0.419 C 
ENDBRANCH  12  18
ENDBRANCH   8   9
ENDBRANCH   1   8
BRANCH   1  19
ATOM     19  C   UNL     1      36.674 -21.954 -18.189  0.00  0.00    +0.025 C 
BRANCH  19  20
ATOM     20  C   UNL     1      37.224 -21.732 -16.781  0.00  0.00    -0.078 C 
BRANCH  20  21
ATOM     21  N   UNL     1      37.793 -22.971 -16.261  0.00  0.00    +0.382 N 
ATOM     22  C   UNL     1      37.492 -23.126 -14.845  0.00  0.00    -0.106 C 
ATOM     23  H   UNL     1      38.805 -22.953 -16.387  0.00  0.00    -0.085 HD
ATOM     24  H   UNL     1      37.385 -23.755 -16.769  0.00  0.00    -0.085 HD
ENDBRANCH  20  21
ENDBRANCH  19  20
ENDBRANCH   1  19
TORSDOF 7
ENDMDL
MODEL 5
REMARK VINA RESULT:      -8.5      8.193     11.150
REMARK  Name = 1548968
REMARK  7 active torsions:
REMARK  status: ('A' for Active; 'I' for Inactive)
REMARK    1  A    between atoms: C_1  and  C_2
REMARK    2  A    between atoms: C_1  and  O_8
REMARK    3  A    between atoms: C_1  and  C_19
REMARK    4  A    between atoms: O_8  and  C_9
REMARK    5  A    between atoms: C_12  and  C_18
REMARK    6  A    between atoms: C_19  and  C_20
REMARK    7  A    between atoms: C_20  and  N_21
REMARK                            x       y       z     vdW  Elec       q    Type
REMARK                         _______ _______ _______ _____ _____    ______ ____
ROOT
ATOM      1  C   UNL     1      33.796 -23.180 -17.404  0.00  0.00    +0.186 C 
ENDROOT
BRANCH   1   2
ATOM      2  C   UNL     1      34.073 -22.194 -18.514  0.00  0.00    +0.017 C 
ATOM      3  C   UNL     1      33.015 -21.517 -19.099  0.00  0.00    -0.001 C 
ATOM      4  C   UNL     1      35.378 -21.986 -18.926  0.00  0.00    -0.001 C 
ATOM      5  C   UNL     1      33.269 -20.606 -20.124  0.00  0.00    -0.000 C 
ATOM      6  C   UNL     1      35.634 -21.075 -19.952  0.00  0.00    -0.000 C 
ATOM      7  C   UNL     1      34.579 -20.385 -20.550  0.00  0.00    -0.000 C 
ENDBRANCH   1   2
BRANCH   1   8
ATOM      8  O   UNL     1      34.397 -22.678 -16.209  0.00  0.00    -0.475 OA
BRANCH   8   9
ATOM      9  C   UNL     1      35.539 -23.302 -15.790  0.00  0.00    +0.139 C 
ATOM     10  C   UNL     1      35.469 -24.587 -15.260  0.00  0.00    +0.037 C 
ATOM     11  C   UNL     1      36.764 -22.649 -15.898  0.00  0.00    +0.037 C 
ATOM     12  C   UNL     1      37.864 -24.574 -14.938  0.00  0.00    +0.072 C 
ATOM     13  C   UNL     1      36.635 -25.224 -14.832  0.00  0.00    +0.007 C 
ATOM     14  C   UNL     1      37.928 -23.287 -15.471  0.00  0.00    +0.007 C 
BRANCH  12  18
ATOM     15  F   UNL     1      40.197 -24.988 -15.265  0.00  0.00    -0.166 F 
ATOM     16  F   UNL     1      39.489 -24.914 -13.215  0.00  0.00    -0.166 F 
ATOM     17  F   UNL     1      38.991 -26.616 -14.474  0.00  0.00    -0.166 F 
ATOM     18  C   UNL     1      39.109 -25.256 -14.482  0.00  0.00    +0.419 C 
ENDBRANCH  12  18
ENDBRANCH   8   9
ENDBRANCH   1   8
BRANCH   1  19
ATOM     19  C   UNL     1      32.301 -23.426 -17.144  0.00  0.00    +0.025 C 
BRANCH  19  20
ATOM     20  C   UNL     1      31.874 -23.061 -15.722  0.00  0.00    -0.078 C 
BRANCH  20  21
ATOM     21  N   UNL     1      32.023 -24.215 -14.841  0.00  0.00    +0.382 N 
ATOM     22  C   UNL     1      30.724 -24.781 -14.504  0.00  0.00    -0.106 C 
ATOM     23  H   UNL     1      32.492 -23.923 -13.983  0.00  0.00    -0.085 HD
ATOM     24  H   UNL     1      32.572 -24.925 -15.323  0.00  0.00    -0.085 HD
ENDBRANCH  20  21
ENDBRANCH  19  20
ENDBRANCH   1  19
TORSDOF 7
ENDMDL
MODEL 6
REMARK VINA RESULT:      -8.5      8.220     11.207
REMARK  Name = 1548968
REMARK  7 active torsions:
REMARK  status: ('A' for Active; 'I' for Inactive)
REMARK    1  A    between atoms: C_1  and  C_2
REMARK    2  A    between atoms: C_1  and  O_8
REMARK    3  A    between atoms: C_1  and  C_19
REMARK    4  A    between atoms: O_8  and  C_9
REMARK    5  A    between atoms: C_12  and  C_18
REMARK    6  A    between atoms: C_19  and  C_20
REMARK    7  A    between atoms: C_20  and  N_21
REMARK                            x       y       z     vdW  Elec       q    Type
REMARK                         _______ _______ _______ _____ _____    ______ ____
ROOT
ATOM      1  C   UNL     1      33.791 -23.197 -17.344  0.00  0.00    +0.186 C 
ENDROOT
BRANCH   1   2
ATOM      2  C   UNL     1      34.061 -22.216 -18.460  0.00  0.00    +0.017 C 
ATOM      3  C   UNL     1      35.368 -21.978 -18.852  0.00  0.00    -0.001 C 
ATOM      4  C   UNL     1      32.996 -21.574 -19.071  0.00  0.00    -0.001 C 
ATOM      5  C   UNL     1      35.618 -21.073 -19.884  0.00  0.00    -0.000 C 
ATOM      6  C   UNL     1      33.246 -20.668 -20.103  0.00  0.00    -0.000 C 
ATOM      7  C   UNL     1      34.557 -20.418 -20.508  0.00  0.00    -0.000 C 
ENDBRANCH   1   2
BRANCH   1   8
ATOM      8  O   UNL     1      34.409 -22.696 -16.157  0.00  0.00    -0.475 OA
BRANCH   8   9
ATOM      9  C   UNL     1      35.552 -23.327 -15.750  0.00  0.00    +0.139 C 
ATOM     10  C   UNL     1      36.775 -22.670 -15.844  0.00  0.00    +0.037 C 
ATOM     11  C   UNL     1      35.483 -24.622 -15.244  0.00  0.00    +0.037 C 
ATOM     12  C   UNL     1      37.878 -24.612 -14.921  0.00  0.00    +0.072 C 
ATOM     13  C   UNL     1      37.941 -23.314 -15.429  0.00  0.00    +0.007 C 
ATOM     14  C   UNL     1      36.649 -25.265 -14.828  0.00  0.00    +0.007 C 
BRANCH  12  18
ATOM     15  F   UNL     1      39.506 -24.971 -13.206  0.00  0.00    -0.166 F 
ATOM     16  F   UNL     1      39.027 -26.662 -14.478  0.00  0.00    -0.166 F 
ATOM     17  F   UNL     1      40.197 -25.007 -15.267  0.00  0.00    -0.166 F 
ATOM     18  C   UNL     1      39.123 -25.299 -14.476  0.00  0.00    +0.419 C 
ENDBRANCH  12  18
ENDBRANCH   8   9
ENDBRANCH   1   8
BRANCH   1  19
ATOM     19  C   UNL     1      32.297 -23.431 -17.066  0.00  0.00    +0.025 C 
BRANCH  19  20
ATOM     20  C   UNL     1      31.893 -23.075 -15.636  0.00  0.00    -0.078 C 
BRANCH  20  21
ATOM     21  N   UNL     1      32.050 -24.234 -14.764  0.00  0.00    +0.382 N 
ATOM     22  C   UNL     1      30.754 -24.727 -14.318  0.00  0.00    -0.106 C 
ATOM     23  H   UNL     1      32.604 -23.969 -13.950  0.00  0.00    -0.085 HD
ATOM     24  H   UNL     1      32.517 -24.975 -15.287  0.00  0.00    -0.085 HD
ENDBRANCH  20  21
ENDBRANCH  19  20
ENDBRANCH   1  19
TORSDOF 7
ENDMDL
MODEL 7
REMARK VINA RESULT:      -8.4      4.325      7.125
REMARK  Name = 1548968
REMARK  7 active torsions:
REMARK  status: ('A' for Active; 'I' for Inactive)
REMARK    1  A    between atoms: C_1  and  C_2
REMARK    2  A    between atoms: C_1  and  O_8
REMARK    3  A    between atoms: C_1  and  C_19
REMARK    4  A    between atoms: O_8  and  C_9
REMARK    5  A    between atoms: C_12  and  C_18
REMARK    6  A    between atoms: C_19  and  C_20
REMARK    7  A    between atoms: C_20  and  N_21
REMARK                            x       y       z     vdW  Elec       q    Type
REMARK                         _______ _______ _______ _____ _____    ______ ____
ROOT
ATOM      1  C   UNL     1      34.228 -16.103 -22.584  0.00  0.00    +0.186 C 
ENDROOT
BRANCH   1   2
ATOM      2  C   UNL     1      33.826 -15.468 -23.894  0.00  0.00    +0.017 C 
ATOM      3  C   UNL     1      33.476 -14.127 -23.919  0.00  0.00    -0.001 C 
ATOM      4  C   UNL     1      33.816 -16.238 -25.045  0.00  0.00    -0.001 C 
ATOM      5  C   UNL     1      33.106 -13.541 -25.129  0.00  0.00    -0.000 C 
ATOM      6  C   UNL     1      33.445 -15.651 -26.255  0.00  0.00    -0.000 C 
ATOM      7  C   UNL     1      33.090 -14.303 -26.297  0.00  0.00    -0.000 C 
ENDBRANCH   1   2
BRANCH   1   8
ATOM      8  O   UNL     1      35.130 -17.173 -22.871  0.00  0.00    -0.475 OA
BRANCH   8   9
ATOM      9  C   UNL     1      35.103 -18.241 -22.017  0.00  0.00    +0.139 C 
ATOM     10  C   UNL     1      33.888 -18.840 -21.698  0.00  0.00    +0.037 C 
ATOM     11  C   UNL     1      36.291 -18.722 -21.473  0.00  0.00    +0.037 C 
ATOM     12  C   UNL     1      35.048 -20.414 -20.278  0.00  0.00    +0.072 C 
ATOM     13  C   UNL     1      33.861 -19.929 -20.826  0.00  0.00    +0.007 C 
ATOM     14  C   UNL     1      36.263 -19.811 -20.603  0.00  0.00    +0.007 C 
BRANCH  12  18
ATOM     15  F   UNL     1      33.822 -21.739 -18.709  0.00  0.00    -0.166 F 
ATOM     16  F   UNL     1      35.259 -22.776 -19.961  0.00  0.00    -0.166 F 
ATOM     17  F   UNL     1      35.952 -21.483 -18.356  0.00  0.00    -0.166 F 
ATOM     18  C   UNL     1      35.019 -21.579 -19.348  0.00  0.00    +0.419 C 
ENDBRANCH  12  18
ENDBRANCH   8   9
ENDBRANCH   1   8
BRANCH   1  19
ATOM     19  C   UNL     1      34.905 -15.132 -21.601  0.00  0.00    +0.025 C 
BRANCH  19  20
ATOM     20  C   UNL     1      34.177 -15.036 -20.260  0.00  0.00    -0.078 C 
BRANCH  20  21
ATOM     21  N   UNL     1      32.738 -14.919 -20.477  0.00  0.00    +0.382 N 
ATOM     22  C   UNL     1      32.345 -13.523 -20.603  0.00  0.00    -0.106 C 
ATOM     23  H   UNL     1      32.247 -15.334 -19.685  0.00  0.00    -0.085 HD
ATOM     24  H   UNL     1      32.498 -15.405 -21.340  0.00  0.00    -0.085 HD
ENDBRANCH  20  21
ENDBRANCH  19  20
ENDBRANCH   1  19
TORSDOF 7
ENDMDL
MODEL 8
REMARK VINA RESULT:      -8.3      3.895      5.998
REMARK  Name = 1548968
REMARK  7 active torsions:
REMARK  status: ('A' for Active; 'I' for Inactive)
REMARK    1  A    between atoms: C_1  and  C_2
REMARK    2  A    between atoms: C_1  and  O_8
REMARK    3  A    between atoms: C_1  and  C_19
REMARK    4  A    between atoms: O_8  and  C_9
REMARK    5  A    between atoms: C_12  and  C_18
REMARK    6  A    between atoms: C_19  and  C_20
REMARK    7  A    between atoms: C_20  and  N_21
REMARK                            x       y       z     vdW  Elec       q    Type
REMARK                         _______ _______ _______ _____ _____    ______ ____
ROOT
ATOM      1  C   UNL     1      33.480 -13.623 -22.940  0.00  0.00    +0.186 C 
ENDROOT
BRANCH   1   2
ATOM      2  C   UNL     1      34.028 -14.956 -23.393  0.00  0.00    +0.017 C 
ATOM      3  C   UNL     1      33.828 -15.361 -24.703  0.00  0.00    -0.001 C 
ATOM      4  C   UNL     1      34.722 -15.746 -22.492  0.00  0.00    -0.001 C 
ATOM      5  C   UNL     1      34.334 -16.591 -25.122  0.00  0.00    -0.000 C 
ATOM      6  C   UNL     1      35.228 -16.977 -22.911  0.00  0.00    -0.000 C 
ATOM      7  C   UNL     1      35.034 -17.399 -24.226  0.00  0.00    -0.000 C 
ENDBRANCH   1   2
BRANCH   1   8
ATOM      8  O   UNL     1      33.177 -12.852 -24.104  0.00  0.00    -0.475 OA
BRANCH   8   9
ATOM      9  C   UNL     1      33.494 -11.523 -24.056  0.00  0.00    +0.139 C 
ATOM     10  C   UNL     1      32.681 -10.644 -23.347  0.00  0.00    +0.037 C 
ATOM     11  C   UNL     1      34.629 -11.058 -24.715  0.00  0.00    +0.037 C 
ATOM     12  C   UNL     1      34.140  -8.817 -23.958  0.00  0.00    +0.072 C 
ATOM     13  C   UNL     1      33.004  -9.288 -23.299  0.00  0.00    +0.007 C 
ATOM     14  C   UNL     1      34.952  -9.703 -24.666  0.00  0.00    +0.007 C 
BRANCH  12  18
ATOM     15  F   UNL     1      35.650  -7.108 -23.238  0.00  0.00    -0.166 F 
ATOM     16  F   UNL     1      34.645  -6.797 -25.135  0.00  0.00    -0.166 F 
ATOM     17  F   UNL     1      33.531  -6.622 -23.276  0.00  0.00    -0.166 F 
ATOM     18  C   UNL     1      34.486  -7.368 -23.904  0.00  0.00    +0.419 C 
ENDBRANCH  12  18
ENDBRANCH   8   9
ENDBRANCH   1   8
BRANCH   1  19
ATOM     19  C   UNL     1      32.216 -13.730 -22.071  0.00  0.00    +0.025 C 
BRANCH  19  20
ATOM     20  C   UNL     1      32.361 -13.034 -20.718  0.00  0.00    -0.078 C 
BRANCH  20  21
ATOM     21  N   UNL     1      31.387 -11.954 -20.601  0.00  0.00    +0.382 N 
ATOM     22  C   UNL     1      31.599 -11.194 -19.377  0.00  0.00    -0.106 C 
ATOM     23  H   UNL     1      30.447 -12.351 -20.589  0.00  0.00    -0.085 HD
ATOM     24  H   UNL     1      31.498 -11.326 -21.397  0.00  0.00    -0.085 HD
ENDBRANCH  20  21
ENDBRANCH  19  20
ENDBRANCH   1  19
TORSDOF 7
ENDMDL
MODEL 9
REMARK VINA RESULT:      -8.3      4.150      7.276
REMARK  Name = 1548968
REMARK  7 active torsions:
REMARK  status: ('A' for Active; 'I' for Inactive)
REMARK    1  A    between atoms: C_1  and  C_2
REMARK    2  A    between atoms: C_1  and  O_8
REMARK    3  A    between atoms: C_1  and  C_19
REMARK    4  A    between atoms: O_8  and  C_9
REMARK    5  A    between atoms: C_12  and  C_18
REMARK    6  A    between atoms: C_19  and  C_20
REMARK    7  A    between atoms: C_20  and  N_21
REMARK                            x       y       z     vdW  Elec       q    Type
REMARK                         _______ _______ _______ _____ _____    ______ ____
ROOT
ATOM      1  C   UNL     1      32.952 -13.612 -23.129  0.00  0.00    +0.186 C 
ENDROOT
BRANCH   1   2
ATOM      2  C   UNL     1      33.159 -13.374 -24.606  0.00  0.00    +0.017 C 
ATOM      3  C   UNL     1      32.777 -14.351 -25.511  0.00  0.00    -0.001 C 
ATOM      4  C   UNL     1      33.725 -12.182 -25.028  0.00  0.00    -0.001 C 
ATOM      5  C   UNL     1      32.966 -14.131 -26.875  0.00  0.00    -0.000 C 
ATOM      6  C   UNL     1      33.915 -11.962 -26.393  0.00  0.00    -0.000 C 
ATOM      7  C   UNL     1      33.536 -12.937 -27.316  0.00  0.00    -0.000 C 
ENDBRANCH   1   2
BRANCH   1   8
ATOM      8  O   UNL     1      34.233 -13.835 -22.535  0.00  0.00    -0.475 OA
BRANCH   8   9
ATOM      9  C   UNL     1      34.553 -15.132 -22.242  0.00  0.00    +0.139 C 
ATOM     10  C   UNL     1      34.487 -15.579 -20.926  0.00  0.00    +0.037 C 
ATOM     11  C   UNL     1      34.940 -15.996 -23.262  0.00  0.00    +0.037 C 
ATOM     12  C   UNL     1      35.203 -17.772 -21.645  0.00  0.00    +0.072 C 
ATOM     13  C   UNL     1      34.814 -16.902 -20.627  0.00  0.00    +0.007 C 
ATOM     14  C   UNL     1      35.266 -17.318 -22.963  0.00  0.00    +0.007 C 
BRANCH  12  18
ATOM     15  F   UNL     1      34.822 -19.709 -20.295  0.00  0.00    -0.166 F 
ATOM     16  F   UNL     1      35.360 -20.046 -22.370  0.00  0.00    -0.166 F 
ATOM     17  F   UNL     1      36.858 -19.336 -20.962  0.00  0.00    -0.166 F 
ATOM     18  C   UNL     1      35.551 -19.186 -21.326  0.00  0.00    +0.419 C 
ENDBRANCH  12  18
ENDBRANCH   8   9
ENDBRANCH   1   8
BRANCH   1  19
ATOM     19  C   UNL     1      32.261 -12.448 -22.399  0.00  0.00    +0.025 C 
BRANCH  19  20
ATOM     20  C   UNL     1      31.933 -12.769 -20.941  0.00  0.00    -0.078 C 
BRANCH  20  21
ATOM     21  N   UNL     1      31.559 -11.551 -20.230  0.00  0.00    +0.382 N 
ATOM     22  C   UNL     1      31.545 -10.407 -21.131  0.00  0.00    -0.106 C 
ATOM     23  H   UNL     1      32.232 -11.380 -19.483  0.00  0.00    -0.085 HD
ATOM     24  H   UNL     1      30.622 -11.673 -19.845  0.00  0.00    -0.085 HD
ENDBRANCH  20  21
ENDBRANCH  19  20
ENDBRANCH   1  19
TORSDOF 7
ENDMDL
