MODEL 1
REMARK VINA RESULT:      -9.9      0.000      0.000
REMARK  Name = 114840
REMARK  5 active torsions:
REMARK  status: ('A' for Active; 'I' for Inactive)
REMARK    1  A    between atoms: C_2  and  C_17
REMARK    2  A    between atoms: C_9  and  O_13
REMARK    3  A    between atoms: C_10  and  O_15
REMARK    4  A    between atoms: C_17  and  C_18
REMARK    5  A    between atoms: C_23  and  O_24
REMARK                            x       y       z     vdW  Elec       q    Type
REMARK                         _______ _______ _______ _____ _____    ______ ____
ROOT
ATOM      1  N   UNL     1      35.293 -19.571 -23.734  0.00  0.00    +0.388 N 
ATOM      2  C   UNL     1      35.024 -18.915 -22.440  0.00  0.00    -0.034 C 
ATOM      3  C   UNL     1      34.834 -17.413 -22.545  0.00  0.00    -0.043 C 
ATOM      4  C   UNL     1      34.575 -16.804 -23.787  0.00  0.00    -0.027 C 
ATOM      5  C   UNL     1      34.556 -17.624 -25.051  0.00  0.00    +0.003 C 
ATOM      6  C   UNL     1      34.374 -19.116 -24.778  0.00  0.00    -0.076 C 
ATOM      7  C   UNL     1      34.897 -16.614 -21.393  0.00  0.00    +0.033 C 
ATOM      8  C   UNL     1      34.400 -15.416 -23.858  0.00  0.00    +0.035 C 
ATOM      9  C   UNL     1      34.710 -15.235 -21.472  0.00  0.00    +0.167 C 
ATOM     10  C   UNL     1      34.461 -14.635 -22.704  0.00  0.00    +0.167 C 
ATOM     11  H   UNL     1      35.188 -20.580 -23.619  0.00  0.00    -0.084 HD
ATOM     12  H   UNL     1      36.242 -19.331 -24.020  0.00  0.00    -0.084 HD
ENDROOT
BRANCH   9  13
ATOM     13  O   UNL     1      34.776 -14.483 -20.339  0.00  0.00    -0.503 OA
ATOM     14  H   UNL     1      34.460 -13.600 -20.343  0.00  0.00    +0.292 HD
ENDBRANCH   9  13
BRANCH  10  15
ATOM     15  O   UNL     1      34.284 -13.288 -22.796  0.00  0.00    -0.503 OA
ATOM     16  H   UNL     1      33.804 -12.831 -22.134  0.00  0.00    +0.292 HD
ENDBRANCH  10  15
BRANCH   2  17
ATOM     17  C   UNL     1      33.835 -19.586 -21.741  0.00  0.00    +0.009 C 
BRANCH  17  18
ATOM     18  C   UNL     1      34.290 -20.451 -20.601  0.00  0.00    -0.024 C 
ATOM     19  C   UNL     1      33.354 -21.175 -19.871  0.00  0.00    -0.001 C 
ATOM     20  C   UNL     1      35.642 -20.520 -20.287  0.00  0.00    -0.001 C 
ATOM     21  C   UNL     1      33.776 -21.980 -18.813  0.00  0.00    +0.036 C 
ATOM     22  C   UNL     1      36.065 -21.324 -19.229  0.00  0.00    +0.036 C 
ATOM     23  C   UNL     1      35.131 -22.053 -18.492  0.00  0.00    +0.134 C 
BRANCH  23  24
ATOM     24  O   UNL     1      35.544 -22.837 -17.458  0.00  0.00    -0.506 OA
ATOM     25  H   UNL     1      35.788 -23.729 -17.614  0.00  0.00    +0.292 HD
ENDBRANCH  23  24
ENDBRANCH  17  18
ENDBRANCH   2  17
TORSDOF 5
ENDMDL
MODEL 2
REMARK VINA RESULT:      -9.1      1.385      2.261
REMARK  Name = 114840
REMARK  5 active torsions:
REMARK  status: ('A' for Active; 'I' for Inactive)
REMARK    1  A    between atoms: C_2  and  C_17
REMARK    2  A    between atoms: C_9  and  O_13
REMARK    3  A    between atoms: C_10  and  O_15
REMARK    4  A    between atoms: C_17  and  C_18
REMARK    5  A    between atoms: C_23  and  O_24
REMARK                            x       y       z     vdW  Elec       q    Type
REMARK                         _______ _______ _______ _____ _____    ______ ____
ROOT
ATOM      1  N   UNL     1      35.584 -18.582 -23.257  0.00  0.00    +0.388 N 
ATOM      2  C   UNL     1      35.209 -17.322 -22.587  0.00  0.00    -0.034 C 
ATOM      3  C   UNL     1      34.650 -16.271 -23.528  0.00  0.00    -0.043 C 
ATOM      4  C   UNL     1      34.202 -16.622 -24.815  0.00  0.00    -0.027 C 
ATOM      5  C   UNL     1      34.338 -18.038 -25.312  0.00  0.00    +0.003 C 
ATOM      6  C   UNL     1      34.541 -19.039 -24.178  0.00  0.00    -0.076 C 
ATOM      7  C   UNL     1      34.557 -14.934 -23.113  0.00  0.00    +0.033 C 
ATOM      8  C   UNL     1      33.686 -15.635 -25.665  0.00  0.00    +0.035 C 
ATOM      9  C   UNL     1      34.032 -13.961 -23.962  0.00  0.00    +0.167 C 
ATOM     10  C   UNL     1      33.596 -14.310 -25.238  0.00  0.00    +0.167 C 
ATOM     11  H   UNL     1      35.735 -19.300 -22.548  0.00  0.00    -0.084 HD
ATOM     12  H   UNL     1      36.432 -18.414 -23.797  0.00  0.00    -0.084 HD
ENDROOT
BRANCH   9  13
ATOM     13  O   UNL     1      33.953 -12.670 -23.536  0.00  0.00    -0.503 OA
ATOM     14  H   UNL     1      34.477 -12.382 -22.814  0.00  0.00    +0.292 HD
ENDBRANCH   9  13
BRANCH  10  15
ATOM     15  O   UNL     1      33.089 -13.368 -26.080  0.00  0.00    -0.503 OA
ATOM     16  H   UNL     1      33.543 -12.558 -26.206  0.00  0.00    +0.292 HD
ENDBRANCH  10  15
BRANCH   2  17
ATOM     17  C   UNL     1      34.251 -17.603 -21.423  0.00  0.00    +0.009 C 
BRANCH  17  18
ATOM     18  C   UNL     1      34.462 -18.980 -20.862  0.00  0.00    -0.024 C 
ATOM     19  C   UNL     1      35.752 -19.425 -20.598  0.00  0.00    -0.001 C 
ATOM     20  C   UNL     1      33.364 -19.795 -20.612  0.00  0.00    -0.001 C 
ATOM     21  C   UNL     1      35.947 -20.704 -20.076  0.00  0.00    +0.036 C 
ATOM     22  C   UNL     1      33.560 -21.074 -20.091  0.00  0.00    +0.036 C 
ATOM     23  C   UNL     1      34.851 -21.528 -19.823  0.00  0.00    +0.134 C 
BRANCH  23  24
ATOM     24  O   UNL     1      35.042 -22.777 -19.315  0.00  0.00    -0.506 OA
ATOM     25  H   UNL     1      35.805 -23.268 -19.552  0.00  0.00    +0.292 HD
ENDBRANCH  23  24
ENDBRANCH  17  18
ENDBRANCH   2  17
TORSDOF 5
ENDMDL
MODEL 3
REMARK VINA RESULT:      -9.1      1.180      1.636
REMARK  Name = 114840
REMARK  5 active torsions:
REMARK  status: ('A' for Active; 'I' for Inactive)
REMARK    1  A    between atoms: C_2  and  C_17
REMARK    2  A    between atoms: C_9  and  O_13
REMARK    3  A    between atoms: C_10  and  O_15
REMARK    4  A    between atoms: C_17  and  C_18
REMARK    5  A    between atoms: C_23  and  O_24
REMARK                            x       y       z     vdW  Elec       q    Type
REMARK                         _______ _______ _______ _____ _____    ______ ____
ROOT
ATOM      1  N   UNL     1      35.383 -18.417 -23.232  0.00  0.00    +0.388 N 
ATOM      2  C   UNL     1      34.594 -18.021 -22.049  0.00  0.00    -0.034 C 
ATOM      3  C   UNL     1      34.007 -16.625 -22.145  0.00  0.00    -0.043 C 
ATOM      4  C   UNL     1      33.925 -15.962 -23.383  0.00  0.00    -0.027 C 
ATOM      5  C   UNL     1      34.489 -16.595 -24.629  0.00  0.00    +0.003 C 
ATOM      6  C   UNL     1      34.687 -18.102 -24.480  0.00  0.00    -0.076 C 
ATOM      7  C   UNL     1      33.520 -15.987 -20.995  0.00  0.00    +0.033 C 
ATOM      8  C   UNL     1      33.375 -14.675 -23.448  0.00  0.00    +0.035 C 
ATOM      9  C   UNL     1      32.964 -14.711 -21.071  0.00  0.00    +0.167 C 
ATOM     10  C   UNL     1      32.891 -14.055 -22.297  0.00  0.00    +0.167 C 
ATOM     11  H   UNL     1      35.553 -19.423 -23.193  0.00  0.00    -0.084 HD
ATOM     12  H   UNL     1      36.260 -17.896 -23.217  0.00  0.00    -0.084 HD
ENDROOT
BRANCH   9  13
ATOM     13  O   UNL     1      32.498 -14.113 -19.939  0.00  0.00    -0.503 OA
ATOM     14  H   UNL     1      31.887 -14.563 -19.389  0.00  0.00    +0.292 HD
ENDBRANCH   9  13
BRANCH  10  15
ATOM     15  O   UNL     1      32.358 -12.804 -22.383  0.00  0.00    -0.503 OA
ATOM     16  H   UNL     1      31.837 -12.567 -23.125  0.00  0.00    +0.292 HD
ENDBRANCH  10  15
BRANCH   2  17
ATOM     17  C   UNL     1      33.514 -19.069 -21.756  0.00  0.00    +0.009 C 
BRANCH  17  18
ATOM     18  C   UNL     1      33.982 -20.066 -20.736  0.00  0.00    -0.024 C 
ATOM     19  C   UNL     1      35.343 -20.297 -20.573  0.00  0.00    -0.001 C 
ATOM     20  C   UNL     1      33.049 -20.750 -19.965  0.00  0.00    -0.001 C 
ATOM     21  C   UNL     1      35.778 -21.224 -19.625  0.00  0.00    +0.036 C 
ATOM     22  C   UNL     1      33.483 -21.677 -19.018  0.00  0.00    +0.036 C 
ATOM     23  C   UNL     1      34.848 -21.914 -18.849  0.00  0.00    +0.134 C 
BRANCH  23  24
ATOM     24  O   UNL     1      35.271 -22.819 -17.924  0.00  0.00    -0.506 OA
ATOM     25  H   UNL     1      34.668 -23.164 -17.295  0.00  0.00    +0.292 HD
ENDBRANCH  23  24
ENDBRANCH  17  18
ENDBRANCH   2  17
TORSDOF 5
ENDMDL
MODEL 4
REMARK VINA RESULT:      -8.9      3.767      8.072
REMARK  Name = 114840
REMARK  5 active torsions:
REMARK  status: ('A' for Active; 'I' for Inactive)
REMARK    1  A    between atoms: C_2  and  C_17
REMARK    2  A    between atoms: C_9  and  O_13
REMARK    3  A    between atoms: C_10  and  O_15
REMARK    4  A    between atoms: C_17  and  C_18
REMARK    5  A    between atoms: C_23  and  O_24
REMARK                            x       y       z     vdW  Elec       q    Type
REMARK                         _______ _______ _______ _____ _____    ______ ____
ROOT
ATOM      1  N   UNL     1      32.471 -14.162 -25.474  0.00  0.00    +0.388 N 
ATOM      2  C   UNL     1      33.013 -13.732 -24.171  0.00  0.00    -0.034 C 
ATOM      3  C   UNL     1      33.722 -14.837 -23.410  0.00  0.00    -0.043 C 
ATOM      4  C   UNL     1      34.127 -16.017 -24.062  0.00  0.00    -0.027 C 
ATOM      5  C   UNL     1      33.797 -16.238 -25.516  0.00  0.00    +0.003 C 
ATOM      6  C   UNL     1      33.446 -14.940 -26.240  0.00  0.00    -0.076 C 
ATOM      7  C   UNL     1      33.999 -14.683 -22.043  0.00  0.00    +0.033 C 
ATOM      8  C   UNL     1      34.783 -17.021 -23.339  0.00  0.00    +0.035 C 
ATOM      9  C   UNL     1      34.662 -15.684 -21.335  0.00  0.00    +0.167 C 
ATOM     10  C   UNL     1      35.055 -16.852 -21.982  0.00  0.00    +0.167 C 
ATOM     11  H   UNL     1      32.214 -13.334 -26.013  0.00  0.00    -0.084 HD
ATOM     12  H   UNL     1      31.659 -14.754 -25.301  0.00  0.00    -0.084 HD
ENDROOT
BRANCH   9  13
ATOM     13  O   UNL     1      34.919 -15.510 -20.009  0.00  0.00    -0.503 OA
ATOM     14  H   UNL     1      34.946 -14.646 -19.646  0.00  0.00    +0.292 HD
ENDBRANCH   9  13
BRANCH  10  15
ATOM     15  O   UNL     1      35.697 -17.841 -21.300  0.00  0.00    -0.503 OA
ATOM     16  H   UNL     1      36.633 -17.879 -21.298  0.00  0.00    +0.292 HD
ENDBRANCH  10  15
BRANCH   2  17
ATOM     17  C   UNL     1      33.913 -12.503 -24.349  0.00  0.00    +0.009 C 
BRANCH  17  18
ATOM     18  C   UNL     1      33.334 -11.299 -23.664  0.00  0.00    -0.024 C 
ATOM     19  C   UNL     1      32.285 -11.456 -22.766  0.00  0.00    -0.001 C 
ATOM     20  C   UNL     1      33.855 -10.038 -23.935  0.00  0.00    -0.001 C 
ATOM     21  C   UNL     1      31.748 -10.337 -22.129  0.00  0.00    +0.036 C 
ATOM     22  C   UNL     1      33.318  -8.919 -23.299  0.00  0.00    +0.036 C 
ATOM     23  C   UNL     1      32.264  -9.069 -22.396  0.00  0.00    +0.134 C 
BRANCH  23  24
ATOM     24  O   UNL     1      31.740  -7.976 -21.776  0.00  0.00    -0.506 OA
ATOM     25  H   UNL     1      30.878  -7.680 -21.998  0.00  0.00    +0.292 HD
ENDBRANCH  23  24
ENDBRANCH  17  18
ENDBRANCH   2  17
TORSDOF 5
ENDMDL
MODEL 5
REMARK VINA RESULT:      -8.9      8.485     10.510
REMARK  Name = 114840
REMARK  5 active torsions:
REMARK  status: ('A' for Active; 'I' for Inactive)
REMARK    1  A    between atoms: C_2  and  C_17
REMARK    2  A    between atoms: C_9  and  O_13
REMARK    3  A    between atoms: C_10  and  O_15
REMARK    4  A    between atoms: C_17  and  C_18
REMARK    5  A    between atoms: C_23  and  O_24
REMARK                            x       y       z     vdW  Elec       q    Type
REMARK                         _______ _______ _______ _____ _____    ______ ____
ROOT
ATOM      1  N   UNL     1      33.787 -24.299 -15.760  0.00  0.00    +0.388 N 
ATOM      2  C   UNL     1      33.622 -24.284 -14.294  0.00  0.00    -0.034 C 
ATOM      3  C   UNL     1      34.891 -23.934 -13.539  0.00  0.00    -0.043 C 
ATOM      4  C   UNL     1      35.978 -23.331 -14.198  0.00  0.00    -0.027 C 
ATOM      5  C   UNL     1      35.933 -23.089 -15.684  0.00  0.00    +0.003 C 
ATOM      6  C   UNL     1      34.510 -23.119 -16.239  0.00  0.00    -0.076 C 
ATOM      7  C   UNL     1      34.984 -24.194 -12.163  0.00  0.00    +0.033 C 
ATOM      8  C   UNL     1      37.138 -23.013 -13.479  0.00  0.00    +0.035 C 
ATOM      9  C   UNL     1      36.138 -23.864 -11.454  0.00  0.00    +0.167 C 
ATOM     10  C   UNL     1      37.215 -23.274 -12.111  0.00  0.00    +0.167 C 
ATOM     11  H   UNL     1      32.865 -24.319 -16.196  0.00  0.00    -0.084 HD
ATOM     12  H   UNL     1      34.330 -25.125 -16.010  0.00  0.00    -0.084 HD
ENDROOT
BRANCH   9  13
ATOM     13  O   UNL     1      36.203 -24.127 -10.120  0.00  0.00    -0.503 OA
ATOM     14  H   UNL     1      36.415 -24.989  -9.821  0.00  0.00    +0.292 HD
ENDBRANCH   9  13
BRANCH  10  15
ATOM     15  O   UNL     1      38.351 -22.954 -11.431  0.00  0.00    -0.503 OA
ATOM     16  H   UNL     1      39.014 -22.436 -11.844  0.00  0.00    +0.292 HD
ENDBRANCH  10  15
BRANCH   2  17
ATOM     17  C   UNL     1      32.459 -23.365 -13.900  0.00  0.00    +0.009 C 
BRANCH  17  18
ATOM     18  C   UNL     1      31.241 -23.635 -14.735  0.00  0.00    -0.024 C 
ATOM     19  C   UNL     1      30.533 -24.818 -14.556  0.00  0.00    -0.001 C 
ATOM     20  C   UNL     1      30.833 -22.699 -15.678  0.00  0.00    -0.001 C 
ATOM     21  C   UNL     1      29.401 -25.068 -15.332  0.00  0.00    +0.036 C 
ATOM     22  C   UNL     1      29.702 -22.950 -16.454  0.00  0.00    +0.036 C 
ATOM     23  C   UNL     1      28.986 -24.135 -16.281  0.00  0.00    +0.134 C 
BRANCH  23  24
ATOM     24  O   UNL     1      27.882 -24.379 -17.039  0.00  0.00    -0.506 OA
ATOM     25  H   UNL     1      27.649 -23.792 -17.731  0.00  0.00    +0.292 HD
ENDBRANCH  23  24
ENDBRANCH  17  18
ENDBRANCH   2  17
TORSDOF 5
ENDMDL
MODEL 6
REMARK VINA RESULT:      -8.8      4.669      9.770
REMARK  Name = 114840
REMARK  5 active torsions:
REMARK  status: ('A' for Active; 'I' for Inactive)
REMARK    1  A    between atoms: C_2  and  C_17
REMARK    2  A    between atoms: C_9  and  O_13
REMARK    3  A    between atoms: C_10  and  O_15
REMARK    4  A    between atoms: C_17  and  C_18
REMARK    5  A    between atoms: C_23  and  O_24
REMARK                            x       y       z     vdW  Elec       q    Type
REMARK                         _______ _______ _______ _____ _____    ______ ____
ROOT
ATOM      1  N   UNL     1      33.527 -22.675 -14.793  0.00  0.00    +0.388 N 
ATOM      2  C   UNL     1      34.722 -22.880 -15.634  0.00  0.00    -0.034 C 
ATOM      3  C   UNL     1      35.815 -23.686 -14.957  0.00  0.00    -0.043 C 
ATOM      4  C   UNL     1      35.540 -24.452 -13.809  0.00  0.00    -0.027 C 
ATOM      5  C   UNL     1      34.169 -24.428 -13.185  0.00  0.00    +0.003 C 
ATOM      6  C   UNL     1      33.098 -23.916 -14.145  0.00  0.00    -0.076 C 
ATOM      7  C   UNL     1      37.115 -23.688 -15.485  0.00  0.00    +0.033 C 
ATOM      8  C   UNL     1      36.565 -25.190 -13.204  0.00  0.00    +0.035 C 
ATOM      9  C   UNL     1      38.126 -24.435 -14.881  0.00  0.00    +0.167 C 
ATOM     10  C   UNL     1      37.852 -25.186 -13.742  0.00  0.00    +0.167 C 
ATOM     11  H   UNL     1      32.766 -22.329 -15.380  0.00  0.00    -0.084 HD
ATOM     12  H   UNL     1      33.764 -22.003 -14.064  0.00  0.00    -0.084 HD
ENDROOT
BRANCH   9  13
ATOM     13  O   UNL     1      39.380 -24.420 -15.413  0.00  0.00    -0.503 OA
ATOM     14  H   UNL     1      39.966 -23.717 -15.213  0.00  0.00    +0.292 HD
ENDBRANCH   9  13
BRANCH  10  15
ATOM     15  O   UNL     1      38.833 -25.914 -13.138  0.00  0.00    -0.503 OA
ATOM     16  H   UNL     1      39.582 -25.482 -12.777  0.00  0.00    +0.292 HD
ENDBRANCH  10  15
BRANCH   2  17
ATOM     17  C   UNL     1      34.324 -23.492 -16.983  0.00  0.00    +0.009 C 
BRANCH  17  18
ATOM     18  C   UNL     1      34.465 -22.497 -18.098  0.00  0.00    -0.024 C 
ATOM     19  C   UNL     1      35.724 -22.013 -18.433  0.00  0.00    -0.001 C 
ATOM     20  C   UNL     1      33.334 -22.070 -18.785  0.00  0.00    -0.001 C 
ATOM     21  C   UNL     1      35.855 -21.089 -19.470  0.00  0.00    +0.036 C 
ATOM     22  C   UNL     1      33.465 -21.145 -19.821  0.00  0.00    +0.036 C 
ATOM     23  C   UNL     1      34.726 -20.655 -20.162  0.00  0.00    +0.134 C 
BRANCH  23  24
ATOM     24  O   UNL     1      34.853 -19.751 -21.173  0.00  0.00    -0.506 OA
ATOM     25  H   UNL     1      34.223 -19.733 -21.867  0.00  0.00    +0.292 HD
ENDBRANCH  23  24
ENDBRANCH  17  18
ENDBRANCH   2  17
TORSDOF 5
ENDMDL
MODEL 7
REMARK VINA RESULT:      -8.8      4.194      7.870
REMARK  Name = 114840
REMARK  5 active torsions:
REMARK  status: ('A' for Active; 'I' for Inactive)
REMARK    1  A    between atoms: C_2  and  C_17
REMARK    2  A    between atoms: C_9  and  O_13
REMARK    3  A    between atoms: C_10  and  O_15
REMARK    4  A    between atoms: C_17  and  C_18
REMARK    5  A    between atoms: C_23  and  O_24
REMARK                            x       y       z     vdW  Elec       q    Type
REMARK                         _______ _______ _______ _____ _____    ______ ____
ROOT
ATOM      1  N   UNL     1      34.655 -14.533 -20.634  0.00  0.00    +0.388 N 
ATOM      2  C   UNL     1      33.952 -14.233 -21.896  0.00  0.00    -0.034 C 
ATOM      3  C   UNL     1      34.111 -15.308 -22.956  0.00  0.00    -0.043 C 
ATOM      4  C   UNL     1      34.564 -16.595 -22.613  0.00  0.00    -0.027 C 
ATOM      5  C   UNL     1      34.971 -16.911 -21.197  0.00  0.00    +0.003 C 
ATOM      6  C   UNL     1      34.414 -15.907 -20.190  0.00  0.00    -0.076 C 
ATOM      7  C   UNL     1      33.788 -15.030 -24.292  0.00  0.00    +0.033 C 
ATOM      8  C   UNL     1      34.699 -17.573 -23.608  0.00  0.00    +0.035 C 
ATOM      9  C   UNL     1      33.916 -16.013 -25.273  0.00  0.00    +0.167 C 
ATOM     10  C   UNL     1      34.371 -17.284 -24.932  0.00  0.00    +0.167 C 
ATOM     11  H   UNL     1      34.325 -13.891 -19.913  0.00  0.00    -0.084 HD
ATOM     12  H   UNL     1      35.656 -14.422 -20.795  0.00  0.00    -0.084 HD
ENDROOT
BRANCH   9  13
ATOM     13  O   UNL     1      33.596 -15.718 -26.563  0.00  0.00    -0.503 OA
ATOM     14  H   UNL     1      32.699 -15.604 -26.810  0.00  0.00    +0.292 HD
ENDBRANCH   9  13
BRANCH  10  15
ATOM     15  O   UNL     1      34.508 -18.250 -25.882  0.00  0.00    -0.503 OA
ATOM     16  H   UNL     1      33.797 -18.441 -26.463  0.00  0.00    +0.292 HD
ENDBRANCH  10  15
BRANCH   2  17
ATOM     17  C   UNL     1      32.475 -13.926 -21.622  0.00  0.00    +0.009 C 
BRANCH  17  18
ATOM     18  C   UNL     1      32.211 -12.448 -21.637  0.00  0.00    -0.024 C 
ATOM     19  C   UNL     1      32.529 -11.704 -22.767  0.00  0.00    -0.001 C 
ATOM     20  C   UNL     1      31.651 -11.839 -20.520  0.00  0.00    -0.001 C 
ATOM     21  C   UNL     1      32.284 -10.331 -22.781  0.00  0.00    +0.036 C 
ATOM     22  C   UNL     1      31.406 -10.466 -20.534  0.00  0.00    +0.036 C 
ATOM     23  C   UNL     1      31.723  -9.712 -21.664  0.00  0.00    +0.134 C 
BRANCH  23  24
ATOM     24  O   UNL     1      31.484  -8.372 -21.677  0.00  0.00    -0.506 OA
ATOM     25  H   UNL     1      31.944  -7.820 -22.280  0.00  0.00    +0.292 HD
ENDBRANCH  23  24
ENDBRANCH  17  18
ENDBRANCH   2  17
TORSDOF 5
ENDMDL
MODEL 8
REMARK VINA RESULT:      -8.7      8.122     10.313
REMARK  Name = 114840
REMARK  5 active torsions:
REMARK  status: ('A' for Active; 'I' for Inactive)
REMARK    1  A    between atoms: C_2  and  C_17
REMARK    2  A    between atoms: C_9  and  O_13
REMARK    3  A    between atoms: C_10  and  O_15
REMARK    4  A    between atoms: C_17  and  C_18
REMARK    5  A    between atoms: C_23  and  O_24
REMARK                            x       y       z     vdW  Elec       q    Type
REMARK                         _______ _______ _______ _____ _____    ______ ____
ROOT
ATOM      1  N   UNL     1      35.395 -22.622 -16.958  0.00  0.00    +0.388 N 
ATOM      2  C   UNL     1      35.031 -23.595 -15.911  0.00  0.00    -0.034 C 
ATOM      3  C   UNL     1      36.224 -24.285 -15.275  0.00  0.00    -0.043 C 
ATOM      4  C   UNL     1      37.522 -23.760 -15.423  0.00  0.00    -0.027 C 
ATOM      5  C   UNL     1      37.762 -22.544 -16.279  0.00  0.00    +0.003 C 
ATOM      6  C   UNL     1      36.486 -21.744 -16.530  0.00  0.00    -0.076 C 
ATOM      7  C   UNL     1      36.041 -25.449 -14.514  0.00  0.00    +0.033 C 
ATOM      8  C   UNL     1      38.608 -24.412 -14.824  0.00  0.00    +0.035 C 
ATOM      9  C   UNL     1      37.126 -26.084 -13.912  0.00  0.00    +0.167 C 
ATOM     10  C   UNL     1      38.409 -25.566 -14.066  0.00  0.00    +0.167 C 
ATOM     11  H   UNL     1      34.578 -22.050 -17.175  0.00  0.00    -0.084 HD
ATOM     12  H   UNL     1      35.709 -23.140 -17.778  0.00  0.00    -0.084 HD
ENDROOT
BRANCH   9  13
ATOM     13  O   UNL     1      36.920 -27.212 -13.179  0.00  0.00    -0.503 OA
ATOM     14  H   UNL     1      37.650 -27.730 -12.900  0.00  0.00    +0.292 HD
ENDBRANCH   9  13
BRANCH  10  15
ATOM     15  O   UNL     1      39.479 -26.182 -13.491  0.00  0.00    -0.503 OA
ATOM     16  H   UNL     1      40.065 -26.692 -14.015  0.00  0.00    +0.292 HD
ENDBRANCH  10  15
BRANCH   2  17
ATOM     17  C   UNL     1      34.136 -22.932 -14.857  0.00  0.00    +0.009 C 
BRANCH  17  18
ATOM     18  C   UNL     1      32.798 -23.608 -14.773  0.00  0.00    -0.024 C 
ATOM     19  C   UNL     1      31.835 -23.352 -15.742  0.00  0.00    -0.001 C 
ATOM     20  C   UNL     1      32.535 -24.485 -13.726  0.00  0.00    -0.001 C 
ATOM     21  C   UNL     1      30.592 -23.981 -15.664  0.00  0.00    +0.036 C 
ATOM     22  C   UNL     1      31.292 -25.113 -13.647  0.00  0.00    +0.036 C 
ATOM     23  C   UNL     1      30.321 -24.860 -14.617  0.00  0.00    +0.134 C 
BRANCH  23  24
ATOM     24  O   UNL     1      29.108 -25.473 -14.540  0.00  0.00    -0.506 OA
ATOM     25  H   UNL     1      29.058 -26.395 -14.377  0.00  0.00    +0.292 HD
ENDBRANCH  23  24
ENDBRANCH  17  18
ENDBRANCH   2  17
TORSDOF 5
ENDMDL
MODEL 9
REMARK VINA RESULT:      -8.7      2.277      3.545
REMARK  Name = 114840
REMARK  5 active torsions:
REMARK  status: ('A' for Active; 'I' for Inactive)
REMARK    1  A    between atoms: C_2  and  C_17
REMARK    2  A    between atoms: C_9  and  O_13
REMARK    3  A    between atoms: C_10  and  O_15
REMARK    4  A    between atoms: C_17  and  C_18
REMARK    5  A    between atoms: C_23  and  O_24
REMARK                            x       y       z     vdW  Elec       q    Type
REMARK                         _______ _______ _______ _____ _____    ______ ____
ROOT
ATOM      1  N   UNL     1      33.786 -16.393 -20.768  0.00  0.00    +0.388 N 
ATOM      2  C   UNL     1      34.010 -16.823 -22.162  0.00  0.00    -0.034 C 
ATOM      3  C   UNL     1      33.873 -15.703 -23.177  0.00  0.00    -0.043 C 
ATOM      4  C   UNL     1      33.904 -14.356 -22.772  0.00  0.00    -0.027 C 
ATOM      5  C   UNL     1      33.998 -13.999 -21.311  0.00  0.00    +0.003 C 
ATOM      6  C   UNL     1      34.508 -15.158 -20.457  0.00  0.00    -0.076 C 
ATOM      7  C   UNL     1      33.733 -16.004 -24.540  0.00  0.00    +0.033 C 
ATOM      8  C   UNL     1      33.779 -13.339 -23.727  0.00  0.00    +0.035 C 
ATOM      9  C   UNL     1      33.621 -14.985 -25.485  0.00  0.00    +0.167 C 
ATOM     10  C   UNL     1      33.644 -13.653 -25.079  0.00  0.00    +0.167 C 
ATOM     11  H   UNL     1      34.108 -17.130 -20.140  0.00  0.00    -0.084 HD
ATOM     12  H   UNL     1      32.789 -16.217 -20.647  0.00  0.00    -0.084 HD
ENDROOT
BRANCH   9  13
ATOM     13  O   UNL     1      33.485 -15.303 -26.802  0.00  0.00    -0.503 OA
ATOM     14  H   UNL     1      32.641 -15.271 -27.208  0.00  0.00    +0.292 HD
ENDBRANCH   9  13
BRANCH  10  15
ATOM     15  O   UNL     1      33.528 -12.648 -25.992  0.00  0.00    -0.503 OA
ATOM     16  H   UNL     1      33.379 -11.769 -25.704  0.00  0.00    +0.292 HD
ENDBRANCH  10  15
BRANCH   2  17
ATOM     17  C   UNL     1      35.362 -17.536 -22.287  0.00  0.00    +0.009 C 
BRANCH  17  18
ATOM     18  C   UNL     1      35.409 -18.773 -21.438  0.00  0.00    -0.024 C 
ATOM     19  C   UNL     1      36.619 -19.188 -20.893  0.00  0.00    -0.001 C 
ATOM     20  C   UNL     1      34.242 -19.492 -21.207  0.00  0.00    -0.001 C 
ATOM     21  C   UNL     1      36.661 -20.338 -20.103  0.00  0.00    +0.036 C 
ATOM     22  C   UNL     1      34.285 -20.641 -20.418  0.00  0.00    +0.036 C 
ATOM     23  C   UNL     1      35.495 -21.064 -19.867  0.00  0.00    +0.134 C 
BRANCH  23  24
ATOM     24  O   UNL     1      35.537 -22.187 -19.098  0.00  0.00    -0.506 OA
ATOM     25  H   UNL     1      36.129 -22.881 -19.314  0.00  0.00    +0.292 HD
ENDBRANCH  23  24
ENDBRANCH  17  18
ENDBRANCH   2  17
TORSDOF 5
ENDMDL
