MODEL 1
REMARK VINA RESULT:      -9.1      0.000      0.000
REMARK  Name = 6852206
REMARK  8 active torsions:
REMARK  status: ('A' for Active; 'I' for Inactive)
REMARK    1  A    between atoms: C_4  and  C_19
REMARK    2  A    between atoms: C_7  and  N_11
REMARK    3  A    between atoms: C_8  and  O_16
REMARK    4  A    between atoms: C_9  and  C_15
REMARK    5  A    between atoms: O_16  and  C_17
REMARK    6  A    between atoms: C_19  and  C_21
REMARK    7  A    between atoms: C_22  and  O_27
REMARK    8  A    between atoms: C_24  and  O_29
REMARK                            x       y       z     vdW  Elec       q    Type
REMARK                         _______ _______ _______ _____ _____    ______ ____
ROOT
ATOM      1  O   UNL     1      33.603 -19.407 -22.245  0.00  0.00    -0.274 OA
ATOM      2  N   UNL     1      35.690 -19.918 -21.300  0.00  0.00    -0.259 N 
ATOM      3  N   UNL     1      36.346 -21.194 -19.420  0.00  0.00    -0.355 NA
ATOM      4  C   UNL     1      34.827 -19.332 -22.222  0.00  0.00    +0.232 C 
ATOM      5  C   UNL     1      35.348 -20.726 -20.190  0.00  0.00    +0.190 C 
ATOM      6  C   UNL     1      34.007 -20.971 -19.986  0.00  0.00    +0.059 C 
ATOM      7  C   UNL     1      33.661 -21.765 -18.898  0.00  0.00    +0.047 C 
ATOM      8  C   UNL     1      35.971 -21.962 -18.372  0.00  0.00    +0.273 C 
ATOM      9  C   UNL     1      34.656 -22.274 -18.071  0.00  0.00    +0.215 C 
ATOM     10  H   UNL     1      36.651 -19.751 -21.435  0.00  0.00    +0.157 HD
ENDROOT
BRANCH   7  11
ATOM     11  N   UNL     1      32.295 -22.037 -18.659  0.00  0.00    -0.359 N 
ATOM     12  H   UNL     1      32.030 -22.872 -18.208  0.00  0.00    +0.142 HD
ATOM     13  H   UNL     1      31.607 -21.392 -18.943  0.00  0.00    +0.142 HD
ENDBRANCH   7  11
BRANCH   9  15
ATOM     14  N   UNL     1      34.078 -23.758 -16.028  0.00  0.00    -0.195 NA
ATOM     15  C   UNL     1      34.336 -23.095 -16.941  0.00  0.00    +0.089 C 
ENDBRANCH   9  15
BRANCH   8  16
ATOM     16  O   UNL     1      36.990 -22.439 -17.587  0.00  0.00    -0.454 OA
BRANCH  16  17
ATOM     17  C   UNL     1      37.262 -21.721 -16.389  0.00  0.00    +0.208 C 
ATOM     18  C   UNL     1      37.482 -22.709 -15.262  0.00  0.00    +0.051 C 
ENDBRANCH  16  17
ENDBRANCH   8  16
BRANCH   4  19
ATOM     19  C   UNL     1      35.605 -18.541 -23.269  0.00  0.00    +0.115 C 
BRANCH  19  21
ATOM     20 BR   UNL     1      33.298 -12.923 -24.402  0.00  0.00    -0.046 Br
ATOM     21  C   UNL     1      35.048 -17.181 -23.537  0.00  0.00    +0.024 C 
ATOM     22  C   UNL     1      34.883 -16.262 -22.503  0.00  0.00    +0.136 C 
ATOM     23  C   UNL     1      34.691 -16.837 -24.841  0.00  0.00    +0.037 C 
ATOM     24  C   UNL     1      34.168 -15.571 -25.109  0.00  0.00    +0.145 C 
ATOM     25  C   UNL     1      34.361 -14.996 -22.770  0.00  0.00    +0.046 C 
ATOM     26  C   UNL     1      34.004 -14.651 -24.073  0.00  0.00    +0.071 C 
BRANCH  22  27
ATOM     27  O   UNL     1      35.226 -16.584 -21.223  0.00  0.00    -0.472 OA
ATOM     28  C   UNL     1      34.635 -15.810 -20.181  0.00  0.00    +0.252 C 
ENDBRANCH  22  27
BRANCH  24  29
ATOM     29  O   UNL     1      33.829 -15.265 -26.393  0.00  0.00    -0.471 OA
ATOM     30  C   UNL     1      32.442 -15.303 -26.722  0.00  0.00    +0.252 C 
ENDBRANCH  24  29
ENDBRANCH  19  21
ENDBRANCH   4  19
TORSDOF 8
ENDMDL
MODEL 2
REMARK VINA RESULT:      -9.0      1.043      2.382
REMARK  Name = 6852206
REMARK  8 active torsions:
REMARK  status: ('A' for Active; 'I' for Inactive)
REMARK    1  A    between atoms: C_4  and  C_19
REMARK    2  A    between atoms: C_7  and  N_11
REMARK    3  A    between atoms: C_8  and  O_16
REMARK    4  A    between atoms: C_9  and  C_15
REMARK    5  A    between atoms: O_16  and  C_17
REMARK    6  A    between atoms: C_19  and  C_21
REMARK    7  A    between atoms: C_22  and  O_27
REMARK    8  A    between atoms: C_24  and  O_29
REMARK                            x       y       z     vdW  Elec       q    Type
REMARK                         _______ _______ _______ _____ _____    ______ ____
ROOT
ATOM      1  O   UNL     1      33.749 -19.476 -21.960  0.00  0.00    -0.274 OA
ATOM      2  N   UNL     1      35.827 -19.873 -20.943  0.00  0.00    -0.259 N 
ATOM      3  N   UNL     1      36.500 -21.190 -19.099  0.00  0.00    -0.355 NA
ATOM      4  C   UNL     1      34.961 -19.308 -21.876  0.00  0.00    +0.232 C 
ATOM      5  C   UNL     1      35.502 -20.761 -19.891  0.00  0.00    +0.190 C 
ATOM      6  C   UNL     1      34.177 -21.120 -19.763  0.00  0.00    +0.059 C 
ATOM      7  C   UNL     1      33.849 -21.993 -18.732  0.00  0.00    +0.047 C 
ATOM      8  C   UNL     1      36.143 -22.038 -18.108  0.00  0.00    +0.273 C 
ATOM      9  C   UNL     1      34.844 -22.467 -17.885  0.00  0.00    +0.215 C 
ATOM     10  H   UNL     1      36.776 -19.625 -21.025  0.00  0.00    +0.157 HD
ENDROOT
BRANCH   7  11
ATOM     11  N   UNL     1      32.500 -22.383 -18.571  0.00  0.00    -0.359 N 
ATOM     12  H   UNL     1      32.270 -23.125 -17.967  0.00  0.00    +0.142 HD
ATOM     13  H   UNL     1      31.789 -21.912 -19.064  0.00  0.00    +0.142 HD
ENDBRANCH   7  11
BRANCH   9  15
ATOM     14  N   UNL     1      34.299 -24.097 -15.946  0.00  0.00    -0.195 NA
ATOM     15  C   UNL     1      34.543 -23.367 -16.813  0.00  0.00    +0.089 C 
ENDBRANCH   9  15
BRANCH   8  16
ATOM     16  O   UNL     1      37.161 -22.475 -17.299  0.00  0.00    -0.454 OA
BRANCH  16  17
ATOM     17  C   UNL     1      37.314 -21.811 -16.050  0.00  0.00    +0.208 C 
ATOM     18  C   UNL     1      37.494 -22.847 -14.961  0.00  0.00    +0.051 C 
ENDBRANCH  16  17
ENDBRANCH   8  16
BRANCH   4  19
ATOM     19  C   UNL     1      35.717 -18.405 -22.845  0.00  0.00    +0.115 C 
BRANCH  19  21
ATOM     20 BR   UNL     1      32.981 -12.955 -23.832  0.00  0.00    -0.046 Br
ATOM     21  C   UNL     1      35.055 -17.089 -23.089  0.00  0.00    +0.024 C 
ATOM     22  C   UNL     1      34.625 -16.734 -24.367  0.00  0.00    +0.136 C 
ATOM     23  C   UNL     1      34.870 -16.211 -22.021  0.00  0.00    +0.037 C 
ATOM     24  C   UNL     1      34.253 -14.978 -22.232  0.00  0.00    +0.145 C 
ATOM     25  C   UNL     1      34.008 -15.500 -24.578  0.00  0.00    +0.046 C 
ATOM     26  C   UNL     1      33.822 -14.623 -23.511  0.00  0.00    +0.071 C 
BRANCH  22  27
ATOM     27  O   UNL     1      34.800 -17.580 -25.421  0.00  0.00    -0.472 OA
ATOM     28  C   UNL     1      34.013 -18.769 -25.435  0.00  0.00    +0.252 C 
ENDBRANCH  22  27
BRANCH  24  29
ATOM     29  O   UNL     1      34.087 -14.142 -21.168  0.00  0.00    -0.471 OA
ATOM     30  C   UNL     1      32.920 -14.333 -20.372  0.00  0.00    +0.252 C 
ENDBRANCH  24  29
ENDBRANCH  19  21
ENDBRANCH   4  19
TORSDOF 8
ENDMDL
MODEL 3
REMARK VINA RESULT:      -8.8      1.790      2.927
REMARK  Name = 6852206
REMARK  8 active torsions:
REMARK  status: ('A' for Active; 'I' for Inactive)
REMARK    1  A    between atoms: C_4  and  C_19
REMARK    2  A    between atoms: C_7  and  N_11
REMARK    3  A    between atoms: C_8  and  O_16
REMARK    4  A    between atoms: C_9  and  C_15
REMARK    5  A    between atoms: O_16  and  C_17
REMARK    6  A    between atoms: C_19  and  C_21
REMARK    7  A    between atoms: C_22  and  O_27
REMARK    8  A    between atoms: C_24  and  O_29
REMARK                            x       y       z     vdW  Elec       q    Type
REMARK                         _______ _______ _______ _____ _____    ______ ____
ROOT
ATOM      1  O   UNL     1      34.531 -20.457 -20.949  0.00  0.00    -0.274 OA
ATOM      2  N   UNL     1      36.354 -20.468 -19.471  0.00  0.00    -0.259 N 
ATOM      3  N   UNL     1      36.783 -21.599 -17.440  0.00  0.00    -0.355 NA
ATOM      4  C   UNL     1      35.648 -20.084 -20.608  0.00  0.00    +0.232 C 
ATOM      5  C   UNL     1      35.940 -21.367 -18.461  0.00  0.00    +0.190 C 
ATOM      6  C   UNL     1      34.695 -21.942 -18.608  0.00  0.00    +0.059 C 
ATOM      7  C   UNL     1      34.280 -22.828 -17.620  0.00  0.00    +0.047 C 
ATOM      8  C   UNL     1      36.346 -22.466 -16.499  0.00  0.00    +0.273 C 
ATOM      9  C   UNL     1      35.115 -23.102 -16.543  0.00  0.00    +0.215 C 
ATOM     10  H   UNL     1      37.245 -20.065 -19.355  0.00  0.00    +0.157 HD
ENDROOT
BRANCH   7  11
ATOM     11  N   UNL     1      33.009 -23.436 -17.738  0.00  0.00    -0.359 N 
ATOM     12  H   UNL     1      32.214 -22.883 -17.913  0.00  0.00    +0.142 HD
ATOM     13  H   UNL     1      32.920 -24.412 -17.646  0.00  0.00    +0.142 HD
ENDBRANCH   7  11
BRANCH   9  15
ATOM     14  N   UNL     1      34.403 -24.744 -14.670  0.00  0.00    -0.195 NA
ATOM     15  C   UNL     1      34.721 -24.010 -15.508  0.00  0.00    +0.089 C 
ENDBRANCH   9  15
BRANCH   8  16
ATOM     16  O   UNL     1      37.206 -22.702 -15.457  0.00  0.00    -0.454 OA
BRANCH  16  17
ATOM     17  C   UNL     1      38.299 -23.575 -15.716  0.00  0.00    +0.208 C 
ATOM     18  C   UNL     1      38.290 -24.692 -14.693  0.00  0.00    +0.051 C 
ENDBRANCH  16  17
ENDBRANCH   8  16
BRANCH   4  19
ATOM     19  C   UNL     1      36.455 -19.095 -21.443  0.00  0.00    +0.115 C 
BRANCH  19  21
ATOM     20 BR   UNL     1      33.154 -14.309 -23.531  0.00  0.00    -0.046 Br
ATOM     21  C   UNL     1      35.657 -17.940 -21.953  0.00  0.00    +0.024 C 
ATOM     22  C   UNL     1      35.316 -17.850 -23.301  0.00  0.00    +0.136 C 
ATOM     23  C   UNL     1      35.254 -16.945 -21.063  0.00  0.00    +0.037 C 
ATOM     24  C   UNL     1      34.508 -15.859 -21.523  0.00  0.00    +0.145 C 
ATOM     25  C   UNL     1      34.570 -16.765 -23.762  0.00  0.00    +0.046 C 
ATOM     26  C   UNL     1      34.166 -15.770 -22.872  0.00  0.00    +0.071 C 
BRANCH  22  27
ATOM     27  O   UNL     1      35.704 -18.813 -24.184  0.00  0.00    -0.472 OA
ATOM     28  C   UNL     1      34.678 -19.632 -24.742  0.00  0.00    +0.252 C 
ENDBRANCH  22  27
BRANCH  24  29
ATOM     29  O   UNL     1      34.129 -14.903 -20.628  0.00  0.00    -0.471 OA
ATOM     30  C   UNL     1      32.775 -14.934 -20.184  0.00  0.00    +0.252 C 
ENDBRANCH  24  29
ENDBRANCH  19  21
ENDBRANCH   4  19
TORSDOF 8
ENDMDL
MODEL 4
REMARK VINA RESULT:      -8.6      3.659      8.565
REMARK  Name = 6852206
REMARK  8 active torsions:
REMARK  status: ('A' for Active; 'I' for Inactive)
REMARK    1  A    between atoms: C_4  and  C_19
REMARK    2  A    between atoms: C_7  and  N_11
REMARK    3  A    between atoms: C_8  and  O_16
REMARK    4  A    between atoms: C_9  and  C_15
REMARK    5  A    between atoms: O_16  and  C_17
REMARK    6  A    between atoms: C_19  and  C_21
REMARK    7  A    between atoms: C_22  and  O_27
REMARK    8  A    between atoms: C_24  and  O_29
REMARK                            x       y       z     vdW  Elec       q    Type
REMARK                         _______ _______ _______ _____ _____    ______ ____
ROOT
ATOM      1  O   UNL     1      36.062 -22.015 -20.695  0.00  0.00    -0.274 OA
ATOM      2  N   UNL     1      36.083 -19.823 -19.854  0.00  0.00    -0.259 N 
ATOM      3  N   UNL     1      35.531 -17.725 -20.793  0.00  0.00    -0.355 NA
ATOM      4  C   UNL     1      36.262 -21.203 -19.797  0.00  0.00    +0.232 C 
ATOM      5  C   UNL     1      35.633 -19.056 -20.954  0.00  0.00    +0.190 C 
ATOM      6  C   UNL     1      35.331 -19.741 -22.112  0.00  0.00    +0.059 C 
ATOM      7  C   UNL     1      34.887 -18.995 -23.198  0.00  0.00    +0.047 C 
ATOM      8  C   UNL     1      35.097 -17.033 -21.871  0.00  0.00    +0.273 C 
ATOM      9  C   UNL     1      34.764 -17.615 -23.083  0.00  0.00    +0.215 C 
ATOM     10  H   UNL     1      36.294 -19.323 -19.033  0.00  0.00    +0.157 HD
ENDROOT
BRANCH   7  11
ATOM     11  N   UNL     1      34.569 -19.664 -24.401  0.00  0.00    -0.359 N 
ATOM     12  H   UNL     1      34.667 -20.642 -24.463  0.00  0.00    +0.142 HD
ATOM     13  H   UNL     1      34.247 -19.153 -25.179  0.00  0.00    +0.142 HD
ENDBRANCH   7  11
BRANCH   9  15
ATOM     14  N   UNL     1      33.943 -16.167 -25.069  0.00  0.00    -0.195 NA
ATOM     15  C   UNL     1      34.310 -16.815 -24.181  0.00  0.00    +0.089 C 
ENDBRANCH   9  15
BRANCH   8  16
ATOM     16  O   UNL     1      34.993 -15.675 -21.707  0.00  0.00    -0.454 OA
BRANCH  16  17
ATOM     17  C   UNL     1      34.353 -15.222 -20.519  0.00  0.00    +0.208 C 
ATOM     18  C   UNL     1      32.853 -15.308 -20.706  0.00  0.00    +0.051 C 
ENDBRANCH  16  17
ENDBRANCH   8  16
BRANCH   4  19
ATOM     19  C   UNL     1      36.760 -21.632 -18.421  0.00  0.00    +0.115 C 
BRANCH  19  21
ATOM     20 BR   UNL     1      32.367 -24.113 -14.856  0.00  0.00    -0.046 Br
ATOM     21  C   UNL     1      35.702 -22.232 -17.554  0.00  0.00    +0.024 C 
ATOM     22  C   UNL     1      35.987 -22.620 -16.246  0.00  0.00    +0.136 C 
ATOM     23  C   UNL     1      34.417 -22.403 -18.069  0.00  0.00    +0.037 C 
ATOM     24  C   UNL     1      33.417 -22.963 -17.273  0.00  0.00    +0.145 C 
ATOM     25  C   UNL     1      34.987 -23.179 -15.450  0.00  0.00    +0.046 C 
ATOM     26  C   UNL     1      33.702 -23.351 -15.964  0.00  0.00    +0.071 C 
BRANCH  22  27
ATOM     27  O   UNL     1      37.238 -22.461 -15.729  0.00  0.00    -0.472 OA
ATOM     28  C   UNL     1      37.886 -23.630 -15.232  0.00  0.00    +0.252 C 
ENDBRANCH  22  27
BRANCH  24  29
ATOM     29  O   UNL     1      32.171 -23.117 -17.805  0.00  0.00    -0.471 OA
ATOM     30  C   UNL     1      31.092 -22.484 -17.121  0.00  0.00    +0.252 C 
ENDBRANCH  24  29
ENDBRANCH  19  21
ENDBRANCH   4  19
TORSDOF 8
ENDMDL
MODEL 5
REMARK VINA RESULT:      -8.6      2.049      3.727
REMARK  Name = 6852206
REMARK  8 active torsions:
REMARK  status: ('A' for Active; 'I' for Inactive)
REMARK    1  A    between atoms: C_4  and  C_19
REMARK    2  A    between atoms: C_7  and  N_11
REMARK    3  A    between atoms: C_8  and  O_16
REMARK    4  A    between atoms: C_9  and  C_15
REMARK    5  A    between atoms: O_16  and  C_17
REMARK    6  A    between atoms: C_19  and  C_21
REMARK    7  A    between atoms: C_22  and  O_27
REMARK    8  A    between atoms: C_24  and  O_29
REMARK                            x       y       z     vdW  Elec       q    Type
REMARK                         _______ _______ _______ _____ _____    ______ ____
ROOT
ATOM      1  O   UNL     1      36.665 -19.779 -20.367  0.00  0.00    -0.274 OA
ATOM      2  N   UNL     1      34.830 -21.172 -19.916  0.00  0.00    -0.259 N 
ATOM      3  N   UNL     1      34.277 -22.582 -18.101  0.00  0.00    -0.355 NA
ATOM      4  C   UNL     1      35.581 -20.269 -20.665  0.00  0.00    +0.232 C 
ATOM      5  C   UNL     1      35.150 -21.721 -18.652  0.00  0.00    +0.190 C 
ATOM      6  C   UNL     1      36.341 -21.325 -18.082  0.00  0.00    +0.059 C 
ATOM      7  C   UNL     1      36.664 -21.859 -16.840  0.00  0.00    +0.047 C 
ATOM      8  C   UNL     1      34.625 -23.081 -16.893  0.00  0.00    +0.273 C 
ATOM      9  C   UNL     1      35.795 -22.754 -16.226  0.00  0.00    +0.215 C 
ATOM     10  H   UNL     1      33.976 -21.462 -20.312  0.00  0.00    +0.157 HD
ENDROOT
BRANCH   7  11
ATOM     11  N   UNL     1      37.878 -21.475 -16.226  0.00  0.00    -0.359 N 
ATOM     12  H   UNL     1      37.874 -20.808 -15.501  0.00  0.00    +0.142 HD
ATOM     13  H   UNL     1      38.728 -21.873 -16.523  0.00  0.00    +0.142 HD
ENDBRANCH   7  11
BRANCH   9  15
ATOM     14  N   UNL     1      36.337 -23.785 -13.912  0.00  0.00    -0.195 NA
ATOM     15  C   UNL     1      36.095 -23.324 -14.947  0.00  0.00    +0.089 C 
ENDBRANCH   9  15
BRANCH   8  16
ATOM     16  O   UNL     1      33.735 -23.960 -16.331  0.00  0.00    -0.454 OA
BRANCH  16  17
ATOM     17  C   UNL     1      32.417 -23.475 -16.102  0.00  0.00    +0.208 C 
ATOM     18  C   UNL     1      32.276 -23.102 -14.641  0.00  0.00    +0.051 C 
ENDBRANCH  16  17
ENDBRANCH   8  16
BRANCH   4  19
ATOM     19  C   UNL     1      34.874 -19.926 -21.972  0.00  0.00    +0.115 C 
BRANCH  19  21
ATOM     20 BR   UNL     1      34.204 -13.858 -22.918  0.00  0.00    -0.046 Br
ATOM     21  C   UNL     1      34.713 -18.460 -22.207  0.00  0.00    +0.024 C 
ATOM     22  C   UNL     1      34.871 -17.921 -23.482  0.00  0.00    +0.136 C 
ATOM     23  C   UNL     1      34.402 -17.629 -21.131  0.00  0.00    +0.037 C 
ATOM     24  C   UNL     1      34.248 -16.257 -21.332  0.00  0.00    +0.145 C 
ATOM     25  C   UNL     1      34.718 -16.549 -23.684  0.00  0.00    +0.046 C 
ATOM     26  C   UNL     1      34.406 -15.717 -22.609  0.00  0.00    +0.071 C 
BRANCH  22  27
ATOM     27  O   UNL     1      35.177 -18.719 -24.544  0.00  0.00    -0.472 OA
ATOM     28  C   UNL     1      34.116 -19.037 -25.442  0.00  0.00    +0.252 C 
ENDBRANCH  22  27
BRANCH  24  29
ATOM     29  O   UNL     1      33.944 -15.471 -20.261  0.00  0.00    -0.471 OA
ATOM     30  C   UNL     1      32.573 -15.125 -20.081  0.00  0.00    +0.252 C 
ENDBRANCH  24  29
ENDBRANCH  19  21
ENDBRANCH   4  19
TORSDOF 8
ENDMDL
MODEL 6
REMARK VINA RESULT:      -8.4      6.893     10.565
REMARK  Name = 6852206
REMARK  8 active torsions:
REMARK  status: ('A' for Active; 'I' for Inactive)
REMARK    1  A    between atoms: C_4  and  C_19
REMARK    2  A    between atoms: C_7  and  N_11
REMARK    3  A    between atoms: C_8  and  O_16
REMARK    4  A    between atoms: C_9  and  C_15
REMARK    5  A    between atoms: O_16  and  C_17
REMARK    6  A    between atoms: C_19  and  C_21
REMARK    7  A    between atoms: C_22  and  O_27
REMARK    8  A    between atoms: C_24  and  O_29
REMARK                            x       y       z     vdW  Elec       q    Type
REMARK                         _______ _______ _______ _____ _____    ______ ____
ROOT
ATOM      1  O   UNL     1      34.942  -9.149 -25.797  0.00  0.00    -0.274 OA
ATOM      2  N   UNL     1      34.400 -10.391 -23.880  0.00  0.00    -0.259 N 
ATOM      3  N   UNL     1      33.659 -12.611 -23.547  0.00  0.00    -0.355 NA
ATOM      4  C   UNL     1      34.816  -9.262 -24.583  0.00  0.00    +0.232 C 
ATOM      5  C   UNL     1      34.032 -11.650 -24.410  0.00  0.00    +0.190 C 
ATOM      6  C   UNL     1      34.089 -11.792 -25.780  0.00  0.00    +0.059 C 
ATOM      7  C   UNL     1      33.731 -13.026 -26.310  0.00  0.00    +0.047 C 
ATOM      8  C   UNL     1      33.317 -13.797 -24.099  0.00  0.00    +0.273 C 
ATOM      9  C   UNL     1      33.337 -14.054 -25.460  0.00  0.00    +0.215 C 
ATOM     10  H   UNL     1      34.357 -10.302 -22.901  0.00  0.00    +0.157 HD
ENDROOT
BRANCH   7  11
ATOM     11  N   UNL     1      33.777 -13.208 -27.711  0.00  0.00    -0.359 N 
ATOM     12  H   UNL     1      34.641 -13.351 -28.161  0.00  0.00    +0.142 HD
ATOM     13  H   UNL     1      32.945 -13.191 -28.237  0.00  0.00    +0.142 HD
ENDBRANCH   7  11
BRANCH   9  15
ATOM     14  N   UNL     1      32.656 -16.377 -26.382  0.00  0.00    -0.195 NA
ATOM     15  C   UNL     1      32.960 -15.338 -25.970  0.00  0.00    +0.089 C 
ENDBRANCH   9  15
BRANCH   8  16
ATOM     16  O   UNL     1      32.935 -14.778 -23.218  0.00  0.00    -0.454 OA
BRANCH  16  17
ATOM     17  C   UNL     1      32.524 -14.350 -21.925  0.00  0.00    +0.208 C 
ATOM     18  C   UNL     1      32.602 -15.523 -20.971  0.00  0.00    +0.051 C 
ENDBRANCH  16  17
ENDBRANCH   8  16
BRANCH   4  19
ATOM     19  C   UNL     1      35.122  -8.110 -23.630  0.00  0.00    +0.115 C 
BRANCH  19  21
ATOM     20 BR   UNL     1      30.100  -5.171 -21.555  0.00  0.00    -0.046 Br
ATOM     21  C   UNL     1      33.907  -7.397 -23.134  0.00  0.00    +0.024 C 
ATOM     22  C   UNL     1      33.271  -6.439 -23.922  0.00  0.00    +0.136 C 
ATOM     23  C   UNL     1      33.412  -7.698 -21.865  0.00  0.00    +0.037 C 
ATOM     24  C   UNL     1      32.279  -7.041 -21.386  0.00  0.00    +0.145 C 
ATOM     25  C   UNL     1      32.138  -5.782 -23.442  0.00  0.00    +0.046 C 
ATOM     26  C   UNL     1      31.642  -6.083 -22.175  0.00  0.00    +0.071 C 
BRANCH  22  27
ATOM     27  O   UNL     1      33.744  -6.132 -25.163  0.00  0.00    -0.472 OA
ATOM     28  C   UNL     1      33.001  -5.179 -25.921  0.00  0.00    +0.252 C 
ENDBRANCH  22  27
BRANCH  24  29
ATOM     29  O   UNL     1      31.819  -7.358 -20.142  0.00  0.00    -0.471 OA
ATOM     30  C   UNL     1      31.966  -8.712 -19.724  0.00  0.00    +0.252 C 
ENDBRANCH  24  29
ENDBRANCH  19  21
ENDBRANCH   4  19
TORSDOF 8
ENDMDL
MODEL 7
REMARK VINA RESULT:      -8.3      3.629      8.746
REMARK  Name = 6852206
REMARK  8 active torsions:
REMARK  status: ('A' for Active; 'I' for Inactive)
REMARK    1  A    between atoms: C_4  and  C_19
REMARK    2  A    between atoms: C_7  and  N_11
REMARK    3  A    between atoms: C_8  and  O_16
REMARK    4  A    between atoms: C_9  and  C_15
REMARK    5  A    between atoms: O_16  and  C_17
REMARK    6  A    between atoms: C_19  and  C_21
REMARK    7  A    between atoms: C_22  and  O_27
REMARK    8  A    between atoms: C_24  and  O_29
REMARK                            x       y       z     vdW  Elec       q    Type
REMARK                         _______ _______ _______ _____ _____    ______ ____
ROOT
ATOM      1  O   UNL     1      36.066 -21.823 -20.992  0.00  0.00    -0.274 OA
ATOM      2  N   UNL     1      36.012 -19.671 -20.056  0.00  0.00    -0.259 N 
ATOM      3  N   UNL     1      35.448 -17.544 -20.920  0.00  0.00    -0.355 NA
ATOM      4  C   UNL     1      36.219 -21.048 -20.053  0.00  0.00    +0.232 C 
ATOM      5  C   UNL     1      35.584 -18.864 -21.136  0.00  0.00    +0.190 C 
ATOM      6  C   UNL     1      35.335 -19.502 -22.332  0.00  0.00    +0.059 C 
ATOM      7  C   UNL     1      34.913 -18.718 -23.400  0.00  0.00    +0.047 C 
ATOM      8  C   UNL     1      35.036 -16.813 -21.981  0.00  0.00    +0.273 C 
ATOM      9  C   UNL     1      34.757 -17.347 -23.229  0.00  0.00    +0.215 C 
ATOM     10  H   UNL     1      36.185 -19.203 -19.206  0.00  0.00    +0.157 HD
ENDROOT
BRANCH   7  11
ATOM     11  N   UNL     1      34.649 -19.339 -24.641  0.00  0.00    -0.359 N 
ATOM     12  H   UNL     1      34.782 -20.309 -24.745  0.00  0.00    +0.142 HD
ATOM     13  H   UNL     1      34.332 -18.802 -25.403  0.00  0.00    +0.142 HD
ENDBRANCH   7  11
BRANCH   9  15
ATOM     14  N   UNL     1      33.973 -15.828 -25.176  0.00  0.00    -0.195 NA
ATOM     15  C   UNL     1      34.323 -16.508 -24.306  0.00  0.00    +0.089 C 
ENDBRANCH   9  15
BRANCH   8  16
ATOM     16  O   UNL     1      34.898 -15.466 -21.761  0.00  0.00    -0.454 OA
BRANCH  16  17
ATOM     17  C   UNL     1      34.329 -15.077 -20.517  0.00  0.00    +0.208 C 
ATOM     18  C   UNL     1      32.819 -15.110 -20.635  0.00  0.00    +0.051 C 
ENDBRANCH  16  17
ENDBRANCH   8  16
BRANCH   4  19
ATOM     19  C   UNL     1      36.678 -21.527 -18.680  0.00  0.00    +0.115 C 
BRANCH  19  21
ATOM     20 BR   UNL     1      32.183 -23.984 -15.227  0.00  0.00    -0.046 Br
ATOM     21  C   UNL     1      35.588 -22.121 -17.850  0.00  0.00    +0.024 C 
ATOM     22  C   UNL     1      34.293 -22.236 -18.352  0.00  0.00    +0.136 C 
ATOM     23  C   UNL     1      35.878 -22.561 -16.559  0.00  0.00    +0.037 C 
ATOM     24  C   UNL     1      34.871 -23.117 -15.769  0.00  0.00    +0.145 C 
ATOM     25  C   UNL     1      33.285 -22.793 -17.563  0.00  0.00    +0.046 C 
ATOM     26  C   UNL     1      33.575 -23.233 -16.272  0.00  0.00    +0.071 C 
BRANCH  22  27
ATOM     27  O   UNL     1      33.992 -21.809 -19.611  0.00  0.00    -0.472 OA
ATOM     28  C   UNL     1      32.809 -21.029 -19.765  0.00  0.00    +0.252 C 
ENDBRANCH  22  27
BRANCH  24  29
ATOM     29  O   UNL     1      35.186 -23.538 -14.511  0.00  0.00    -0.471 OA
ATOM     30  C   UNL     1      36.020 -24.689 -14.405  0.00  0.00    +0.252 C 
ENDBRANCH  24  29
ENDBRANCH  19  21
ENDBRANCH   4  19
TORSDOF 8
ENDMDL
MODEL 8
REMARK VINA RESULT:      -8.2      2.593      4.242
REMARK  Name = 6852206
REMARK  8 active torsions:
REMARK  status: ('A' for Active; 'I' for Inactive)
REMARK    1  A    between atoms: C_4  and  C_19
REMARK    2  A    between atoms: C_7  and  N_11
REMARK    3  A    between atoms: C_8  and  O_16
REMARK    4  A    between atoms: C_9  and  C_15
REMARK    5  A    between atoms: O_16  and  C_17
REMARK    6  A    between atoms: C_19  and  C_21
REMARK    7  A    between atoms: C_22  and  O_27
REMARK    8  A    between atoms: C_24  and  O_29
REMARK                            x       y       z     vdW  Elec       q    Type
REMARK                         _______ _______ _______ _____ _____    ______ ____
ROOT
ATOM      1  O   UNL     1      35.697 -15.822 -23.374  0.00  0.00    -0.274 OA
ATOM      2  N   UNL     1      33.893 -17.264 -22.957  0.00  0.00    -0.259 N 
ATOM      3  N   UNL     1      33.675 -19.267 -21.721  0.00  0.00    -0.355 NA
ATOM      4  C   UNL     1      34.522 -16.147 -23.501  0.00  0.00    +0.232 C 
ATOM      5  C   UNL     1      34.468 -18.267 -22.142  0.00  0.00    +0.190 C 
ATOM      6  C   UNL     1      35.806 -18.135 -21.840  0.00  0.00    +0.059 C 
ATOM      7  C   UNL     1      36.380 -19.115 -21.038  0.00  0.00    +0.047 C 
ATOM      8  C   UNL     1      34.268 -20.201 -20.943  0.00  0.00    +0.273 C 
ATOM      9  C   UNL     1      35.603 -20.171 -20.576  0.00  0.00    +0.215 C 
ATOM     10  H   UNL     1      32.936 -17.369 -23.165  0.00  0.00    +0.157 HD
ENDROOT
BRANCH   7  11
ATOM     11  N   UNL     1      37.751 -19.011 -20.708  0.00  0.00    -0.359 N 
ATOM     12  H   UNL     1      38.168 -19.679 -20.118  0.00  0.00    +0.142 HD
ATOM     13  H   UNL     1      38.289 -18.270 -21.069  0.00  0.00    +0.142 HD
ENDBRANCH   7  11
BRANCH   9  15
ATOM     14  N   UNL     1      36.612 -22.029 -19.078  0.00  0.00    -0.195 NA
ATOM     15  C   UNL     1      36.160 -21.198 -19.748  0.00  0.00    +0.089 C 
ENDBRANCH   9  15
BRANCH   8  16
ATOM     16  O   UNL     1      33.458 -21.223 -20.514  0.00  0.00    -0.454 OA
BRANCH  16  17
ATOM     17  C   UNL     1      32.850 -21.062 -19.238  0.00  0.00    +0.208 C 
ATOM     18  C   UNL     1      33.045 -22.332 -18.436  0.00  0.00    +0.051 C 
ENDBRANCH  16  17
ENDBRANCH   8  16
BRANCH   4  19
ATOM     19  C   UNL     1      33.540 -15.314 -24.320  0.00  0.00    +0.115 C 
BRANCH  19  21
ATOM     20 BR   UNL     1      31.992  -9.944 -21.687  0.00  0.00    -0.046 Br
ATOM     21  C   UNL     1      33.164 -14.019 -23.679  0.00  0.00    +0.024 C 
ATOM     22  C   UNL     1      32.511 -13.996 -22.447  0.00  0.00    +0.136 C 
ATOM     23  C   UNL     1      33.473 -12.823 -24.327  0.00  0.00    +0.037 C 
ATOM     24  C   UNL     1      33.128 -11.604 -23.742  0.00  0.00    +0.145 C 
ATOM     25  C   UNL     1      32.166 -12.777 -21.863  0.00  0.00    +0.046 C 
ATOM     26  C   UNL     1      32.475 -11.582 -22.510  0.00  0.00    +0.071 C 
BRANCH  22  27
ATOM     27  O   UNL     1      32.200 -15.156 -21.802  0.00  0.00    -0.472 OA
ATOM     28  C   UNL     1      32.559 -15.246 -20.424  0.00  0.00    +0.252 C 
ENDBRANCH  22  27
BRANCH  24  29
ATOM     29  O   UNL     1      33.444 -10.453 -24.401  0.00  0.00    -0.471 OA
ATOM     30  C   UNL     1      34.823 -10.100 -24.460  0.00  0.00    +0.252 C 
ENDBRANCH  24  29
ENDBRANCH  19  21
ENDBRANCH   4  19
TORSDOF 8
ENDMDL
MODEL 9
REMARK VINA RESULT:      -8.2      3.503      9.090
REMARK  Name = 6852206
REMARK  8 active torsions:
REMARK  status: ('A' for Active; 'I' for Inactive)
REMARK    1  A    between atoms: C_4  and  C_19
REMARK    2  A    between atoms: C_7  and  N_11
REMARK    3  A    between atoms: C_8  and  O_16
REMARK    4  A    between atoms: C_9  and  C_15
REMARK    5  A    between atoms: O_16  and  C_17
REMARK    6  A    between atoms: C_19  and  C_21
REMARK    7  A    between atoms: C_22  and  O_27
REMARK    8  A    between atoms: C_24  and  O_29
REMARK                            x       y       z     vdW  Elec       q    Type
REMARK                         _______ _______ _______ _____ _____    ______ ____
ROOT
ATOM      1  O   UNL     1      35.684 -18.000 -20.248  0.00  0.00    -0.274 OA
ATOM      2  N   UNL     1      35.392 -18.295 -22.558  0.00  0.00    -0.259 N 
ATOM      3  N   UNL     1      34.729 -16.844 -24.303  0.00  0.00    -0.355 NA
ATOM      4  C   UNL     1      35.704 -18.692 -21.261  0.00  0.00    +0.232 C 
ATOM      5  C   UNL     1      34.983 -17.013 -22.994  0.00  0.00    +0.190 C 
ATOM      6  C   UNL     1      34.879 -16.030 -22.033  0.00  0.00    +0.059 C 
ATOM      7  C   UNL     1      34.478 -14.766 -22.451  0.00  0.00    +0.047 C 
ATOM      8  C   UNL     1      34.342 -15.602 -24.673  0.00  0.00    +0.273 C 
ATOM      9  C   UNL     1      34.204 -14.539 -23.795  0.00  0.00    +0.215 C 
ATOM     10  H   UNL     1      35.464 -18.988 -23.255  0.00  0.00    +0.157 HD
ENDROOT
BRANCH   7  11
ATOM     11  N   UNL     1      34.361 -13.735 -21.493  0.00  0.00    -0.359 N 
ATOM     12  H   UNL     1      34.637 -13.894 -20.561  0.00  0.00    +0.142 HD
ATOM     13  H   UNL     1      34.002 -12.856 -21.756  0.00  0.00    +0.142 HD
ENDBRANCH   7  11
BRANCH   9  15
ATOM     14  N   UNL     1      33.453 -12.208 -24.640  0.00  0.00    -0.195 NA
ATOM     15  C   UNL     1      33.789 -13.251 -24.263  0.00  0.00    +0.089 C 
ENDBRANCH   9  15
BRANCH   8  16
ATOM     16  O   UNL     1      34.083 -15.430 -26.009  0.00  0.00    -0.454 OA
BRANCH  16  17
ATOM     17  C   UNL     1      32.718 -15.273 -26.379  0.00  0.00    +0.208 C 
ATOM     18  C   UNL     1      32.605 -14.133 -27.370  0.00  0.00    +0.051 C 
ENDBRANCH  16  17
ENDBRANCH   8  16
BRANCH   4  19
ATOM     19  C   UNL     1      36.104 -20.164 -21.222  0.00  0.00    +0.115 C 
BRANCH  19  21
ATOM     20 BR   UNL     1      33.495 -23.355 -16.621  0.00  0.00    -0.046 Br
ATOM     21  C   UNL     1      35.468 -20.934 -20.112  0.00  0.00    +0.024 C 
ATOM     22  C   UNL     1      34.085 -21.100 -20.061  0.00  0.00    +0.136 C 
ATOM     23  C   UNL     1      36.275 -21.490 -19.120  0.00  0.00    +0.037 C 
ATOM     24  C   UNL     1      35.697 -22.213 -18.076  0.00  0.00    +0.145 C 
ATOM     25  C   UNL     1      33.507 -21.823 -19.017  0.00  0.00    +0.046 C 
ATOM     26  C   UNL     1      34.313 -22.379 -18.025  0.00  0.00    +0.071 C 
BRANCH  22  27
ATOM     27  O   UNL     1      33.282 -20.562 -21.022  0.00  0.00    -0.472 OA
ATOM     28  C   UNL     1      32.349 -19.568 -20.604  0.00  0.00    +0.252 C 
ENDBRANCH  22  27
BRANCH  24  29
ATOM     29  O   UNL     1      36.513 -22.744 -17.121  0.00  0.00    -0.471 OA
ATOM     30  C   UNL     1      37.268 -21.827 -16.333  0.00  0.00    +0.252 C 
ENDBRANCH  24  29
ENDBRANCH  19  21
ENDBRANCH   4  19
TORSDOF 8
ENDMDL
