MODEL 1
REMARK VINA RESULT:      -7.6      0.000      0.000
REMARK  Name = 68780
REMARK  10 active torsions:
REMARK  status: ('A' for Active; 'I' for Inactive)
REMARK    1  A    between atoms: C_2  and  C_11
REMARK    2  A    between atoms: C_3  and  C_17
REMARK    3  A    between atoms: C_4  and  O_6
REMARK    4  A    between atoms: C_5  and  O_8
REMARK    5  A    between atoms: C_11  and  O_12
REMARK    6  A    between atoms: O_12  and  C_13
REMARK    7  A    between atoms: C_13  and  C_14
REMARK    8  A    between atoms: C_17  and  O_18
REMARK    9  A    between atoms: O_18  and  C_19
REMARK   10  A    between atoms: C_19  and  C_20
REMARK                            x       y       z     vdW  Elec       q    Type
REMARK                         _______ _______ _______ _____ _____    ______ ____
ROOT
ATOM      1  S   UNL     1      33.767 -15.085 -22.578  0.00  0.00    -0.068 S 
ATOM      2  C   UNL     1      33.845 -15.250 -24.264  0.00  0.00    +0.142 A 
ATOM      3  C   UNL     1      34.707 -16.502 -22.375  0.00  0.00    +0.142 A 
ATOM      4  C   UNL     1      34.549 -16.328 -24.687  0.00  0.00    +0.181 A 
ATOM      5  C   UNL     1      35.059 -17.067 -23.582  0.00  0.00    +0.181 A 
ENDROOT
BRANCH   4   6
ATOM      6  O   UNL     1      34.733 -16.643 -25.982  0.00  0.00    -0.502 OA
ATOM      7  H   UNL     1      34.914 -17.529 -26.227  0.00  0.00    +0.292 HD
ENDBRANCH   4   6
BRANCH   5   8
ATOM      8  O   UNL     1      35.797 -18.188 -23.672  0.00  0.00    -0.502 OA
ATOM      9  H   UNL     1      36.664 -18.208 -23.317  0.00  0.00    +0.292 HD
ENDBRANCH   5   8
BRANCH   2  11
ATOM     10  O   UNL     1      32.644 -14.450 -26.169  0.00  0.00    -0.244 OA
ATOM     11  C   UNL     1      33.163 -14.241 -25.077  0.00  0.00    +0.350 C 
BRANCH  11  12
ATOM     12  O   UNL     1      33.175 -13.013 -24.461  0.00  0.00    -0.445 OA
BRANCH  12  13
ATOM     13  C   UNL     1      33.865 -11.973 -25.141  0.00  0.00    +0.209 C 
BRANCH  13  14
ATOM     14  C   UNL     1      34.008 -10.785 -24.203  0.00  0.00    +0.047 C 
ATOM     15  C   UNL     1      35.058  -9.803 -24.691  0.00  0.00    +0.004 C 
ENDBRANCH  13  14
ENDBRANCH  12  13
ENDBRANCH  11  12
ENDBRANCH   2  11
BRANCH   3  17
ATOM     16  O   UNL     1      35.094 -16.215 -20.035  0.00  0.00    -0.244 OA
ATOM     17  C   UNL     1      35.017 -16.935 -21.050  0.00  0.00    +0.350 C 
BRANCH  17  18
ATOM     18  O   UNL     1      35.238 -18.297 -20.985  0.00  0.00    -0.445 OA
BRANCH  18  19
ATOM     19  C   UNL     1      34.088 -19.146 -20.894  0.00  0.00    +0.209 C 
BRANCH  19  20
ATOM     20  C   UNL     1      34.510 -20.485 -20.308  0.00  0.00    +0.047 C 
ATOM     21  C   UNL     1      33.345 -21.204 -19.649  0.00  0.00    +0.004 C 
ENDBRANCH  19  20
ENDBRANCH  18  19
ENDBRANCH  17  18
ENDBRANCH   3  17
TORSDOF 10
ENDMDL
MODEL 2
REMARK VINA RESULT:      -7.6      8.699     12.373
REMARK  Name = 68780
REMARK  10 active torsions:
REMARK  status: ('A' for Active; 'I' for Inactive)
REMARK    1  A    between atoms: C_2  and  C_11
REMARK    2  A    between atoms: C_3  and  C_17
REMARK    3  A    between atoms: C_4  and  O_6
REMARK    4  A    between atoms: C_5  and  O_8
REMARK    5  A    between atoms: C_11  and  O_12
REMARK    6  A    between atoms: O_12  and  C_13
REMARK    7  A    between atoms: C_13  and  C_14
REMARK    8  A    between atoms: C_17  and  O_18
REMARK    9  A    between atoms: O_18  and  C_19
REMARK   10  A    between atoms: C_19  and  C_20
REMARK                            x       y       z     vdW  Elec       q    Type
REMARK                         _______ _______ _______ _____ _____    ______ ____
ROOT
ATOM      1  S   UNL     1      35.897 -23.100 -14.560  0.00  0.00    -0.068 S 
ATOM      2  C   UNL     1      34.326 -23.739 -14.547  0.00  0.00    +0.142 A 
ATOM      3  C   UNL     1      36.158 -23.652 -12.961  0.00  0.00    +0.142 A 
ATOM      4  C   UNL     1      33.985 -24.354 -13.388  0.00  0.00    +0.181 A 
ATOM      5  C   UNL     1      35.057 -24.306 -12.452  0.00  0.00    +0.181 A 
ENDROOT
BRANCH   4   6
ATOM      6  O   UNL     1      32.788 -24.927 -13.168  0.00  0.00    -0.502 OA
ATOM      7  H   UNL     1      32.075 -24.414 -12.842  0.00  0.00    +0.292 HD
ENDBRANCH   4   6
BRANCH   5   8
ATOM      8  O   UNL     1      35.029 -24.827 -11.212  0.00  0.00    -0.502 OA
ATOM      9  H   UNL     1      35.712 -25.402 -10.929  0.00  0.00    +0.292 HD
ENDBRANCH   5   8
BRANCH   2  11
ATOM     10  O   UNL     1      32.290 -23.639 -15.793  0.00  0.00    -0.244 OA
ATOM     11  C   UNL     1      33.514 -23.572 -15.753  0.00  0.00    +0.350 C 
BRANCH  11  12
ATOM     12  O   UNL     1      34.300 -23.324 -16.852  0.00  0.00    -0.445 OA
BRANCH  12  13
ATOM     13  C   UNL     1      33.619 -22.968 -18.047  0.00  0.00    +0.209 C 
BRANCH  13  14
ATOM     14  C   UNL     1      34.560 -22.156 -18.925  0.00  0.00    +0.047 C 
ATOM     15  C   UNL     1      33.809 -21.153 -19.782  0.00  0.00    +0.004 C 
ENDBRANCH  13  14
ENDBRANCH  12  13
ENDBRANCH  11  12
ENDBRANCH   2  11
BRANCH   3  17
ATOM     16  O   UNL     1      37.613 -22.758 -11.289  0.00  0.00    -0.244 OA
ATOM     17  C   UNL     1      37.421 -23.395 -12.344  0.00  0.00    +0.350 C 
BRANCH  17  18
ATOM     18  O   UNL     1      38.470 -23.943 -13.056  0.00  0.00    -0.445 OA
BRANCH  18  19
ATOM     19  C   UNL     1      38.600 -25.369 -13.042  0.00  0.00    +0.209 C 
BRANCH  19  20
ATOM     20  C   UNL     1      38.915 -25.847 -14.451  0.00  0.00    +0.047 C 
ATOM     21  C   UNL     1      40.319 -25.455 -14.879  0.00  0.00    +0.004 C 
ENDBRANCH  19  20
ENDBRANCH  18  19
ENDBRANCH  17  18
ENDBRANCH   3  17
TORSDOF 10
ENDMDL
MODEL 3
REMARK VINA RESULT:      -7.5      9.170     13.349
REMARK  Name = 68780
REMARK  10 active torsions:
REMARK  status: ('A' for Active; 'I' for Inactive)
REMARK    1  A    between atoms: C_2  and  C_11
REMARK    2  A    between atoms: C_3  and  C_17
REMARK    3  A    between atoms: C_4  and  O_6
REMARK    4  A    between atoms: C_5  and  O_8
REMARK    5  A    between atoms: C_11  and  O_12
REMARK    6  A    between atoms: O_12  and  C_13
REMARK    7  A    between atoms: C_13  and  C_14
REMARK    8  A    between atoms: C_17  and  O_18
REMARK    9  A    between atoms: O_18  and  C_19
REMARK   10  A    between atoms: C_19  and  C_20
REMARK                            x       y       z     vdW  Elec       q    Type
REMARK                         _______ _______ _______ _____ _____    ______ ____
ROOT
ATOM      1  S   UNL     1      35.984 -23.029 -14.624  0.00  0.00    -0.068 S 
ATOM      2  C   UNL     1      36.148 -23.671 -13.063  0.00  0.00    +0.142 A 
ATOM      3  C   UNL     1      34.400 -23.668 -14.743  0.00  0.00    +0.142 A 
ATOM      4  C   UNL     1      35.060 -24.349 -12.622  0.00  0.00    +0.181 A 
ATOM      5  C   UNL     1      34.030 -24.351 -13.604  0.00  0.00    +0.181 A 
ENDROOT
BRANCH   4   6
ATOM      6  O   UNL     1      34.982 -24.936 -11.414  0.00  0.00    -0.502 OA
ATOM      7  H   UNL     1      34.676 -24.449 -10.675  0.00  0.00    +0.292 HD
ENDBRANCH   4   6
BRANCH   5   8
ATOM      8  O   UNL     1      32.828 -24.940 -13.468  0.00  0.00    -0.502 OA
ATOM      9  H   UNL     1      32.046 -24.458 -13.652  0.00  0.00    +0.292 HD
ENDBRANCH   5   8
BRANCH   2  11
ATOM     10  O   UNL     1      37.525 -22.857 -11.288  0.00  0.00    -0.244 OA
ATOM     11  C   UNL     1      37.412 -23.438 -12.362  0.00  0.00    +0.350 C 
BRANCH  11  12
ATOM     12  O   UNL     1      38.473 -23.957 -13.063  0.00  0.00    -0.445 OA
BRANCH  12  13
ATOM     13  C   UNL     1      38.608 -25.371 -13.048  0.00  0.00    +0.209 C 
BRANCH  13  14
ATOM     14  C   UNL     1      38.872 -25.855 -14.465  0.00  0.00    +0.047 C 
ATOM     15  C   UNL     1      40.260 -25.468 -14.945  0.00  0.00    +0.004 C 
ENDBRANCH  13  14
ENDBRANCH  12  13
ENDBRANCH  11  12
ENDBRANCH   2  11
BRANCH   3  17
ATOM     16  O   UNL     1      32.416 -23.449 -16.057  0.00  0.00    -0.244 OA
ATOM     17  C   UNL     1      33.658 -23.445 -15.943  0.00  0.00    +0.350 C 
BRANCH  17  18
ATOM     18  O   UNL     1      34.480 -23.210 -17.029  0.00  0.00    -0.445 OA
BRANCH  18  19
ATOM     19  C   UNL     1      33.863 -22.727 -18.228  0.00  0.00    +0.209 C 
BRANCH  19  20
ATOM     20  C   UNL     1      34.918 -22.041 -19.081  0.00  0.00    +0.047 C 
ATOM     21  C   UNL     1      36.192 -21.776 -18.298  0.00  0.00    +0.004 C 
ENDBRANCH  19  20
ENDBRANCH  18  19
ENDBRANCH  17  18
ENDBRANCH   3  17
TORSDOF 10
ENDMDL
MODEL 4
REMARK VINA RESULT:      -7.4      0.873      7.023
REMARK  Name = 68780
REMARK  10 active torsions:
REMARK  status: ('A' for Active; 'I' for Inactive)
REMARK    1  A    between atoms: C_2  and  C_11
REMARK    2  A    between atoms: C_3  and  C_17
REMARK    3  A    between atoms: C_4  and  O_6
REMARK    4  A    between atoms: C_5  and  O_8
REMARK    5  A    between atoms: C_11  and  O_12
REMARK    6  A    between atoms: O_12  and  C_13
REMARK    7  A    between atoms: C_13  and  C_14
REMARK    8  A    between atoms: C_17  and  O_18
REMARK    9  A    between atoms: O_18  and  C_19
REMARK   10  A    between atoms: C_19  and  C_20
REMARK                            x       y       z     vdW  Elec       q    Type
REMARK                         _______ _______ _______ _____ _____    ______ ____
ROOT
ATOM      1  S   UNL     1      34.380 -14.800 -22.506  0.00  0.00    -0.068 S 
ATOM      2  C   UNL     1      34.747 -16.447 -22.673  0.00  0.00    +0.142 A 
ATOM      3  C   UNL     1      33.996 -14.694 -24.171  0.00  0.00    +0.142 A 
ATOM      4  C   UNL     1      34.593 -16.927 -23.932  0.00  0.00    +0.181 A 
ATOM      5  C   UNL     1      34.153 -15.902 -24.816  0.00  0.00    +0.181 A 
ENDROOT
BRANCH   4   6
ATOM      6  O   UNL     1      34.831 -18.204 -24.281  0.00  0.00    -0.502 OA
ATOM      7  H   UNL     1      35.472 -18.399 -24.937  0.00  0.00    +0.292 HD
ENDBRANCH   4   6
BRANCH   5   8
ATOM      8  O   UNL     1      33.909 -16.061 -26.130  0.00  0.00    -0.502 OA
ATOM      9  H   UNL     1      33.046 -15.927 -26.467  0.00  0.00    +0.292 HD
ENDBRANCH   5   8
BRANCH   2  11
ATOM     10  O   UNL     1      35.226 -16.700 -20.346  0.00  0.00    -0.244 OA
ATOM     11  C   UNL     1      35.181 -17.171 -21.477  0.00  0.00    +0.350 C 
BRANCH  11  12
ATOM     12  O   UNL     1      35.537 -18.463 -21.780  0.00  0.00    -0.445 OA
BRANCH  12  13
ATOM     13  C   UNL     1      35.138 -19.461 -20.850  0.00  0.00    +0.209 C 
BRANCH  13  14
ATOM     14  C   UNL     1      33.671 -19.788 -21.080  0.00  0.00    +0.047 C 
ATOM     15  C   UNL     1      33.102 -20.648 -19.965  0.00  0.00    +0.004 C 
ENDBRANCH  13  14
ENDBRANCH  12  13
ENDBRANCH  11  12
ENDBRANCH   2  11
BRANCH   3  17
ATOM     16  O   UNL     1      33.058 -13.238 -25.817  0.00  0.00    -0.244 OA
ATOM     17  C   UNL     1      33.576 -13.435 -24.700  0.00  0.00    +0.350 C 
BRANCH  17  18
ATOM     18  O   UNL     1      33.804 -12.396 -23.818  0.00  0.00    -0.445 OA
BRANCH  18  19
ATOM     19  C   UNL     1      33.517 -11.070 -24.278  0.00  0.00    +0.209 C 
BRANCH  19  20
ATOM     20  C   UNL     1      34.819 -10.287 -24.361  0.00  0.00    +0.047 C 
ATOM     21  C   UNL     1      35.418 -10.336 -25.756  0.00  0.00    +0.004 C 
ENDBRANCH  19  20
ENDBRANCH  18  19
ENDBRANCH  17  18
ENDBRANCH   3  17
TORSDOF 10
ENDMDL
MODEL 5
REMARK VINA RESULT:      -7.4      1.081      2.083
REMARK  Name = 68780
REMARK  10 active torsions:
REMARK  status: ('A' for Active; 'I' for Inactive)
REMARK    1  A    between atoms: C_2  and  C_11
REMARK    2  A    between atoms: C_3  and  C_17
REMARK    3  A    between atoms: C_4  and  O_6
REMARK    4  A    between atoms: C_5  and  O_8
REMARK    5  A    between atoms: C_11  and  O_12
REMARK    6  A    between atoms: O_12  and  C_13
REMARK    7  A    between atoms: C_13  and  C_14
REMARK    8  A    between atoms: C_17  and  O_18
REMARK    9  A    between atoms: O_18  and  C_19
REMARK   10  A    between atoms: C_19  and  C_20
REMARK                            x       y       z     vdW  Elec       q    Type
REMARK                         _______ _______ _______ _____ _____    ______ ____
ROOT
ATOM      1  S   UNL     1      34.426 -15.141 -22.549  0.00  0.00    -0.068 S 
ATOM      2  C   UNL     1      33.701 -14.267 -23.809  0.00  0.00    +0.142 A 
ATOM      3  C   UNL     1      34.576 -16.515 -23.560  0.00  0.00    +0.142 A 
ATOM      4  C   UNL     1      33.565 -14.963 -24.964  0.00  0.00    +0.181 A 
ATOM      5  C   UNL     1      34.077 -16.284 -24.824  0.00  0.00    +0.181 A 
ENDROOT
BRANCH   4   6
ATOM      6  O   UNL     1      33.016 -14.458 -26.083  0.00  0.00    -0.502 OA
ATOM      7  H   UNL     1      32.380 -13.772 -26.026  0.00  0.00    +0.292 HD
ENDBRANCH   4   6
BRANCH   5   8
ATOM      8  O   UNL     1      34.086 -17.219 -25.792  0.00  0.00    -0.502 OA
ATOM      9  H   UNL     1      33.665 -18.044 -25.650  0.00  0.00    +0.292 HD
ENDBRANCH   5   8
BRANCH   2  11
ATOM     10  O   UNL     1      32.484 -12.541 -22.691  0.00  0.00    -0.244 OA
ATOM     11  C   UNL     1      33.305 -12.884 -23.535  0.00  0.00    +0.350 C 
BRANCH  11  12
ATOM     12  O   UNL     1      33.973 -12.004 -24.351  0.00  0.00    -0.445 OA
BRANCH  12  13
ATOM     13  C   UNL     1      33.744 -10.623 -24.110  0.00  0.00    +0.209 C 
BRANCH  13  14
ATOM     14  C   UNL     1      34.962  -9.836 -24.567  0.00  0.00    +0.047 C 
ATOM     15  C   UNL     1      35.503 -10.350 -25.889  0.00  0.00    +0.004 C 
ENDBRANCH  13  14
ENDBRANCH  12  13
ENDBRANCH  11  12
ENDBRANCH   2  11
BRANCH   3  17
ATOM     16  O   UNL     1      35.670 -18.635 -23.679  0.00  0.00    -0.244 OA
ATOM     17  C   UNL     1      35.169 -17.699 -23.026  0.00  0.00    +0.350 C 
BRANCH  17  18
ATOM     18  O   UNL     1      35.140 -17.719 -21.645  0.00  0.00    -0.445 OA
BRANCH  18  19
ATOM     19  C   UNL     1      35.018 -18.997 -21.010  0.00  0.00    +0.209 C 
BRANCH  19  20
ATOM     20  C   UNL     1      33.558 -19.424 -21.042  0.00  0.00    +0.047 C 
ATOM     21  C   UNL     1      33.297 -20.612 -20.132  0.00  0.00    +0.004 C 
ENDBRANCH  19  20
ENDBRANCH  18  19
ENDBRANCH  17  18
ENDBRANCH   3  17
TORSDOF 10
ENDMDL
MODEL 6
REMARK VINA RESULT:      -7.4      1.293      2.155
REMARK  Name = 68780
REMARK  10 active torsions:
REMARK  status: ('A' for Active; 'I' for Inactive)
REMARK    1  A    between atoms: C_2  and  C_11
REMARK    2  A    between atoms: C_3  and  C_17
REMARK    3  A    between atoms: C_4  and  O_6
REMARK    4  A    between atoms: C_5  and  O_8
REMARK    5  A    between atoms: C_11  and  O_12
REMARK    6  A    between atoms: O_12  and  C_13
REMARK    7  A    between atoms: C_13  and  C_14
REMARK    8  A    between atoms: C_17  and  O_18
REMARK    9  A    between atoms: O_18  and  C_19
REMARK   10  A    between atoms: C_19  and  C_20
REMARK                            x       y       z     vdW  Elec       q    Type
REMARK                         _______ _______ _______ _____ _____    ______ ____
ROOT
ATOM      1  S   UNL     1      34.540 -16.237 -23.994  0.00  0.00    -0.068 S 
ATOM      2  C   UNL     1      33.482 -14.949 -24.302  0.00  0.00    +0.142 A 
ATOM      3  C   UNL     1      34.225 -16.123 -22.315  0.00  0.00    +0.142 A 
ATOM      4  C   UNL     1      32.897 -14.431 -23.195  0.00  0.00    +0.181 A 
ATOM      5  C   UNL     1      33.330 -15.116 -22.024  0.00  0.00    +0.181 A 
ENDROOT
BRANCH   4   6
ATOM      6  O   UNL     1      32.027 -13.405 -23.216  0.00  0.00    -0.502 OA
ATOM      7  H   UNL     1      31.175 -13.521 -23.588  0.00  0.00    +0.292 HD
ENDBRANCH   4   6
BRANCH   5   8
ATOM      8  O   UNL     1      32.931 -14.838 -20.769  0.00  0.00    -0.502 OA
ATOM      9  H   UNL     1      33.141 -15.425 -20.070  0.00  0.00    +0.292 HD
ENDBRANCH   5   8
BRANCH   2  11
ATOM     10  O   UNL     1      33.499 -15.245 -26.673  0.00  0.00    -0.244 OA
ATOM     11  C   UNL     1      33.307 -14.531 -25.695  0.00  0.00    +0.350 C 
BRANCH  11  12
ATOM     12  O   UNL     1      32.895 -13.223 -25.774  0.00  0.00    -0.445 OA
BRANCH  12  13
ATOM     13  C   UNL     1      33.838 -12.296 -26.294  0.00  0.00    +0.209 C 
BRANCH  13  14
ATOM     14  C   UNL     1      34.207 -11.305 -25.201  0.00  0.00    +0.047 C 
ATOM     15  C   UNL     1      35.336 -10.385 -25.630  0.00  0.00    +0.004 C 
ENDBRANCH  13  14
ENDBRANCH  12  13
ENDBRANCH  11  12
ENDBRANCH   2  11
BRANCH   3  17
ATOM     16  O   UNL     1      35.335 -16.763 -20.299  0.00  0.00    -0.244 OA
ATOM     17  C   UNL     1      34.884 -17.030 -21.430  0.00  0.00    +0.350 C 
BRANCH  17  18
ATOM     18  O   UNL     1      34.984 -18.300 -21.964  0.00  0.00    -0.445 OA
BRANCH  18  19
ATOM     19  C   UNL     1      34.881 -19.404 -21.057  0.00  0.00    +0.209 C 
BRANCH  19  20
ATOM     20  C   UNL     1      33.410 -19.736 -20.852  0.00  0.00    +0.047 C 
ATOM     21  C   UNL     1      33.223 -20.896 -19.890  0.00  0.00    +0.004 C 
ENDBRANCH  19  20
ENDBRANCH  18  19
ENDBRANCH  17  18
ENDBRANCH   3  17
TORSDOF 10
ENDMDL
MODEL 7
REMARK VINA RESULT:      -7.3      2.191      6.388
REMARK  Name = 68780
REMARK  10 active torsions:
REMARK  status: ('A' for Active; 'I' for Inactive)
REMARK    1  A    between atoms: C_2  and  C_11
REMARK    2  A    between atoms: C_3  and  C_17
REMARK    3  A    between atoms: C_4  and  O_6
REMARK    4  A    between atoms: C_5  and  O_8
REMARK    5  A    between atoms: C_11  and  O_12
REMARK    6  A    between atoms: O_12  and  C_13
REMARK    7  A    between atoms: C_13  and  C_14
REMARK    8  A    between atoms: C_17  and  O_18
REMARK    9  A    between atoms: O_18  and  C_19
REMARK   10  A    between atoms: C_19  and  C_20
REMARK                            x       y       z     vdW  Elec       q    Type
REMARK                         _______ _______ _______ _____ _____    ______ ____
ROOT
ATOM      1  S   UNL     1      34.169 -15.326 -22.341  0.00  0.00    -0.068 S 
ATOM      2  C   UNL     1      34.530 -16.486 -23.524  0.00  0.00    +0.142 A 
ATOM      3  C   UNL     1      33.479 -14.300 -23.526  0.00  0.00    +0.142 A 
ATOM      4  C   UNL     1      34.155 -16.138 -24.779  0.00  0.00    +0.181 A 
ATOM      5  C   UNL     1      33.536 -14.855 -24.787  0.00  0.00    +0.181 A 
ENDROOT
BRANCH   4   6
ATOM      6  O   UNL     1      34.348 -16.912 -25.862  0.00  0.00    -0.502 OA
ATOM      7  H   UNL     1      34.766 -16.559 -26.622  0.00  0.00    +0.292 HD
ENDBRANCH   4   6
BRANCH   5   8
ATOM      8  O   UNL     1      33.056 -14.231 -25.878  0.00  0.00    -0.502 OA
ATOM      9  H   UNL     1      32.384 -13.585 -25.791  0.00  0.00    +0.292 HD
ENDBRANCH   5   8
BRANCH   2  11
ATOM     10  O   UNL     1      35.598 -18.601 -23.836  0.00  0.00    -0.244 OA
ATOM     11  C   UNL     1      35.194 -17.716 -23.089  0.00  0.00    +0.350 C 
BRANCH  11  12
ATOM     12  O   UNL     1      35.312 -17.761 -21.721  0.00  0.00    -0.445 OA
BRANCH  12  13
ATOM     13  C   UNL     1      35.088 -19.024 -21.109  0.00  0.00    +0.209 C 
BRANCH  13  14
ATOM     14  C   UNL     1      33.590 -19.273 -21.031  0.00  0.00    +0.047 C 
ATOM     15  C   UNL     1      33.265 -20.516 -20.222  0.00  0.00    +0.004 C 
ENDBRANCH  13  14
ENDBRANCH  12  13
ENDBRANCH  11  12
ENDBRANCH   2  11
BRANCH   3  17
ATOM     16  O   UNL     1      33.172 -11.934 -23.641  0.00  0.00    -0.244 OA
ATOM     17  C   UNL     1      32.943 -13.042 -23.117  0.00  0.00    +0.350 C 
BRANCH  17  18
ATOM     18  O   UNL     1      32.101 -13.162 -22.028  0.00  0.00    -0.445 OA
BRANCH  18  19
ATOM     19  C   UNL     1      31.496 -11.964 -21.530  0.00  0.00    +0.209 C 
BRANCH  19  20
ATOM     20  C   UNL     1      31.745 -11.874 -20.032  0.00  0.00    +0.047 C 
ATOM     21  C   UNL     1      31.167 -10.599 -19.440  0.00  0.00    +0.004 C 
ENDBRANCH  19  20
ENDBRANCH  18  19
ENDBRANCH  17  18
ENDBRANCH   3  17
TORSDOF 10
ENDMDL
MODEL 8
REMARK VINA RESULT:      -7.3      1.132      6.950
REMARK  Name = 68780
REMARK  10 active torsions:
REMARK  status: ('A' for Active; 'I' for Inactive)
REMARK    1  A    between atoms: C_2  and  C_11
REMARK    2  A    between atoms: C_3  and  C_17
REMARK    3  A    between atoms: C_4  and  O_6
REMARK    4  A    between atoms: C_5  and  O_8
REMARK    5  A    between atoms: C_11  and  O_12
REMARK    6  A    between atoms: O_12  and  C_13
REMARK    7  A    between atoms: C_13  and  C_14
REMARK    8  A    between atoms: C_17  and  O_18
REMARK    9  A    between atoms: O_18  and  C_19
REMARK   10  A    between atoms: C_19  and  C_20
REMARK                            x       y       z     vdW  Elec       q    Type
REMARK                         _______ _______ _______ _____ _____    ______ ____
ROOT
ATOM      1  S   UNL     1      34.157 -15.333 -22.511  0.00  0.00    -0.068 S 
ATOM      2  C   UNL     1      34.474 -16.600 -23.593  0.00  0.00    +0.142 A 
ATOM      3  C   UNL     1      33.641 -14.332 -23.800  0.00  0.00    +0.142 A 
ATOM      4  C   UNL     1      34.208 -16.305 -24.889  0.00  0.00    +0.181 A 
ATOM      5  C   UNL     1      33.719 -14.974 -25.018  0.00  0.00    +0.181 A 
ENDROOT
BRANCH   4   6
ATOM      6  O   UNL     1      34.389 -17.166 -25.906  0.00  0.00    -0.502 OA
ATOM      7  H   UNL     1      33.655 -17.614 -26.278  0.00  0.00    +0.292 HD
ENDBRANCH   4   6
BRANCH   5   8
ATOM      8  O   UNL     1      33.366 -14.385 -26.175  0.00  0.00    -0.502 OA
ATOM      9  H   UNL     1      33.301 -14.893 -26.959  0.00  0.00    +0.292 HD
ENDBRANCH   5   8
BRANCH   2  11
ATOM     10  O   UNL     1      35.590 -18.711 -23.678  0.00  0.00    -0.244 OA
ATOM     11  C   UNL     1      34.988 -17.854 -23.039  0.00  0.00    +0.350 C 
BRANCH  11  12
ATOM     12  O   UNL     1      34.713 -17.956 -21.697  0.00  0.00    -0.445 OA
BRANCH  12  13
ATOM     13  C   UNL     1      34.713 -19.267 -21.151  0.00  0.00    +0.209 C 
BRANCH  13  14
ATOM     14  C   UNL     1      33.285 -19.651 -20.796  0.00  0.00    +0.047 C 
ATOM     15  C   UNL     1      33.236 -20.868 -19.889  0.00  0.00    +0.004 C 
ENDBRANCH  13  14
ENDBRANCH  12  13
ENDBRANCH  11  12
ENDBRANCH   2  11
BRANCH   3  17
ATOM     16  O   UNL     1      32.342 -12.677 -22.668  0.00  0.00    -0.244 OA
ATOM     17  C   UNL     1      33.206 -13.004 -23.506  0.00  0.00    +0.350 C 
BRANCH  17  18
ATOM     18  O   UNL     1      33.860 -12.058 -24.272  0.00  0.00    -0.445 OA
BRANCH  18  19
ATOM     19  C   UNL     1      33.561 -10.682 -24.013  0.00  0.00    +0.209 C 
BRANCH  19  20
ATOM     20  C   UNL     1      34.764  -9.836 -24.403  0.00  0.00    +0.047 C 
ATOM     21  C   UNL     1      35.413 -10.334 -25.683  0.00  0.00    +0.004 C 
ENDBRANCH  19  20
ENDBRANCH  18  19
ENDBRANCH  17  18
ENDBRANCH   3  17
TORSDOF 10
ENDMDL
MODEL 9
REMARK VINA RESULT:      -7.3     10.879     13.646
REMARK  Name = 68780
REMARK  10 active torsions:
REMARK  status: ('A' for Active; 'I' for Inactive)
REMARK    1  A    between atoms: C_2  and  C_11
REMARK    2  A    between atoms: C_3  and  C_17
REMARK    3  A    between atoms: C_4  and  O_6
REMARK    4  A    between atoms: C_5  and  O_8
REMARK    5  A    between atoms: C_11  and  O_12
REMARK    6  A    between atoms: O_12  and  C_13
REMARK    7  A    between atoms: C_13  and  C_14
REMARK    8  A    between atoms: C_17  and  O_18
REMARK    9  A    between atoms: O_18  and  C_19
REMARK   10  A    between atoms: C_19  and  C_20
REMARK                            x       y       z     vdW  Elec       q    Type
REMARK                         _______ _______ _______ _____ _____    ______ ____
ROOT
ATOM      1  S   UNL     1      35.995 -23.160 -14.555  0.00  0.00    -0.068 S 
ATOM      2  C   UNL     1      36.172 -23.675 -12.949  0.00  0.00    +0.142 A 
ATOM      3  C   UNL     1      34.412 -23.811 -14.611  0.00  0.00    +0.142 A 
ATOM      4  C   UNL     1      35.090 -24.319 -12.447  0.00  0.00    +0.181 A 
ATOM      5  C   UNL     1      34.053 -24.402 -13.419  0.00  0.00    +0.181 A 
ENDROOT
BRANCH   4   6
ATOM      6  O   UNL     1      35.022 -24.809 -11.196  0.00  0.00    -0.502 OA
ATOM      7  H   UNL     1      34.420 -25.498 -10.995  0.00  0.00    +0.292 HD
ENDBRANCH   4   6
BRANCH   5   8
ATOM      8  O   UNL     1      32.854 -24.982 -13.227  0.00  0.00    -0.502 OA
ATOM      9  H   UNL     1      32.154 -24.495 -12.839  0.00  0.00    +0.292 HD
ENDBRANCH   5   8
BRANCH   2  11
ATOM     10  O   UNL     1      37.554 -22.764 -11.226  0.00  0.00    -0.244 OA
ATOM     11  C   UNL     1      37.440 -23.384 -12.278  0.00  0.00    +0.350 C 
BRANCH  11  12
ATOM     12  O   UNL     1      38.504 -23.896 -12.980  0.00  0.00    -0.445 OA
BRANCH  12  13
ATOM     13  C   UNL     1      38.666 -25.307 -12.937  0.00  0.00    +0.209 C 
BRANCH  13  14
ATOM     14  C   UNL     1      38.942 -25.812 -14.345  0.00  0.00    +0.047 C 
ATOM     15  C   UNL     1      40.319 -25.401 -14.833  0.00  0.00    +0.004 C 
ENDBRANCH  13  14
ENDBRANCH  12  13
ENDBRANCH  11  12
ENDBRANCH   2  11
BRANCH   3  17
ATOM     16  O   UNL     1      34.112 -23.384 -16.943  0.00  0.00    -0.244 OA
ATOM     17  C   UNL     1      33.662 -23.686 -15.820  0.00  0.00    +0.350 C 
BRANCH  17  18
ATOM     18  O   UNL     1      32.318 -23.943 -15.629  0.00  0.00    -0.445 OA
BRANCH  18  19
ATOM     19  C   UNL     1      31.387 -22.972 -16.119  0.00  0.00    +0.209 C 
BRANCH  19  20
ATOM     20  C   UNL     1      30.261 -22.815 -15.108  0.00  0.00    +0.047 C 
ATOM     21  C   UNL     1      28.913 -22.648 -15.787  0.00  0.00    +0.004 C 
ENDBRANCH  19  20
ENDBRANCH  18  19
ENDBRANCH  17  18
ENDBRANCH   3  17
TORSDOF 10
ENDMDL
