MODEL 1
REMARK VINA RESULT:      -8.6      0.000      0.000
REMARK  Name = 68760
REMARK  4 active torsions:
REMARK  status: ('A' for Active; 'I' for Inactive)
REMARK    1  A    between atoms: C_1  and  C_6
REMARK    2  A    between atoms: C_1  and  C_15
REMARK    3  A    between atoms: C_18  and  O_21
REMARK    4  A    between atoms: C_19  and  O_23
REMARK                            x       y       z     vdW  Elec       q    Type
REMARK                         _______ _______ _______ _____ _____    ______ ____
ROOT
ATOM      1  C   UNL     1      35.741 -18.900 -22.250  0.00  0.00    +0.058 C 
ENDROOT
BRANCH   1   6
ATOM      2  N   UNL     1      34.759 -21.226 -19.438  0.00  0.00    -0.323 NA
ATOM      3  N   UNL     1      32.772 -20.482 -20.580  0.00  0.00    -0.170 NA
ATOM      4  N   UNL     1      36.895 -20.480 -20.147  0.00  0.00    -0.332 N 
ATOM      5  N   UNL     1      32.634 -21.949 -18.754  0.00  0.00    -0.293 N 
ATOM      6  C   UNL     1      34.920 -19.736 -21.288  0.00  0.00    +0.047 C 
ATOM      7  C   UNL     1      35.487 -20.480 -20.295  0.00  0.00    +0.188 C 
ATOM      8  C   UNL     1      33.561 -19.759 -21.402  0.00  0.00    +0.112 C 
ATOM      9  C   UNL     1      33.427 -21.181 -19.634  0.00  0.00    +0.143 C 
ATOM     10  H   UNL     1      37.315 -21.014 -19.435  0.00  0.00    +0.145 HD
ATOM     11  H   UNL     1      37.454 -19.946 -20.758  0.00  0.00    +0.145 HD
ATOM     12  H   UNL     1      33.061 -22.481 -18.043  0.00  0.00    +0.155 HD
ATOM     13  H   UNL     1      31.655 -21.954 -18.851  0.00  0.00    +0.155 HD
ENDBRANCH   1   6
BRANCH   1  15
ATOM     14 BR   UNL     1      33.323 -13.332 -23.426  0.00  0.00    -0.043 Br
ATOM     15  C   UNL     1      35.158 -17.557 -22.533  0.00  0.00    -0.012 C 
ATOM     16  C   UNL     1      34.987 -17.135 -23.852  0.00  0.00    +0.034 C 
ATOM     17  C   UNL     1      34.785 -16.723 -21.480  0.00  0.00    +0.034 C 
ATOM     18  C   UNL     1      34.239 -15.466 -21.746  0.00  0.00    +0.147 C 
ATOM     19  C   UNL     1      34.442 -15.880 -24.118  0.00  0.00    +0.147 C 
ATOM     20  C   UNL     1      34.068 -15.045 -23.064  0.00  0.00    +0.102 C 
BRANCH  18  21
ATOM     21  O   UNL     1      33.885 -14.677 -20.692  0.00  0.00    -0.471 OA
ATOM     22  C   UNL     1      32.609 -14.920 -20.102  0.00  0.00    +0.252 C 
ENDBRANCH  18  21
BRANCH  19  23
ATOM     23  O   UNL     1      34.288 -15.501 -25.418  0.00  0.00    -0.471 OA
ATOM     24  C   UNL     1      33.046 -15.816 -26.041  0.00  0.00    +0.252 C 
ENDBRANCH  19  23
ENDBRANCH   1  15
TORSDOF 4
ENDMDL
MODEL 2
REMARK VINA RESULT:      -8.6      0.023      2.669
REMARK  Name = 68760
REMARK  4 active torsions:
REMARK  status: ('A' for Active; 'I' for Inactive)
REMARK    1  A    between atoms: C_1  and  C_6
REMARK    2  A    between atoms: C_1  and  C_15
REMARK    3  A    between atoms: C_18  and  O_21
REMARK    4  A    between atoms: C_19  and  O_23
REMARK                            x       y       z     vdW  Elec       q    Type
REMARK                         _______ _______ _______ _____ _____    ______ ____
ROOT
ATOM      1  C   UNL     1      35.734 -18.912 -22.252  0.00  0.00    +0.058 C 
ENDROOT
BRANCH   1   6
ATOM      2  N   UNL     1      34.755 -21.229 -19.433  0.00  0.00    -0.323 NA
ATOM      3  N   UNL     1      32.768 -20.504 -20.587  0.00  0.00    -0.170 NA
ATOM      4  N   UNL     1      36.890 -20.473 -20.136  0.00  0.00    -0.332 N 
ATOM      5  N   UNL     1      32.632 -21.963 -18.754  0.00  0.00    -0.293 N 
ATOM      6  C   UNL     1      34.915 -19.747 -21.290  0.00  0.00    +0.047 C 
ATOM      7  C   UNL     1      35.481 -20.483 -20.290  0.00  0.00    +0.188 C 
ATOM      8  C   UNL     1      33.556 -19.781 -21.410  0.00  0.00    +0.112 C 
ATOM      9  C   UNL     1      33.424 -21.194 -19.635  0.00  0.00    +0.143 C 
ATOM     10  H   UNL     1      37.310 -21.000 -19.420  0.00  0.00    +0.145 HD
ATOM     11  H   UNL     1      37.448 -19.939 -20.747  0.00  0.00    +0.145 HD
ATOM     12  H   UNL     1      33.059 -22.488 -18.039  0.00  0.00    +0.155 HD
ATOM     13  H   UNL     1      31.653 -21.975 -18.856  0.00  0.00    +0.155 HD
ENDBRANCH   1   6
BRANCH   1  15
ATOM     14 BR   UNL     1      33.316 -13.343 -23.423  0.00  0.00    -0.043 Br
ATOM     15  C   UNL     1      35.151 -17.568 -22.535  0.00  0.00    -0.012 C 
ATOM     16  C   UNL     1      34.787 -16.730 -21.480  0.00  0.00    +0.034 C 
ATOM     17  C   UNL     1      34.968 -17.151 -23.852  0.00  0.00    +0.034 C 
ATOM     18  C   UNL     1      34.422 -15.894 -24.117  0.00  0.00    +0.147 C 
ATOM     19  C   UNL     1      34.241 -15.474 -21.744  0.00  0.00    +0.147 C 
ATOM     20  C   UNL     1      34.059 -15.056 -23.063  0.00  0.00    +0.102 C 
BRANCH  18  21
ATOM     21  O   UNL     1      34.258 -15.518 -25.417  0.00  0.00    -0.471 OA
ATOM     22  C   UNL     1      33.031 -15.881 -26.045  0.00  0.00    +0.252 C 
ENDBRANCH  18  21
BRANCH  19  23
ATOM     23  O   UNL     1      33.899 -14.681 -20.690  0.00  0.00    -0.471 OA
ATOM     24  C   UNL     1      32.624 -14.912 -20.094  0.00  0.00    +0.252 C 
ENDBRANCH  19  23
ENDBRANCH   1  15
TORSDOF 4
ENDMDL
MODEL 3
REMARK VINA RESULT:      -8.5      7.705      9.773
REMARK  Name = 68760
REMARK  4 active torsions:
REMARK  status: ('A' for Active; 'I' for Inactive)
REMARK    1  A    between atoms: C_1  and  C_6
REMARK    2  A    between atoms: C_1  and  C_15
REMARK    3  A    between atoms: C_18  and  O_21
REMARK    4  A    between atoms: C_19  and  O_23
REMARK                            x       y       z     vdW  Elec       q    Type
REMARK                         _______ _______ _______ _____ _____    ______ ____
ROOT
ATOM      1  C   UNL     1      35.404 -24.493 -13.793  0.00  0.00    +0.058 C 
ENDROOT
BRANCH   1   6
ATOM      2  N   UNL     1      38.381 -26.688 -14.567  0.00  0.00    -0.323 NA
ATOM      3  N   UNL     1      39.125 -24.747 -13.349  0.00  0.00    -0.170 NA
ATOM      4  N   UNL     1      36.084 -26.966 -15.087  0.00  0.00    -0.332 N 
ATOM      5  N   UNL     1      40.648 -26.392 -14.042  0.00  0.00    -0.293 N 
ATOM      6  C   UNL     1      36.819 -25.030 -13.875  0.00  0.00    +0.047 C 
ATOM      7  C   UNL     1      37.123 -26.207 -14.494  0.00  0.00    +0.188 C 
ATOM      8  C   UNL     1      37.844 -24.325 -13.313  0.00  0.00    +0.112 C 
ATOM      9  C   UNL     1      39.319 -25.919 -13.983  0.00  0.00    +0.143 C 
ATOM     10  H   UNL     1      36.291 -27.817 -15.535  0.00  0.00    +0.145 HD
ATOM     11  H   UNL     1      35.155 -26.641 -15.049  0.00  0.00    +0.145 HD
ATOM     12  H   UNL     1      40.849 -27.244 -14.492  0.00  0.00    +0.155 HD
ATOM     13  H   UNL     1      41.375 -25.870 -13.631  0.00  0.00    +0.155 HD
ENDBRANCH   1   6
BRANCH   1  15
ATOM     14 BR   UNL     1      33.381 -21.945 -19.051  0.00  0.00    -0.043 Br
ATOM     15  C   UNL     1      34.917 -23.879 -15.062  0.00  0.00    -0.012 C 
ATOM     16  C   UNL     1      33.556 -23.908 -15.373  0.00  0.00    +0.034 C 
ATOM     17  C   UNL     1      35.819 -23.276 -15.937  0.00  0.00    +0.034 C 
ATOM     18  C   UNL     1      35.363 -22.701 -17.124  0.00  0.00    +0.147 C 
ATOM     19  C   UNL     1      33.100 -23.333 -16.558  0.00  0.00    +0.147 C 
ATOM     20  C   UNL     1      34.004 -22.729 -17.434  0.00  0.00    +0.102 C 
BRANCH  18  21
ATOM     21  O   UNL     1      36.274 -22.120 -17.955  0.00  0.00    -0.471 OA
ATOM     22  C   UNL     1      37.222 -21.237 -17.360  0.00  0.00    +0.252 C 
ENDBRANCH  18  21
BRANCH  19  23
ATOM     23  O   UNL     1      31.765 -23.378 -16.829  0.00  0.00    -0.471 OA
ATOM     24  C   UNL     1      30.877 -23.043 -15.765  0.00  0.00    +0.252 C 
ENDBRANCH  19  23
ENDBRANCH   1  15
TORSDOF 4
ENDMDL
MODEL 4
REMARK VINA RESULT:      -8.5      7.705      9.682
REMARK  Name = 68760
REMARK  4 active torsions:
REMARK  status: ('A' for Active; 'I' for Inactive)
REMARK    1  A    between atoms: C_1  and  C_6
REMARK    2  A    between atoms: C_1  and  C_15
REMARK    3  A    between atoms: C_18  and  O_21
REMARK    4  A    between atoms: C_19  and  O_23
REMARK                            x       y       z     vdW  Elec       q    Type
REMARK                         _______ _______ _______ _____ _____    ______ ____
ROOT
ATOM      1  C   UNL     1      35.402 -24.485 -13.780  0.00  0.00    +0.058 C 
ENDROOT
BRANCH   1   6
ATOM      2  N   UNL     1      38.365 -26.700 -14.547  0.00  0.00    -0.323 NA
ATOM      3  N   UNL     1      39.124 -24.748 -13.355  0.00  0.00    -0.170 NA
ATOM      4  N   UNL     1      36.065 -26.975 -15.050  0.00  0.00    -0.332 N 
ATOM      5  N   UNL     1      40.637 -26.407 -14.038  0.00  0.00    -0.293 N 
ATOM      6  C   UNL     1      36.814 -25.028 -13.864  0.00  0.00    +0.047 C 
ATOM      7  C   UNL     1      37.110 -26.213 -14.472  0.00  0.00    +0.188 C 
ATOM      8  C   UNL     1      37.845 -24.321 -13.316  0.00  0.00    +0.112 C 
ATOM      9  C   UNL     1      39.310 -25.928 -13.977  0.00  0.00    +0.143 C 
ATOM     10  H   UNL     1      36.266 -27.831 -15.491  0.00  0.00    +0.145 HD
ATOM     11  H   UNL     1      35.137 -26.646 -15.011  0.00  0.00    +0.145 HD
ATOM     12  H   UNL     1      40.832 -27.265 -14.481  0.00  0.00    +0.155 HD
ATOM     13  H   UNL     1      41.369 -25.884 -13.637  0.00  0.00    +0.155 HD
ENDBRANCH   1   6
BRANCH   1  15
ATOM     14 BR   UNL     1      33.375 -21.954 -19.045  0.00  0.00    -0.043 Br
ATOM     15  C   UNL     1      34.913 -23.874 -15.050  0.00  0.00    -0.012 C 
ATOM     16  C   UNL     1      35.816 -23.275 -15.929  0.00  0.00    +0.034 C 
ATOM     17  C   UNL     1      33.553 -23.901 -15.358  0.00  0.00    +0.034 C 
ATOM     18  C   UNL     1      33.096 -23.330 -16.547  0.00  0.00    +0.147 C 
ATOM     19  C   UNL     1      35.359 -22.704 -17.116  0.00  0.00    +0.147 C 
ATOM     20  C   UNL     1      33.998 -22.732 -17.425  0.00  0.00    +0.102 C 
BRANCH  18  21
ATOM     21  O   UNL     1      31.760 -23.376 -16.816  0.00  0.00    -0.471 OA
ATOM     22  C   UNL     1      30.872 -23.149 -15.723  0.00  0.00    +0.252 C 
ENDBRANCH  18  21
BRANCH  19  23
ATOM     23  O   UNL     1      36.269 -22.128 -17.951  0.00  0.00    -0.471 OA
ATOM     24  C   UNL     1      37.209 -21.231 -17.365  0.00  0.00    +0.252 C 
ENDBRANCH  19  23
ENDBRANCH   1  15
TORSDOF 4
ENDMDL
MODEL 5
REMARK VINA RESULT:      -8.4      4.974      6.477
REMARK  Name = 68760
REMARK  4 active torsions:
REMARK  status: ('A' for Active; 'I' for Inactive)
REMARK    1  A    between atoms: C_1  and  C_6
REMARK    2  A    between atoms: C_1  and  C_15
REMARK    3  A    between atoms: C_18  and  O_21
REMARK    4  A    between atoms: C_19  and  O_23
REMARK                            x       y       z     vdW  Elec       q    Type
REMARK                         _______ _______ _______ _____ _____    ______ ____
ROOT
ATOM      1  C   UNL     1      32.149 -13.068 -23.211  0.00  0.00    +0.058 C 
ENDROOT
BRANCH   1   6
ATOM      2  N   UNL     1      34.388 -15.877 -24.380  0.00  0.00    -0.323 NA
ATOM      3  N   UNL     1      34.749 -15.506 -22.027  0.00  0.00    -0.170 NA
ATOM      4  N   UNL     1      32.818 -14.560 -25.572  0.00  0.00    -0.332 N 
ATOM      5  N   UNL     1      35.937 -17.169 -23.180  0.00  0.00    -0.293 N 
ATOM      6  C   UNL     1      33.173 -14.185 -23.229  0.00  0.00    +0.047 C 
ATOM      7  C   UNL     1      33.478 -14.882 -24.361  0.00  0.00    +0.188 C 
ATOM      8  C   UNL     1      33.827 -14.523 -22.080  0.00  0.00    +0.112 C 
ATOM      9  C   UNL     1      34.977 -16.133 -23.196  0.00  0.00    +0.143 C 
ATOM     10  H   UNL     1      33.030 -15.056 -26.395  0.00  0.00    +0.145 HD
ATOM     11  H   UNL     1      32.148 -13.838 -25.590  0.00  0.00    +0.145 HD
ATOM     12  H   UNL     1      36.144 -17.662 -24.007  0.00  0.00    +0.155 HD
ATOM     13  H   UNL     1      36.399 -17.399 -22.342  0.00  0.00    +0.155 HD
ENDBRANCH   1   6
BRANCH   1  15
ATOM     14 BR   UNL     1      34.607  -7.406 -23.564  0.00  0.00    -0.043 Br
ATOM     15  C   UNL     1      32.742 -11.702 -23.295  0.00  0.00    -0.012 C 
ATOM     16  C   UNL     1      33.857 -11.475 -24.103  0.00  0.00    +0.034 C 
ATOM     17  C   UNL     1      32.182 -10.653 -22.568  0.00  0.00    +0.034 C 
ATOM     18  C   UNL     1      32.737  -9.374 -22.648  0.00  0.00    +0.147 C 
ATOM     19  C   UNL     1      34.411 -10.198 -24.182  0.00  0.00    +0.147 C 
ATOM     20  C   UNL     1      33.851  -9.147 -23.455  0.00  0.00    +0.102 C 
BRANCH  18  21
ATOM     21  O   UNL     1      32.163  -8.372 -21.923  0.00  0.00    -0.471 OA
ATOM     22  C   UNL     1      32.287  -8.448 -20.504  0.00  0.00    +0.252 C 
ENDBRANCH  18  21
BRANCH  19  23
ATOM     23  O   UNL     1      35.500 -10.012 -24.981  0.00  0.00    -0.471 OA
ATOM     24  C   UNL     1      35.444 -10.572 -26.292  0.00  0.00    +0.252 C 
ENDBRANCH  19  23
ENDBRANCH   1  15
TORSDOF 4
ENDMDL
MODEL 6
REMARK VINA RESULT:      -8.4      4.973      6.951
REMARK  Name = 68760
REMARK  4 active torsions:
REMARK  status: ('A' for Active; 'I' for Inactive)
REMARK    1  A    between atoms: C_1  and  C_6
REMARK    2  A    between atoms: C_1  and  C_15
REMARK    3  A    between atoms: C_18  and  O_21
REMARK    4  A    between atoms: C_19  and  O_23
REMARK                            x       y       z     vdW  Elec       q    Type
REMARK                         _______ _______ _______ _____ _____    ______ ____
ROOT
ATOM      1  C   UNL     1      32.160 -13.061 -23.188  0.00  0.00    +0.058 C 
ENDROOT
BRANCH   1   6
ATOM      2  N   UNL     1      34.381 -15.872 -24.390  0.00  0.00    -0.323 NA
ATOM      3  N   UNL     1      34.758 -15.517 -22.037  0.00  0.00    -0.170 NA
ATOM      4  N   UNL     1      32.808 -14.541 -25.563  0.00  0.00    -0.332 N 
ATOM      5  N   UNL     1      35.932 -17.176 -23.208  0.00  0.00    -0.293 N 
ATOM      6  C   UNL     1      33.180 -14.182 -23.220  0.00  0.00    +0.047 C 
ATOM      7  C   UNL     1      33.474 -14.873 -24.358  0.00  0.00    +0.188 C 
ATOM      8  C   UNL     1      33.840 -14.529 -22.077  0.00  0.00    +0.112 C 
ATOM      9  C   UNL     1      34.976 -16.137 -23.212  0.00  0.00    +0.143 C 
ATOM     10  H   UNL     1      33.011 -15.033 -26.390  0.00  0.00    +0.145 HD
ATOM     11  H   UNL     1      32.140 -13.816 -25.572  0.00  0.00    +0.145 HD
ATOM     12  H   UNL     1      36.132 -17.665 -24.040  0.00  0.00    +0.155 HD
ATOM     13  H   UNL     1      36.399 -17.414 -22.375  0.00  0.00    +0.155 HD
ENDBRANCH   1   6
BRANCH   1  15
ATOM     14 BR   UNL     1      34.629  -7.410 -23.638  0.00  0.00    -0.043 Br
ATOM     15  C   UNL     1      32.756 -11.698 -23.297  0.00  0.00    -0.012 C 
ATOM     16  C   UNL     1      32.211 -10.639 -22.570  0.00  0.00    +0.034 C 
ATOM     17  C   UNL     1      33.856 -11.482 -24.125  0.00  0.00    +0.034 C 
ATOM     18  C   UNL     1      34.414 -10.207 -24.227  0.00  0.00    +0.147 C 
ATOM     19  C   UNL     1      32.767  -9.364 -22.671  0.00  0.00    +0.147 C 
ATOM     20  C   UNL     1      33.869  -9.149 -23.500  0.00  0.00    +0.102 C 
BRANCH  18  21
ATOM     21  O   UNL     1      35.489 -10.033 -25.046  0.00  0.00    -0.471 OA
ATOM     22  C   UNL     1      35.433 -10.655 -26.328  0.00  0.00    +0.252 C 
ENDBRANCH  18  21
BRANCH  19  23
ATOM     23  O   UNL     1      32.211  -8.354 -21.946  0.00  0.00    -0.471 OA
ATOM     24  C   UNL     1      32.325  -8.435 -20.527  0.00  0.00    +0.252 C 
ENDBRANCH  19  23
ENDBRANCH   1  15
TORSDOF 4
ENDMDL
MODEL 7
REMARK VINA RESULT:      -8.2      7.263     10.031
REMARK  Name = 68760
REMARK  4 active torsions:
REMARK  status: ('A' for Active; 'I' for Inactive)
REMARK    1  A    between atoms: C_1  and  C_6
REMARK    2  A    between atoms: C_1  and  C_15
REMARK    3  A    between atoms: C_18  and  O_21
REMARK    4  A    between atoms: C_19  and  O_23
REMARK                            x       y       z     vdW  Elec       q    Type
REMARK                         _______ _______ _______ _____ _____    ______ ____
ROOT
ATOM      1  C   UNL     1      31.801 -24.316 -14.303  0.00  0.00    +0.058 C 
ENDROOT
BRANCH   1   6
ATOM      2  N   UNL     1      28.454 -24.221 -16.054  0.00  0.00    -0.323 NA
ATOM      3  N   UNL     1      29.827 -22.417 -16.872  0.00  0.00    -0.170 NA
ATOM      4  N   UNL     1      29.289 -25.704 -14.402  0.00  0.00    -0.332 N 
ATOM      5  N   UNL     1      27.650 -22.742 -17.688  0.00  0.00    -0.293 N 
ATOM      6  C   UNL     1      30.660 -23.909 -15.212  0.00  0.00    +0.047 C 
ATOM      7  C   UNL     1      29.473 -24.580 -15.245  0.00  0.00    +0.188 C 
ATOM      8  C   UNL     1      30.803 -22.832 -16.038  0.00  0.00    +0.112 C 
ATOM      9  C   UNL     1      28.696 -23.147 -16.829  0.00  0.00    +0.143 C 
ATOM     10  H   UNL     1      28.437 -26.196 -14.417  0.00  0.00    +0.145 HD
ATOM     11  H   UNL     1      30.014 -25.991 -13.800  0.00  0.00    +0.145 HD
ATOM     12  H   UNL     1      26.800 -23.239 -17.699  0.00  0.00    +0.155 HD
ATOM     13  H   UNL     1      27.772 -21.962 -18.277  0.00  0.00    +0.155 HD
ENDBRANCH   1   6
BRANCH   1  15
ATOM     14 BR   UNL     1      37.353 -22.398 -16.236  0.00  0.00    -0.043 Br
ATOM     15  C   UNL     1      33.140 -23.853 -14.770  0.00  0.00    -0.012 C 
ATOM     16  C   UNL     1      34.196 -23.744 -13.863  0.00  0.00    +0.034 C 
ATOM     17  C   UNL     1      33.337 -23.528 -16.111  0.00  0.00    +0.034 C 
ATOM     18  C   UNL     1      34.591 -23.095 -16.548  0.00  0.00    +0.147 C 
ATOM     19  C   UNL     1      35.448 -23.312 -14.299  0.00  0.00    +0.147 C 
ATOM     20  C   UNL     1      35.645 -22.987 -15.642  0.00  0.00    +0.102 C 
BRANCH  18  21
ATOM     21  O   UNL     1      34.747 -22.787 -17.866  0.00  0.00    -0.471 OA
ATOM     22  C   UNL     1      33.569 -22.446 -18.595  0.00  0.00    +0.252 C 
ENDBRANCH  18  21
BRANCH  19  23
ATOM     23  O   UNL     1      36.455 -23.219 -13.386  0.00  0.00    -0.471 OA
ATOM     24  C   UNL     1      36.128 -23.503 -12.028  0.00  0.00    +0.252 C 
ENDBRANCH  19  23
ENDBRANCH   1  15
TORSDOF 4
ENDMDL
MODEL 8
REMARK VINA RESULT:      -8.2      7.271      9.691
REMARK  Name = 68760
REMARK  4 active torsions:
REMARK  status: ('A' for Active; 'I' for Inactive)
REMARK    1  A    between atoms: C_1  and  C_6
REMARK    2  A    between atoms: C_1  and  C_15
REMARK    3  A    between atoms: C_18  and  O_21
REMARK    4  A    between atoms: C_19  and  O_23
REMARK                            x       y       z     vdW  Elec       q    Type
REMARK                         _______ _______ _______ _____ _____    ______ ____
ROOT
ATOM      1  C   UNL     1      31.829 -24.325 -14.297  0.00  0.00    +0.058 C 
ENDROOT
BRANCH   1   6
ATOM      2  N   UNL     1      28.478 -24.231 -16.041  0.00  0.00    -0.323 NA
ATOM      3  N   UNL     1      29.846 -22.422 -16.856  0.00  0.00    -0.170 NA
ATOM      4  N   UNL     1      29.318 -25.717 -14.395  0.00  0.00    -0.332 N 
ATOM      5  N   UNL     1      27.669 -22.748 -17.669  0.00  0.00    -0.293 N 
ATOM      6  C   UNL     1      30.685 -23.918 -15.202  0.00  0.00    +0.047 C 
ATOM      7  C   UNL     1      29.499 -24.591 -15.235  0.00  0.00    +0.188 C 
ATOM      8  C   UNL     1      30.824 -22.838 -16.026  0.00  0.00    +0.112 C 
ATOM      9  C   UNL     1      28.716 -23.154 -16.813  0.00  0.00    +0.143 C 
ATOM     10  H   UNL     1      28.468 -26.211 -14.410  0.00  0.00    +0.145 HD
ATOM     11  H   UNL     1      30.045 -26.005 -13.795  0.00  0.00    +0.145 HD
ATOM     12  H   UNL     1      26.820 -23.247 -17.679  0.00  0.00    +0.155 HD
ATOM     13  H   UNL     1      27.787 -21.967 -18.256  0.00  0.00    +0.155 HD
ENDBRANCH   1   6
BRANCH   1  15
ATOM     14 BR   UNL     1      37.372 -22.388 -16.236  0.00  0.00    -0.043 Br
ATOM     15  C   UNL     1      33.166 -23.859 -14.764  0.00  0.00    -0.012 C 
ATOM     16  C   UNL     1      33.362 -23.536 -16.108  0.00  0.00    +0.034 C 
ATOM     17  C   UNL     1      34.221 -23.745 -13.859  0.00  0.00    +0.034 C 
ATOM     18  C   UNL     1      35.472 -23.308 -14.297  0.00  0.00    +0.147 C 
ATOM     19  C   UNL     1      34.612 -23.099 -16.545  0.00  0.00    +0.147 C 
ATOM     20  C   UNL     1      35.667 -22.985 -15.639  0.00  0.00    +0.102 C 
BRANCH  18  21
ATOM     21  O   UNL     1      36.480 -23.209 -13.384  0.00  0.00    -0.471 OA
ATOM     22  C   UNL     1      36.154 -23.501 -12.027  0.00  0.00    +0.252 C 
ENDBRANCH  18  21
BRANCH  19  23
ATOM     23  O   UNL     1      34.766 -22.791 -17.863  0.00  0.00    -0.471 OA
ATOM     24  C   UNL     1      33.586 -22.467 -18.596  0.00  0.00    +0.252 C 
ENDBRANCH  19  23
ENDBRANCH   1  15
TORSDOF 4
ENDMDL
MODEL 9
REMARK VINA RESULT:      -8.2      5.184      7.925
REMARK  Name = 68760
REMARK  4 active torsions:
REMARK  status: ('A' for Active; 'I' for Inactive)
REMARK    1  A    between atoms: C_1  and  C_6
REMARK    2  A    between atoms: C_1  and  C_15
REMARK    3  A    between atoms: C_18  and  O_21
REMARK    4  A    between atoms: C_19  and  O_23
REMARK                            x       y       z     vdW  Elec       q    Type
REMARK                         _______ _______ _______ _____ _____    ______ ____
ROOT
ATOM      1  C   UNL     1      35.101 -21.895 -20.304  0.00  0.00    +0.058 C 
ENDROOT
BRANCH   1   6
ATOM      2  N   UNL     1      33.702 -18.452 -20.989  0.00  0.00    -0.323 NA
ATOM      3  N   UNL     1      36.104 -18.317 -20.853  0.00  0.00    -0.170 NA
ATOM      4  N   UNL     1      32.603 -20.534 -20.703  0.00  0.00    -0.332 N 
ATOM      5  N   UNL     1      34.811 -16.403 -21.267  0.00  0.00    -0.293 N 
ATOM      6  C   UNL     1      34.995 -20.406 -20.567  0.00  0.00    +0.047 C 
ATOM      7  C   UNL     1      33.800 -19.777 -20.754  0.00  0.00    +0.188 C 
ATOM      8  C   UNL     1      36.128 -19.646 -20.623  0.00  0.00    +0.112 C 
ATOM      9  C   UNL     1      34.876 -17.793 -21.025  0.00  0.00    +0.143 C 
ATOM     10  H   UNL     1      31.735 -20.091 -20.837  0.00  0.00    +0.145 HD
ATOM     11  H   UNL     1      32.642 -21.504 -20.534  0.00  0.00    +0.145 HD
ATOM     12  H   UNL     1      33.939 -15.966 -21.401  0.00  0.00    +0.155 HD
ATOM     13  H   UNL     1      35.638 -15.871 -21.305  0.00  0.00    +0.155 HD
ENDBRANCH   1   6
BRANCH   1  15
ATOM     14 BR   UNL     1      34.518 -23.436 -14.344  0.00  0.00    -0.043 Br
ATOM     15  C   UNL     1      34.960 -22.267 -18.867  0.00  0.00    -0.012 C 
ATOM     16  C   UNL     1      36.021 -22.056 -17.985  0.00  0.00    +0.034 C 
ATOM     17  C   UNL     1      33.770 -22.825 -18.404  0.00  0.00    +0.034 C 
ATOM     18  C   UNL     1      33.638 -23.173 -17.059  0.00  0.00    +0.147 C 
ATOM     19  C   UNL     1      35.890 -22.404 -16.641  0.00  0.00    +0.147 C 
ATOM     20  C   UNL     1      34.697 -22.962 -16.178  0.00  0.00    +0.102 C 
BRANCH  18  21
ATOM     21  O   UNL     1      32.459 -23.716 -16.643  0.00  0.00    -0.471 OA
ATOM     22  C   UNL     1      31.322 -22.856 -16.621  0.00  0.00    +0.252 C 
ENDBRANCH  18  21
BRANCH  19  23
ATOM     23  O   UNL     1      36.945 -22.183 -15.807  0.00  0.00    -0.471 OA
ATOM     24  C   UNL     1      37.919 -23.220 -15.706  0.00  0.00    +0.252 C 
ENDBRANCH  19  23
ENDBRANCH   1  15
TORSDOF 4
ENDMDL
