MODEL 1
REMARK VINA RESULT:      -7.8      0.000      0.000
REMARK  Name = 28425
REMARK  2 active torsions:
REMARK  status: ('A' for Active; 'I' for Inactive)
REMARK    1  A    between atoms: C_1  and  C_17
REMARK    2  A    between atoms: C_17  and  N_18
REMARK                            x       y       z     vdW  Elec       q    Type
REMARK                         _______ _______ _______ _____ _____    ______ ____
ROOT
ATOM      1  C   UNL     1      32.545  -8.571 -22.907  0.00  0.00    +0.018 C 
ATOM      2  C   UNL     1      34.653  -7.455 -24.061  0.00  0.00    +0.044 C 
ATOM      3  C   UNL     1      33.578  -8.075 -21.839  0.00  0.00    +0.007 C 
ATOM      4  C   UNL     1      34.815  -7.418 -22.523  0.00  0.00    +0.009 C 
ATOM      5  C   UNL     1      32.206  -7.325 -23.750  0.00  0.00    -0.025 C 
ATOM      6  C   UNL     1      33.337  -9.530 -23.818  0.00  0.00    -0.025 C 
ATOM      7  C   UNL     1      33.345  -6.734 -24.361  0.00  0.00    -0.022 C 
ATOM      8  C   UNL     1      34.466  -8.920 -24.429  0.00  0.00    -0.022 C 
ATOM      9  C   UNL     1      30.949  -6.769 -23.958  0.00  0.00    -0.004 C 
ATOM     10  C   UNL     1      33.049 -10.865 -24.085  0.00  0.00    -0.004 C 
ATOM     11  C   UNL     1      33.226  -5.606 -25.164  0.00  0.00    -0.004 C 
ATOM     12  C   UNL     1      35.292  -9.635 -25.289  0.00  0.00    -0.004 C 
ATOM     13  C   UNL     1      30.831  -5.633 -24.764  0.00  0.00    -0.000 C 
ATOM     14  C   UNL     1      33.881 -11.582 -24.949  0.00  0.00    -0.000 C 
ATOM     15  C   UNL     1      31.959  -5.056 -25.361  0.00  0.00    -0.000 C 
ATOM     16  C   UNL     1      34.994 -10.972 -25.545  0.00  0.00    -0.000 C 
ENDROOT
BRANCH   1  17
ATOM     17  C   UNL     1      31.342  -9.210 -22.208  0.00  0.00    -0.073 C 
BRANCH  17  18
ATOM     18  N   UNL     1      31.708  -9.707 -20.918  0.00  0.00    +0.383 N 
ATOM     19  C   UNL     1      31.285 -11.098 -20.725  0.00  0.00    -0.106 C 
ATOM     20  H   UNL     1      31.266  -9.127 -20.203  0.00  0.00    -0.085 HD
ATOM     21  H   UNL     1      32.724  -9.673 -20.842  0.00  0.00    -0.085 HD
ENDBRANCH  17  18
ENDBRANCH   1  17
TORSDOF 2
ENDMDL
MODEL 2
REMARK VINA RESULT:      -7.3      1.692      4.940
REMARK  Name = 28425
REMARK  2 active torsions:
REMARK  status: ('A' for Active; 'I' for Inactive)
REMARK    1  A    between atoms: C_1  and  C_17
REMARK    2  A    between atoms: C_17  and  N_18
REMARK                            x       y       z     vdW  Elec       q    Type
REMARK                         _______ _______ _______ _____ _____    ______ ____
ROOT
ATOM      1  C   UNL     1      32.708  -8.802 -23.115  0.00  0.00    +0.018 C 
ATOM      2  C   UNL     1      32.713  -7.319 -20.918  0.00  0.00    +0.044 C 
ATOM      3  C   UNL     1      34.168  -8.416 -22.695  0.00  0.00    +0.007 C 
ATOM      4  C   UNL     1      34.165  -7.545 -21.403  0.00  0.00    +0.009 C 
ATOM      5  C   UNL     1      32.109  -9.511 -21.884  0.00  0.00    -0.025 C 
ATOM      6  C   UNL     1      31.966  -7.459 -23.268  0.00  0.00    -0.025 C 
ATOM      7  C   UNL     1      32.120  -8.706 -20.712  0.00  0.00    -0.022 C 
ATOM      8  C   UNL     1      31.978  -6.672 -22.084  0.00  0.00    -0.022 C 
ATOM      9  C   UNL     1      31.579 -10.795 -21.831  0.00  0.00    -0.004 C 
ATOM     10  C   UNL     1      31.313  -6.985 -24.401  0.00  0.00    -0.004 C 
ATOM     11  C   UNL     1      31.611  -9.182 -19.509  0.00  0.00    -0.004 C 
ATOM     12  C   UNL     1      31.350  -5.433 -22.038  0.00  0.00    -0.004 C 
ATOM     13  C   UNL     1      31.070 -11.273 -20.619  0.00  0.00    -0.000 C 
ATOM     14  C   UNL     1      30.684  -5.738 -24.353  0.00  0.00    -0.000 C 
ATOM     15  C   UNL     1      31.087 -10.474 -19.469  0.00  0.00    -0.000 C 
ATOM     16  C   UNL     1      30.702  -4.969 -23.182  0.00  0.00    -0.000 C 
ENDROOT
BRANCH   1  17
ATOM     17  C   UNL     1      32.742  -9.656 -24.385  0.00  0.00    -0.073 C 
BRANCH  17  18
ATOM     18  N   UNL     1      34.000 -10.323 -24.518  0.00  0.00    +0.383 N 
ATOM     19  C   UNL     1      33.842 -11.776 -24.628  0.00  0.00    -0.106 C 
ATOM     20  H   UNL     1      34.572 -10.115 -23.697  0.00  0.00    -0.085 HD
ATOM     21  H   UNL     1      34.448  -9.987 -25.371  0.00  0.00    -0.085 HD
ENDBRANCH  17  18
ENDBRANCH   1  17
TORSDOF 2
ENDMDL
MODEL 3
REMARK VINA RESULT:      -7.3      1.829      4.650
REMARK  Name = 28425
REMARK  2 active torsions:
REMARK  status: ('A' for Active; 'I' for Inactive)
REMARK    1  A    between atoms: C_1  and  C_17
REMARK    2  A    between atoms: C_17  and  N_18
REMARK                            x       y       z     vdW  Elec       q    Type
REMARK                         _______ _______ _______ _____ _____    ______ ____
ROOT
ATOM      1  C   UNL     1      32.085  -7.807 -21.882  0.00  0.00    +0.018 C 
ATOM      2  C   UNL     1      31.700 -10.164 -23.030  0.00  0.00    +0.044 C 
ATOM      3  C   UNL     1      30.794  -7.800 -22.770  0.00  0.00    +0.007 C 
ATOM      4  C   UNL     1      30.572  -9.189 -23.441  0.00  0.00    +0.009 C 
ATOM      5  C   UNL     1      31.879  -8.961 -20.881  0.00  0.00    -0.025 C 
ATOM      6  C   UNL     1      33.223  -8.230 -22.832  0.00  0.00    -0.025 C 
ATOM      7  C   UNL     1      31.671 -10.220 -21.509  0.00  0.00    -0.022 C 
ATOM      8  C   UNL     1      33.003  -9.495 -23.443  0.00  0.00    -0.022 C 
ATOM      9  C   UNL     1      31.891  -8.880 -19.493  0.00  0.00    -0.004 C 
ATOM     10  C   UNL     1      34.387  -7.523 -23.116  0.00  0.00    -0.004 C 
ATOM     11  C   UNL     1      31.476 -11.373 -20.760  0.00  0.00    -0.004 C 
ATOM     12  C   UNL     1      33.931 -10.038 -24.324  0.00  0.00    -0.004 C 
ATOM     13  C   UNL     1      31.692 -10.042 -18.740  0.00  0.00    -0.000 C 
ATOM     14  C   UNL     1      35.317  -8.070 -24.003  0.00  0.00    -0.000 C 
ATOM     15  C   UNL     1      31.486 -11.277 -19.368  0.00  0.00    -0.000 C 
ATOM     16  C   UNL     1      35.091  -9.317 -24.602  0.00  0.00    -0.000 C 
ENDROOT
BRANCH   1  17
ATOM     17  C   UNL     1      32.277  -6.432 -21.235  0.00  0.00    -0.073 C 
BRANCH  17  18
ATOM     18  N   UNL     1      31.179  -5.568 -21.539  0.00  0.00    +0.383 N 
ATOM     19  C   UNL     1      31.504  -4.624 -22.612  0.00  0.00    -0.106 C 
ATOM     20  H   UNL     1      30.932  -5.042 -20.700  0.00  0.00    -0.085 HD
ATOM     21  H   UNL     1      30.399  -6.146 -21.852  0.00  0.00    -0.085 HD
ENDBRANCH  17  18
ENDBRANCH   1  17
TORSDOF 2
ENDMDL
MODEL 4
REMARK VINA RESULT:      -7.2      1.764      4.276
REMARK  Name = 28425
REMARK  2 active torsions:
REMARK  status: ('A' for Active; 'I' for Inactive)
REMARK    1  A    between atoms: C_1  and  C_17
REMARK    2  A    between atoms: C_17  and  N_18
REMARK                            x       y       z     vdW  Elec       q    Type
REMARK                         _______ _______ _______ _____ _____    ______ ____
ROOT
ATOM      1  C   UNL     1      33.177  -7.934 -23.735  0.00  0.00    +0.018 C 
ATOM      2  C   UNL     1      31.127  -6.259 -23.850  0.00  0.00    +0.044 C 
ATOM      3  C   UNL     1      31.886  -8.654 -24.253  0.00  0.00    +0.007 C 
ATOM      4  C   UNL     1      30.684  -7.665 -24.320  0.00  0.00    +0.009 C 
ATOM      5  C   UNL     1      33.393  -6.751 -24.700  0.00  0.00    -0.025 C 
ATOM      6  C   UNL     1      32.783  -7.336 -22.370  0.00  0.00    -0.025 C 
ATOM      7  C   UNL     1      32.285  -5.861 -24.755  0.00  0.00    -0.022 C 
ATOM      8  C   UNL     1      31.681  -6.442 -22.445  0.00  0.00    -0.022 C 
ATOM      9  C   UNL     1      34.521  -6.490 -25.470  0.00  0.00    -0.004 C 
ATOM     10  C   UNL     1      33.390  -7.577 -21.141  0.00  0.00    -0.004 C 
ATOM     11  C   UNL     1      32.308  -4.734 -25.567  0.00  0.00    -0.004 C 
ATOM     12  C   UNL     1      31.195  -5.804 -21.309  0.00  0.00    -0.004 C 
ATOM     13  C   UNL     1      34.541  -5.357 -26.289  0.00  0.00    -0.000 C 
ATOM     14  C   UNL     1      32.898  -6.936 -20.001  0.00  0.00    -0.000 C 
ATOM     15  C   UNL     1      33.444  -4.487 -26.337  0.00  0.00    -0.000 C 
ATOM     16  C   UNL     1      31.810  -6.057 -20.084  0.00  0.00    -0.000 C 
ENDROOT
BRANCH   1  17
ATOM     17  C   UNL     1      34.340  -8.928 -23.681  0.00  0.00    -0.073 C 
BRANCH  17  18
ATOM     18  N   UNL     1      33.913 -10.233 -24.081  0.00  0.00    +0.383 N 
ATOM     19  C   UNL     1      34.702 -10.748 -25.204  0.00  0.00    -0.106 C 
ATOM     20  H   UNL     1      32.933 -10.188 -24.361  0.00  0.00    -0.085 HD
ATOM     21  H   UNL     1      34.040 -10.864 -23.289  0.00  0.00    -0.085 HD
ENDBRANCH  17  18
ENDBRANCH   1  17
TORSDOF 2
ENDMDL
MODEL 5
REMARK VINA RESULT:      -7.0     15.832     19.076
REMARK  Name = 28425
REMARK  2 active torsions:
REMARK  status: ('A' for Active; 'I' for Inactive)
REMARK    1  A    between atoms: C_1  and  C_17
REMARK    2  A    between atoms: C_17  and  N_18
REMARK                            x       y       z     vdW  Elec       q    Type
REMARK                         _______ _______ _______ _____ _____    ______ ____
ROOT
ATOM      1  C   UNL     1      37.827 -24.483 -14.693  0.00  0.00    +0.018 C 
ATOM      2  C   UNL     1      35.196 -24.793 -14.741  0.00  0.00    +0.044 C 
ATOM      3  C   UNL     1      37.436 -25.933 -15.138  0.00  0.00    +0.007 C 
ATOM      4  C   UNL     1      35.888 -26.110 -15.165  0.00  0.00    +0.009 C 
ATOM      5  C   UNL     1      37.108 -23.549 -15.687  0.00  0.00    -0.025 C 
ATOM      6  C   UNL     1      37.151 -24.288 -13.320  0.00  0.00    -0.025 C 
ATOM      7  C   UNL     1      35.697 -23.727 -15.705  0.00  0.00    -0.022 C 
ATOM      8  C   UNL     1      35.741 -24.459 -13.359  0.00  0.00    -0.022 C 
ATOM      9  C   UNL     1      37.690 -22.594 -16.512  0.00  0.00    -0.004 C 
ATOM     10  C   UNL     1      37.771 -23.965 -12.118  0.00  0.00    -0.004 C 
ATOM     11  C   UNL     1      34.887 -22.964 -16.537  0.00  0.00    -0.004 C 
ATOM     12  C   UNL     1      34.967 -24.313 -12.214  0.00  0.00    -0.004 C 
ATOM     13  C   UNL     1      36.873 -21.828 -17.350  0.00  0.00    -0.000 C 
ATOM     14  C   UNL     1      36.992 -23.820 -10.967  0.00  0.00    -0.000 C 
ATOM     15  C   UNL     1      35.485 -22.012 -17.363  0.00  0.00    -0.000 C 
ATOM     16  C   UNL     1      35.602 -23.993 -11.015  0.00  0.00    -0.000 C 
ENDROOT
BRANCH   1  17
ATOM     17  C   UNL     1      39.351 -24.338 -14.675  0.00  0.00    -0.073 C 
BRANCH  17  18
ATOM     18  N   UNL     1      39.976 -25.456 -15.312  0.00  0.00    +0.383 N 
ATOM     19  C   UNL     1      40.753 -26.262 -14.366  0.00  0.00    -0.106 C 
ATOM     20  H   UNL     1      40.601 -25.112 -16.043  0.00  0.00    -0.085 HD
ATOM     21  H   UNL     1      39.243 -26.047 -15.704  0.00  0.00    -0.085 HD
ENDBRANCH  17  18
ENDBRANCH   1  17
TORSDOF 2
ENDMDL
MODEL 6
REMARK VINA RESULT:      -6.8     14.958     17.860
REMARK  Name = 28425
REMARK  2 active torsions:
REMARK  status: ('A' for Active; 'I' for Inactive)
REMARK    1  A    between atoms: C_1  and  C_17
REMARK    2  A    between atoms: C_17  and  N_18
REMARK                            x       y       z     vdW  Elec       q    Type
REMARK                         _______ _______ _______ _____ _____    ______ ____
ROOT
ATOM      1  C   UNL     1      35.156 -24.053 -15.115  0.00  0.00    +0.018 C 
ATOM      2  C   UNL     1      37.473 -22.775 -15.248  0.00  0.00    +0.044 C 
ATOM      3  C   UNL     1      35.312 -23.038 -13.931  0.00  0.00    +0.007 C 
ATOM      4  C   UNL     1      36.675 -22.288 -14.015  0.00  0.00    +0.009 C 
ATOM      5  C   UNL     1      35.329 -23.210 -16.394  0.00  0.00    -0.025 C 
ATOM      6  C   UNL     1      36.385 -24.979 -15.014  0.00  0.00    -0.025 C 
ATOM      7  C   UNL     1      36.575 -22.527 -16.452  0.00  0.00    -0.022 C 
ATOM      8  C   UNL     1      37.621 -24.281 -15.085  0.00  0.00    -0.022 C 
ATOM      9  C   UNL     1      34.424 -23.077 -17.441  0.00  0.00    -0.004 C 
ATOM     10  C   UNL     1      36.384 -26.363 -14.880  0.00  0.00    -0.004 C 
ATOM     11  C   UNL     1      36.905 -21.726 -17.538  0.00  0.00    -0.004 C 
ATOM     12  C   UNL     1      38.833 -24.958 -15.018  0.00  0.00    -0.004 C 
ATOM     13  C   UNL     1      34.757 -22.268 -18.532  0.00  0.00    -0.000 C 
ATOM     14  C   UNL     1      37.604 -27.041 -14.811  0.00  0.00    -0.000 C 
ATOM     15  C   UNL     1      35.985 -21.599 -18.580  0.00  0.00    -0.000 C 
ATOM     16  C   UNL     1      38.818 -26.345 -14.880  0.00  0.00    -0.000 C 
ENDROOT
BRANCH   1  17
ATOM     17  C   UNL     1      33.809 -24.773 -15.007  0.00  0.00    -0.073 C 
BRANCH  17  18
ATOM     18  N   UNL     1      33.276 -24.661 -13.684  0.00  0.00    +0.383 N 
ATOM     19  C   UNL     1      31.843 -24.967 -13.643  0.00  0.00    -0.106 C 
ATOM     20  H   UNL     1      33.418 -23.706 -13.351  0.00  0.00    -0.085 HD
ATOM     21  H   UNL     1      33.760 -25.333 -13.090  0.00  0.00    -0.085 HD
ENDBRANCH  17  18
ENDBRANCH   1  17
TORSDOF 2
ENDMDL
MODEL 7
REMARK VINA RESULT:      -6.5      1.389      2.006
REMARK  Name = 28425
REMARK  2 active torsions:
REMARK  status: ('A' for Active; 'I' for Inactive)
REMARK    1  A    between atoms: C_1  and  C_17
REMARK    2  A    between atoms: C_17  and  N_18
REMARK                            x       y       z     vdW  Elec       q    Type
REMARK                         _______ _______ _______ _____ _____    ______ ____
ROOT
ATOM      1  C   UNL     1      32.601  -7.553 -23.120  0.00  0.00    +0.018 C 
ATOM      2  C   UNL     1      35.036  -7.760 -24.144  0.00  0.00    +0.044 C 
ATOM      3  C   UNL     1      33.694  -7.176 -22.063  0.00  0.00    +0.007 C 
ATOM      4  C   UNL     1      35.123  -7.298 -22.670  0.00  0.00    +0.009 C 
ATOM      5  C   UNL     1      32.856  -6.613 -24.315  0.00  0.00    -0.025 C 
ATOM      6  C   UNL     1      32.963  -8.979 -23.582  0.00  0.00    -0.025 C 
ATOM      7  C   UNL     1      34.166  -6.731 -24.854  0.00  0.00    -0.022 C 
ATOM      8  C   UNL     1      34.273  -9.077 -24.127  0.00  0.00    -0.022 C 
ATOM      9  C   UNL     1      31.958  -5.717 -24.885  0.00  0.00    -0.004 C 
ATOM     10  C   UNL     1      32.157 -10.111 -23.524  0.00  0.00    -0.004 C 
ATOM     11  C   UNL     1      34.569  -5.965 -25.940  0.00  0.00    -0.004 C 
ATOM     12  C   UNL     1      34.765 -10.287 -24.601  0.00  0.00    -0.004 C 
ATOM     13  C   UNL     1      32.366  -4.944 -25.977  0.00  0.00    -0.000 C 
ATOM     14  C   UNL     1      32.655 -11.326 -23.999  0.00  0.00    -0.000 C 
ATOM     15  C   UNL     1      33.660  -5.067 -26.499  0.00  0.00    -0.000 C 
ATOM     16  C   UNL     1      33.948 -11.414 -24.533  0.00  0.00    -0.000 C 
ENDROOT
BRANCH   1  17
ATOM     17  C   UNL     1      31.208  -7.423 -22.497  0.00  0.00    -0.073 C 
BRANCH  17  18
ATOM     18  N   UNL     1      31.214  -6.471 -21.430  0.00  0.00    +0.383 N 
ATOM     19  C   UNL     1      30.381  -5.303 -21.732  0.00  0.00    -0.106 C 
ATOM     20  H   UNL     1      32.173  -6.159 -21.272  0.00  0.00    -0.085 HD
ATOM     21  H   UNL     1      30.834  -6.924 -20.599  0.00  0.00    -0.085 HD
ENDBRANCH  17  18
ENDBRANCH   1  17
TORSDOF 2
ENDMDL
MODEL 8
REMARK VINA RESULT:      -6.4     15.480     18.608
REMARK  Name = 28425
REMARK  2 active torsions:
REMARK  status: ('A' for Active; 'I' for Inactive)
REMARK    1  A    between atoms: C_1  and  C_17
REMARK    2  A    between atoms: C_17  and  N_18
REMARK                            x       y       z     vdW  Elec       q    Type
REMARK                         _______ _______ _______ _____ _____    ______ ____
ROOT
ATOM      1  C   UNL     1      35.230 -24.589 -14.619  0.00  0.00    +0.018 C 
ATOM      2  C   UNL     1      37.872 -24.390 -14.583  0.00  0.00    +0.044 C 
ATOM      3  C   UNL     1      35.906 -25.947 -15.012  0.00  0.00    +0.007 C 
ATOM      4  C   UNL     1      37.459 -25.825 -14.988  0.00  0.00    +0.009 C 
ATOM      5  C   UNL     1      35.809 -24.236 -13.234  0.00  0.00    -0.025 C 
ATOM      6  C   UNL     1      35.791 -23.557 -15.619  0.00  0.00    -0.025 C 
ATOM      7  C   UNL     1      37.227 -24.135 -13.227  0.00  0.00    -0.022 C 
ATOM      8  C   UNL     1      37.209 -23.462 -15.591  0.00  0.00    -0.022 C 
ATOM      9  C   UNL     1      35.099 -24.011 -12.060  0.00  0.00    -0.004 C 
ATOM     10  C   UNL     1      35.066 -22.750 -16.488  0.00  0.00    -0.004 C 
ATOM     11  C   UNL     1      37.919 -23.817 -12.065  0.00  0.00    -0.004 C 
ATOM     12  C   UNL     1      37.887 -22.577 -16.421  0.00  0.00    -0.004 C 
ATOM     13  C   UNL     1      35.797 -23.694 -10.891  0.00  0.00    -0.000 C 
ATOM     14  C   UNL     1      35.748 -21.861 -17.323  0.00  0.00    -0.000 C 
ATOM     15  C   UNL     1      37.194 -23.598 -10.894  0.00  0.00    -0.000 C 
ATOM     16  C   UNL     1      37.147 -21.775 -17.290  0.00  0.00    -0.000 C 
ENDROOT
BRANCH   1  17
ATOM     17  C   UNL     1      33.707 -24.738 -14.651  0.00  0.00    -0.073 C 
BRANCH  17  18
ATOM     18  N   UNL     1      33.067 -23.521 -14.259  0.00  0.00    +0.383 N 
ATOM     19  C   UNL     1      31.696 -23.747 -13.791  0.00  0.00    -0.106 C 
ATOM     20  H   UNL     1      33.041 -22.889 -15.060  0.00  0.00    -0.085 HD
ATOM     21  H   UNL     1      33.601 -23.116 -13.489  0.00  0.00    -0.085 HD
ENDBRANCH  17  18
ENDBRANCH   1  17
TORSDOF 2
ENDMDL
MODEL 9
REMARK VINA RESULT:      -6.2      1.834      4.254
REMARK  Name = 28425
REMARK  2 active torsions:
REMARK  status: ('A' for Active; 'I' for Inactive)
REMARK    1  A    between atoms: C_1  and  C_17
REMARK    2  A    between atoms: C_17  and  N_18
REMARK                            x       y       z     vdW  Elec       q    Type
REMARK                         _______ _______ _______ _____ _____    ______ ____
ROOT
ATOM      1  C   UNL     1      32.646  -7.609 -23.393  0.00  0.00    +0.018 C 
ATOM      2  C   UNL     1      31.630  -9.956 -22.698  0.00  0.00    +0.044 C 
ATOM      3  C   UNL     1      31.200  -7.792 -23.968  0.00  0.00    +0.007 C 
ATOM      4  C   UNL     1      30.607  -9.173 -23.556  0.00  0.00    +0.009 C 
ATOM      5  C   UNL     1      32.501  -7.798 -21.870  0.00  0.00    -0.025 C 
ATOM      6  C   UNL     1      33.445  -8.816 -23.924  0.00  0.00    -0.025 C 
ATOM      7  C   UNL     1      31.952  -9.059 -21.510  0.00  0.00    -0.022 C 
ATOM      8  C   UNL     1      32.888 -10.068 -23.547  0.00  0.00    -0.022 C 
ATOM      9  C   UNL     1      32.852  -6.893 -20.875  0.00  0.00    -0.004 C 
ATOM     10  C   UNL     1      34.607  -8.783 -24.689  0.00  0.00    -0.004 C 
ATOM     11  C   UNL     1      31.757  -9.405 -20.179  0.00  0.00    -0.004 C 
ATOM     12  C   UNL     1      33.483 -11.264 -23.931  0.00  0.00    -0.004 C 
ATOM     13  C   UNL     1      32.653  -7.242 -19.535  0.00  0.00    -0.000 C 
ATOM     14  C   UNL     1      35.202  -9.986 -25.076  0.00  0.00    -0.000 C 
ATOM     15  C   UNL     1      32.110  -8.486 -19.191  0.00  0.00    -0.000 C 
ATOM     16  C   UNL     1      34.645 -11.217 -24.700  0.00  0.00    -0.000 C 
ENDROOT
BRANCH   1  17
ATOM     17  C   UNL     1      33.202  -6.246 -23.813  0.00  0.00    -0.073 C 
BRANCH  17  18
ATOM     18  N   UNL     1      32.197  -5.464 -24.464  0.00  0.00    +0.383 N 
ATOM     19  C   UNL     1      32.677  -4.896 -25.728  0.00  0.00    -0.106 C 
ATOM     20  H   UNL     1      31.921  -4.701 -23.845  0.00  0.00    -0.085 HD
ATOM     21  H   UNL     1      31.407  -6.074 -24.671  0.00  0.00    -0.085 HD
ENDBRANCH  17  18
ENDBRANCH   1  17
TORSDOF 2
ENDMDL
