MODEL 1
REMARK VINA RESULT:      -9.8      0.000      0.000
REMARK  Name = 25263223
REMARK  9 active torsions:
REMARK  status: ('A' for Active; 'I' for Inactive)
REMARK    1  A    between atoms: N_2  and  C_5
REMARK    2  A    between atoms: N_2  and  C_34
REMARK    3  A    between atoms: C_3  and  C_20
REMARK    4  A    between atoms: N_4  and  C_11
REMARK    5  A    between atoms: C_11  and  C_12
REMARK    6  A    between atoms: C_12  and  C_17
REMARK    7  A    between atoms: C_25  and  C_26
REMARK    8  A    between atoms: C_26  and  C_31
REMARK    9  A    between atoms: C_26  and  O_32
REMARK                            x       y       z     vdW  Elec       q    Type
REMARK                         _______ _______ _______ _____ _____    ______ ____
ROOT
ATOM      1  O   UNL     1      37.349 -20.308 -17.853  0.00  0.00    -0.270 OA
ATOM      2  N   UNL     1      35.707 -21.636 -18.874  0.00  0.00    -0.279 N 
ATOM      3  C   UNL     1      36.591 -21.277 -17.845  0.00  0.00    +0.249 C 
ENDROOT
BRANCH   2   5
ATOM      4  N   UNL     1      35.277 -18.286 -21.429  0.00  0.00    +0.387 N 
ATOM      5  C   UNL     1      35.602 -20.867 -20.089  0.00  0.00    +0.071 C 
ATOM      6  C   UNL     1      36.744 -19.856 -20.202  0.00  0.00    -0.003 C 
ATOM      7  C   UNL     1      34.253 -20.152 -20.166  0.00  0.00    -0.003 C 
ATOM      8  C   UNL     1      36.578 -18.969 -21.437  0.00  0.00    -0.076 C 
ATOM      9  C   UNL     1      34.170 -19.253 -21.401  0.00  0.00    -0.076 C 
ATOM     10  H   UNL     1      35.223 -17.722 -20.581  0.00  0.00    -0.080 HD
BRANCH   4  11
ATOM     11  C   UNL     1      35.155 -17.403 -22.588  0.00  0.00    -0.069 C 
BRANCH  11  12
ATOM     12  C   UNL     1      34.446 -16.137 -22.234  0.00  0.00    +0.050 C 
ATOM     13  C   UNL     1      33.481 -15.602 -23.253  0.00  0.00    +0.007 C 
ATOM     14  C   UNL     1      34.801 -14.921 -23.038  0.00  0.00    +0.007 C 
BRANCH  12  17
ATOM     15  O   UNL     1      34.998 -15.850 -19.969  0.00  0.00    -0.275 OA
ATOM     16  N   UNL     1      32.763 -15.863 -20.542  0.00  0.00    -0.329 N 
ATOM     17  C   UNL     1      34.109 -15.936 -20.808  0.00  0.00    +0.216 C 
ATOM     18  H   UNL     1      32.450 -15.730 -19.618  0.00  0.00    +0.145 HD
ATOM     19  H   UNL     1      32.112 -15.942 -21.276  0.00  0.00    +0.145 HD
ENDBRANCH  12  17
ENDBRANCH  11  12
ENDBRANCH   4  11
ENDBRANCH   2   5
BRANCH   3  20
ATOM     20  C   UNL     1      36.617 -22.123 -16.642  0.00  0.00    +0.054 C 
ATOM     21  C   UNL     1      37.786 -22.798 -16.289  0.00  0.00    +0.004 C 
ATOM     22  C   UNL     1      35.473 -22.252 -15.853  0.00  0.00    +0.004 C 
ATOM     23  C   UNL     1      37.812 -23.600 -15.150  0.00  0.00    -0.002 C 
ATOM     24  C   UNL     1      35.499 -23.055 -14.713  0.00  0.00    -0.002 C 
ATOM     25  C   UNL     1      36.668 -23.729 -14.361  0.00  0.00    +0.010 C 
BRANCH  25  26
ATOM     26  C   UNL     1      36.696 -24.587 -13.141  0.00  0.00    +0.194 C 
ATOM     27  C   UNL     1      37.452 -25.926 -13.342  0.00  0.00    +0.043 C 
BRANCH  26  31
ATOM     28  F   UNL     1      37.357 -22.509 -12.159  0.00  0.00    -0.167 F 
ATOM     29  F   UNL     1      38.551 -24.256 -11.647  0.00  0.00    -0.167 F 
ATOM     30  F   UNL     1      36.545 -24.035 -10.827  0.00  0.00    -0.167 F 
ATOM     31  C   UNL     1      37.296 -23.840 -11.934  0.00  0.00    +0.423 C 
ENDBRANCH  26  31
BRANCH  26  32
ATOM     32  O   UNL     1      35.360 -24.975 -12.747  0.00  0.00    -0.375 OA
ATOM     33  H   UNL     1      35.124 -24.527 -11.920  0.00  0.00    +0.211 HD
ENDBRANCH  26  32
ENDBRANCH  25  26
ENDBRANCH   3  20
BRANCH   2  34
ATOM     34  C   UNL     1      34.843 -22.807 -18.773  0.00  0.00    +0.076 C 
ATOM     35  C   UNL     1      33.751 -23.055 -19.773  0.00  0.00    +0.022 C 
ATOM     36  C   UNL     1      33.405 -22.678 -18.362  0.00  0.00    +0.022 C 
ENDBRANCH   2  34
TORSDOF 9
ENDMDL
MODEL 2
REMARK VINA RESULT:      -9.6      1.312      1.746
REMARK  Name = 25263223
REMARK  9 active torsions:
REMARK  status: ('A' for Active; 'I' for Inactive)
REMARK    1  A    between atoms: N_2  and  C_5
REMARK    2  A    between atoms: N_2  and  C_34
REMARK    3  A    between atoms: C_3  and  C_20
REMARK    4  A    between atoms: N_4  and  C_11
REMARK    5  A    between atoms: C_11  and  C_12
REMARK    6  A    between atoms: C_12  and  C_17
REMARK    7  A    between atoms: C_25  and  C_26
REMARK    8  A    between atoms: C_26  and  C_31
REMARK    9  A    between atoms: C_26  and  O_32
REMARK                            x       y       z     vdW  Elec       q    Type
REMARK                         _______ _______ _______ _____ _____    ______ ____
ROOT
ATOM      1  O   UNL     1      37.144 -20.506 -18.024  0.00  0.00    -0.270 OA
ATOM      2  N   UNL     1      35.383 -21.930 -18.632  0.00  0.00    -0.279 N 
ATOM      3  C   UNL     1      36.417 -21.472 -17.802  0.00  0.00    +0.249 C 
ENDROOT
BRANCH   2   5
ATOM      4  N   UNL     1      34.496 -18.836 -21.384  0.00  0.00    +0.387 N 
ATOM      5  C   UNL     1      35.065 -21.280 -19.879  0.00  0.00    +0.071 C 
ATOM      6  C   UNL     1      36.163 -20.295 -20.284  0.00  0.00    -0.003 C 
ATOM      7  C   UNL     1      33.719 -20.563 -19.791  0.00  0.00    -0.003 C 
ATOM      8  C   UNL     1      35.782 -19.528 -21.551  0.00  0.00    -0.076 C 
ATOM      9  C   UNL     1      33.418 -19.785 -21.074  0.00  0.00    -0.076 C 
ATOM     10  H   UNL     1      34.584 -18.193 -20.598  0.00  0.00    -0.080 HD
BRANCH   4  11
ATOM     11  C   UNL     1      34.170 -18.066 -22.585  0.00  0.00    -0.069 C 
BRANCH  11  12
ATOM     12  C   UNL     1      34.283 -16.598 -22.335  0.00  0.00    +0.050 C 
ATOM     13  C   UNL     1      33.808 -15.692 -23.434  0.00  0.00    +0.007 C 
ATOM     14  C   UNL     1      35.277 -15.849 -23.173  0.00  0.00    +0.007 C 
BRANCH  12  17
ATOM     15  O   UNL     1      35.034 -16.053 -20.177  0.00  0.00    -0.275 OA
ATOM     16  N   UNL     1      32.781 -15.839 -20.621  0.00  0.00    -0.329 N 
ATOM     17  C   UNL     1      34.083 -16.140 -20.943  0.00  0.00    +0.216 C 
ATOM     18  H   UNL     1      32.557 -15.526 -19.715  0.00  0.00    +0.145 HD
ATOM     19  H   UNL     1      32.072 -15.936 -21.297  0.00  0.00    +0.145 HD
ENDBRANCH  12  17
ENDBRANCH  11  12
ENDBRANCH   4  11
ENDBRANCH   2   5
BRANCH   3  20
ATOM     20  C   UNL     1      36.657 -22.201 -16.546  0.00  0.00    +0.054 C 
ATOM     21  C   UNL     1      35.634 -22.324 -15.605  0.00  0.00    +0.004 C 
ATOM     22  C   UNL     1      37.906 -22.770 -16.297  0.00  0.00    +0.004 C 
ATOM     23  C   UNL     1      35.860 -23.014 -14.415  0.00  0.00    -0.002 C 
ATOM     24  C   UNL     1      38.132 -23.460 -15.106  0.00  0.00    -0.002 C 
ATOM     25  C   UNL     1      37.110 -23.583 -14.166  0.00  0.00    +0.010 C 
BRANCH  25  26
ATOM     26  C   UNL     1      37.351 -24.323 -12.893  0.00  0.00    +0.194 C 
ATOM     27  C   UNL     1      36.233 -24.124 -11.838  0.00  0.00    +0.043 C 
BRANCH  26  31
ATOM     28  F   UNL     1      37.187 -26.560 -12.065  0.00  0.00    -0.167 F 
ATOM     29  F   UNL     1      38.848 -26.134 -13.407  0.00  0.00    -0.167 F 
ATOM     30  F   UNL     1      36.820 -26.249 -14.194  0.00  0.00    -0.167 F 
ATOM     31  C   UNL     1      37.556 -25.830 -13.141  0.00  0.00    +0.423 C 
ENDBRANCH  26  31
BRANCH  26  32
ATOM     32  O   UNL     1      38.557 -23.859 -12.242  0.00  0.00    -0.375 OA
ATOM     33  H   UNL     1      39.287 -24.463 -12.445  0.00  0.00    +0.211 HD
ENDBRANCH  26  32
ENDBRANCH  25  26
ENDBRANCH   3  20
BRANCH   2  34
ATOM     34  C   UNL     1      34.571 -23.090 -18.282  0.00  0.00    +0.076 C 
ATOM     35  C   UNL     1      33.547 -23.637 -19.235  0.00  0.00    +0.022 C 
ATOM     36  C   UNL     1      33.108 -22.948 -17.975  0.00  0.00    +0.022 C 
ENDBRANCH   2  34
TORSDOF 9
ENDMDL
MODEL 3
REMARK VINA RESULT:      -9.5      8.567     12.714
REMARK  Name = 25263223
REMARK  9 active torsions:
REMARK  status: ('A' for Active; 'I' for Inactive)
REMARK    1  A    between atoms: N_2  and  C_5
REMARK    2  A    between atoms: N_2  and  C_34
REMARK    3  A    between atoms: C_3  and  C_20
REMARK    4  A    between atoms: N_4  and  C_11
REMARK    5  A    between atoms: C_11  and  C_12
REMARK    6  A    between atoms: C_12  and  C_17
REMARK    7  A    between atoms: C_25  and  C_26
REMARK    8  A    between atoms: C_26  and  C_31
REMARK    9  A    between atoms: C_26  and  O_32
REMARK                            x       y       z     vdW  Elec       q    Type
REMARK                         _______ _______ _______ _____ _____    ______ ____
ROOT
ATOM      1  O   UNL     1      33.744 -10.557 -24.371  0.00  0.00    -0.270 OA
ATOM      2  N   UNL     1      32.216 -10.860 -22.618  0.00  0.00    -0.279 N 
ATOM      3  C   UNL     1      33.174 -11.278 -23.554  0.00  0.00    +0.249 C 
ENDROOT
BRANCH   2   5
ATOM      4  N   UNL     1      32.066  -6.693 -23.359  0.00  0.00    +0.387 N 
ATOM      5  C   UNL     1      31.795  -9.484 -22.523  0.00  0.00    +0.071 C 
ATOM      6  C   UNL     1      31.262  -8.978 -23.864  0.00  0.00    -0.003 C 
ATOM      7  C   UNL     1      32.941  -8.596 -22.041  0.00  0.00    -0.003 C 
ATOM      8  C   UNL     1      30.911  -7.490 -23.795  0.00  0.00    -0.076 C 
ATOM      9  C   UNL     1      32.536  -7.121 -22.034  0.00  0.00    -0.076 C 
ATOM     10  H   UNL     1      32.823  -6.845 -24.025  0.00  0.00    -0.080 HD
BRANCH   4  11
ATOM     11  C   UNL     1      31.730  -5.269 -23.348  0.00  0.00    -0.069 C 
BRANCH  11  12
ATOM     12  C   UNL     1      32.015  -4.634 -24.669  0.00  0.00    +0.050 C 
ATOM     13  C   UNL     1      31.963  -3.134 -24.717  0.00  0.00    +0.007 C 
ATOM     14  C   UNL     1      30.867  -3.944 -25.344  0.00  0.00    +0.007 C 
BRANCH  12  17
ATOM     15  O   UNL     1      33.910  -5.973 -25.038  0.00  0.00    -0.275 OA
ATOM     16  N   UNL     1      32.820  -5.113 -26.881  0.00  0.00    -0.329 N 
ATOM     17  C   UNL     1      33.009  -5.307 -25.533  0.00  0.00    +0.216 C 
ATOM     18  H   UNL     1      33.435  -5.526 -27.529  0.00  0.00    +0.145 HD
ATOM     19  H   UNL     1      32.068  -4.562 -27.198  0.00  0.00    +0.145 HD
ENDBRANCH  12  17
ENDBRANCH  11  12
ENDBRANCH   4  11
ENDBRANCH   2   5
BRANCH   3  20
ATOM     20  C   UNL     1      33.540 -12.703 -23.565  0.00  0.00    +0.054 C 
ATOM     21  C   UNL     1      34.215 -13.258 -22.477  0.00  0.00    +0.004 C 
ATOM     22  C   UNL     1      33.213 -13.500 -24.663  0.00  0.00    +0.004 C 
ATOM     23  C   UNL     1      34.563 -14.607 -22.486  0.00  0.00    -0.002 C 
ATOM     24  C   UNL     1      33.562 -14.850 -24.672  0.00  0.00    -0.002 C 
ATOM     25  C   UNL     1      34.237 -15.404 -23.585  0.00  0.00    +0.010 C 
BRANCH  25  26
ATOM     26  C   UNL     1      34.608 -16.849 -23.594  0.00  0.00    +0.194 C 
ATOM     27  C   UNL     1      33.765 -17.712 -22.620  0.00  0.00    +0.043 C 
BRANCH  26  31
ATOM     28  F   UNL     1      35.375 -16.833 -25.859  0.00  0.00    -0.167 F 
ATOM     29  F   UNL     1      33.282 -17.338 -25.540  0.00  0.00    -0.167 F 
ATOM     30  F   UNL     1      34.836 -18.764 -24.996  0.00  0.00    -0.167 F 
ATOM     31  C   UNL     1      34.522 -17.450 -25.011  0.00  0.00    +0.423 C 
ENDBRANCH  26  31
BRANCH  26  32
ATOM     32  O   UNL     1      35.975 -17.038 -23.162  0.00  0.00    -0.375 OA
ATOM     33  H   UNL     1      36.450 -16.194 -23.212  0.00  0.00    +0.211 HD
ENDBRANCH  26  32
ENDBRANCH  25  26
ENDBRANCH   3  20
BRANCH   2  34
ATOM     34  C   UNL     1      31.592 -11.793 -21.686  0.00  0.00    +0.076 C 
ATOM     35  C   UNL     1      30.450 -11.368 -20.810  0.00  0.00    +0.022 C 
ATOM     36  C   UNL     1      31.793 -11.660 -20.204  0.00  0.00    +0.022 C 
ENDBRANCH   2  34
TORSDOF 9
ENDMDL
MODEL 4
REMARK VINA RESULT:      -9.4      2.272      3.145
REMARK  Name = 25263223
REMARK  9 active torsions:
REMARK  status: ('A' for Active; 'I' for Inactive)
REMARK    1  A    between atoms: N_2  and  C_5
REMARK    2  A    between atoms: N_2  and  C_34
REMARK    3  A    between atoms: C_3  and  C_20
REMARK    4  A    between atoms: N_4  and  C_11
REMARK    5  A    between atoms: C_11  and  C_12
REMARK    6  A    between atoms: C_12  and  C_17
REMARK    7  A    between atoms: C_25  and  C_26
REMARK    8  A    between atoms: C_26  and  C_31
REMARK    9  A    between atoms: C_26  and  O_32
REMARK                            x       y       z     vdW  Elec       q    Type
REMARK                         _______ _______ _______ _____ _____    ______ ____
ROOT
ATOM      1  O   UNL     1      37.348 -21.164 -20.528  0.00  0.00    -0.270 OA
ATOM      2  N   UNL     1      35.266 -20.090 -20.619  0.00  0.00    -0.279 N 
ATOM      3  C   UNL     1      36.234 -20.938 -20.061  0.00  0.00    +0.249 C 
ENDROOT
BRANCH   2   5
ATOM      4  N   UNL     1      34.655 -17.374 -23.811  0.00  0.00    +0.387 N 
ATOM      5  C   UNL     1      35.501 -19.373 -21.848  0.00  0.00    +0.071 C 
ATOM      6  C   UNL     1      35.633 -17.871 -21.593  0.00  0.00    -0.003 C 
ATOM      7  C   UNL     1      34.384 -19.641 -22.856  0.00  0.00    -0.003 C 
ATOM      8  C   UNL     1      35.778 -17.096 -22.905  0.00  0.00    -0.076 C 
ATOM      9  C   UNL     1      34.569 -18.807 -24.126  0.00  0.00    -0.076 C 
ATOM     10  H   UNL     1      33.794 -17.104 -23.337  0.00  0.00    -0.080 HD
BRANCH   4  11
ATOM     11  C   UNL     1      34.781 -16.588 -25.038  0.00  0.00    -0.069 C 
BRANCH  11  12
ATOM     12  C   UNL     1      33.825 -15.441 -25.048  0.00  0.00    +0.050 C 
ATOM     13  C   UNL     1      32.661 -15.547 -25.991  0.00  0.00    +0.007 C 
ATOM     14  C   UNL     1      33.791 -14.607 -26.295  0.00  0.00    +0.007 C 
BRANCH  12  17
ATOM     15  O   UNL     1      32.971 -15.303 -22.864  0.00  0.00    -0.275 OA
ATOM     16  N   UNL     1      34.132 -13.487 -23.686  0.00  0.00    -0.329 N 
ATOM     17  C   UNL     1      33.596 -14.750 -23.761  0.00  0.00    +0.216 C 
ATOM     18  H   UNL     1      34.027 -12.955 -22.864  0.00  0.00    +0.145 HD
ATOM     19  H   UNL     1      34.622 -13.114 -24.454  0.00  0.00    +0.145 HD
ENDBRANCH  12  17
ENDBRANCH  11  12
ENDBRANCH   4  11
ENDBRANCH   2   5
BRANCH   3  20
ATOM     20  C   UNL     1      35.898 -21.618 -18.800  0.00  0.00    +0.054 C 
ATOM     21  C   UNL     1      36.729 -21.476 -17.688  0.00  0.00    +0.004 C 
ATOM     22  C   UNL     1      34.750 -22.405 -18.715  0.00  0.00    +0.004 C 
ATOM     23  C   UNL     1      36.413 -22.120 -16.493  0.00  0.00    -0.002 C 
ATOM     24  C   UNL     1      34.433 -23.050 -17.520  0.00  0.00    -0.002 C 
ATOM     25  C   UNL     1      35.264 -22.907 -16.409  0.00  0.00    +0.010 C 
BRANCH  25  26
ATOM     26  C   UNL     1      34.924 -23.595 -15.129  0.00  0.00    +0.194 C 
ATOM     27  C   UNL     1      33.422 -23.958 -15.000  0.00  0.00    +0.043 C 
BRANCH  26  31
ATOM     28  F   UNL     1      35.735 -25.278 -13.636  0.00  0.00    -0.167 F 
ATOM     29  F   UNL     1      37.074 -24.667 -15.240  0.00  0.00    -0.167 F 
ATOM     30  F   UNL     1      35.321 -25.878 -15.693  0.00  0.00    -0.167 F 
ATOM     31  C   UNL     1      35.774 -24.865 -14.922  0.00  0.00    +0.423 C 
ENDBRANCH  26  31
BRANCH  26  32
ATOM     32  O   UNL     1      35.195 -22.744 -13.992  0.00  0.00    -0.375 OA
ATOM     33  H   UNL     1      35.478 -21.870 -14.303  0.00  0.00    +0.211 HD
ENDBRANCH  26  32
ENDBRANCH  25  26
ENDBRANCH   3  20
BRANCH   2  34
ATOM     34  C   UNL     1      33.967 -19.884 -19.989  0.00  0.00    +0.076 C 
ATOM     35  C   UNL     1      32.813 -20.803 -20.268  0.00  0.00    +0.022 C 
ATOM     36  C   UNL     1      32.790 -19.392 -20.781  0.00  0.00    +0.022 C 
ENDBRANCH   2  34
TORSDOF 9
ENDMDL
MODEL 5
REMARK VINA RESULT:      -9.4      6.485     10.428
REMARK  Name = 25263223
REMARK  9 active torsions:
REMARK  status: ('A' for Active; 'I' for Inactive)
REMARK    1  A    between atoms: N_2  and  C_5
REMARK    2  A    between atoms: N_2  and  C_34
REMARK    3  A    between atoms: C_3  and  C_20
REMARK    4  A    between atoms: N_4  and  C_11
REMARK    5  A    between atoms: C_11  and  C_12
REMARK    6  A    between atoms: C_12  and  C_17
REMARK    7  A    between atoms: C_25  and  C_26
REMARK    8  A    between atoms: C_26  and  C_31
REMARK    9  A    between atoms: C_26  and  O_32
REMARK                            x       y       z     vdW  Elec       q    Type
REMARK                         _______ _______ _______ _____ _____    ______ ____
ROOT
ATOM      1  O   UNL     1      32.262 -12.815 -20.974  0.00  0.00    -0.270 OA
ATOM      2  N   UNL     1      32.931 -12.761 -23.221  0.00  0.00    -0.279 N 
ATOM      3  C   UNL     1      32.778 -13.347 -21.955  0.00  0.00    +0.249 C 
ENDROOT
BRANCH   2   5
ATOM      4  N   UNL     1      32.078  -8.655 -22.632  0.00  0.00    +0.387 N 
ATOM      5  C   UNL     1      32.476 -11.422 -23.499  0.00  0.00    +0.071 C 
ATOM      6  C   UNL     1      33.628 -10.419 -23.411  0.00  0.00    -0.003 C 
ATOM      7  C   UNL     1      31.352 -11.019 -22.545  0.00  0.00    -0.003 C 
ATOM      8  C   UNL     1      33.131  -8.985 -23.603  0.00  0.00    -0.076 C 
ATOM      9  C   UNL     1      30.931  -9.565 -22.764  0.00  0.00    -0.076 C 
ATOM     10  H   UNL     1      32.465  -8.771 -21.696  0.00  0.00    -0.080 HD
BRANCH   4  11
ATOM     11  C   UNL     1      31.650  -7.266 -22.795  0.00  0.00    -0.069 C 
BRANCH  11  12
ATOM     12  C   UNL     1      31.652  -6.541 -21.489  0.00  0.00    +0.050 C 
ATOM     13  C   UNL     1      30.544  -5.552 -21.269  0.00  0.00    +0.007 C 
ATOM     14  C   UNL     1      31.939  -5.069 -21.538  0.00  0.00    +0.007 C 
BRANCH  12  17
ATOM     15  O   UNL     1      31.421  -8.124 -19.768  0.00  0.00    -0.275 OA
ATOM     16  N   UNL     1      33.411  -6.966 -19.910  0.00  0.00    -0.329 N 
ATOM     17  C   UNL     1      32.137  -7.291 -20.310  0.00  0.00    +0.216 C 
ATOM     18  H   UNL     1      33.814  -7.417 -19.133  0.00  0.00    +0.145 HD
ATOM     19  H   UNL     1      33.922  -6.283 -20.401  0.00  0.00    +0.145 HD
ENDBRANCH  12  17
ENDBRANCH  11  12
ENDBRANCH   4  11
ENDBRANCH   2   5
BRANCH   3  20
ATOM     20  C   UNL     1      33.270 -14.722 -21.776  0.00  0.00    +0.054 C 
ATOM     21  C   UNL     1      32.458 -15.679 -21.166  0.00  0.00    +0.004 C 
ATOM     22  C   UNL     1      34.547 -15.070 -22.217  0.00  0.00    +0.004 C 
ATOM     23  C   UNL     1      32.923 -16.982 -20.996  0.00  0.00    -0.002 C 
ATOM     24  C   UNL     1      35.012 -16.374 -22.046  0.00  0.00    -0.002 C 
ATOM     25  C   UNL     1      34.200 -17.330 -21.436  0.00  0.00    +0.010 C 
BRANCH  25  26
ATOM     26  C   UNL     1      34.697 -18.725 -21.255  0.00  0.00    +0.194 C 
ATOM     27  C   UNL     1      33.676 -19.662 -20.560  0.00  0.00    +0.043 C 
BRANCH  26  31
ATOM     28  F   UNL     1      36.295 -18.817 -23.032  0.00  0.00    -0.167 F 
ATOM     29  F   UNL     1      34.215 -19.167 -23.569  0.00  0.00    -0.167 F 
ATOM     30  F   UNL     1      35.320 -20.684 -22.463  0.00  0.00    -0.167 F 
ATOM     31  C   UNL     1      35.134 -19.352 -22.594  0.00  0.00    +0.423 C 
ENDBRANCH  26  31
BRANCH  26  32
ATOM     32  O   UNL     1      35.864 -18.755 -20.401  0.00  0.00    -0.375 OA
ATOM     33  H   UNL     1      36.110 -19.676 -20.222  0.00  0.00    +0.211 HD
ENDBRANCH  26  32
ENDBRANCH  25  26
ENDBRANCH   3  20
BRANCH   2  34
ATOM     34  C   UNL     1      33.559 -13.474 -24.328  0.00  0.00    +0.076 C 
ATOM     35  C   UNL     1      33.438 -12.976 -25.740  0.00  0.00    +0.022 C 
ATOM     36  C   UNL     1      32.736 -14.237 -25.325  0.00  0.00    +0.022 C 
ENDBRANCH   2  34
TORSDOF 9
ENDMDL
MODEL 6
REMARK VINA RESULT:      -9.4      6.821     10.774
REMARK  Name = 25263223
REMARK  9 active torsions:
REMARK  status: ('A' for Active; 'I' for Inactive)
REMARK    1  A    between atoms: N_2  and  C_5
REMARK    2  A    between atoms: N_2  and  C_34
REMARK    3  A    between atoms: C_3  and  C_20
REMARK    4  A    between atoms: N_4  and  C_11
REMARK    5  A    between atoms: C_11  and  C_12
REMARK    6  A    between atoms: C_12  and  C_17
REMARK    7  A    between atoms: C_25  and  C_26
REMARK    8  A    between atoms: C_26  and  C_31
REMARK    9  A    between atoms: C_26  and  O_32
REMARK                            x       y       z     vdW  Elec       q    Type
REMARK                         _______ _______ _______ _____ _____    ______ ____
ROOT
ATOM      1  O   UNL     1      32.099 -12.757 -19.532  0.00  0.00    -0.270 OA
ATOM      2  N   UNL     1      32.204 -12.327 -21.835  0.00  0.00    -0.279 N 
ATOM      3  C   UNL     1      32.385 -13.099 -20.678  0.00  0.00    +0.249 C 
ENDROOT
BRANCH   2   5
ATOM      4  N   UNL     1      31.908  -8.120 -22.222  0.00  0.00    +0.387 N 
ATOM      5  C   UNL     1      31.640 -11.001 -21.784  0.00  0.00    +0.071 C 
ATOM      6  C   UNL     1      31.570 -10.377 -23.178  0.00  0.00    -0.003 C 
ATOM      7  C   UNL     1      32.444 -10.104 -20.843  0.00  0.00    -0.003 C 
ATOM      8  C   UNL     1      31.070  -8.933 -23.116  0.00  0.00    -0.076 C 
ATOM      9  C   UNL     1      31.916  -8.668 -20.858  0.00  0.00    -0.076 C 
ATOM     10  H   UNL     1      32.863  -8.146 -22.577  0.00  0.00    -0.080 HD
BRANCH   4  11
ATOM     11  C   UNL     1      31.448  -6.731 -22.213  0.00  0.00    -0.069 C 
BRANCH  11  12
ATOM     12  C   UNL     1      31.969  -5.979 -23.393  0.00  0.00    +0.050 C 
ATOM     13  C   UNL     1      31.637  -4.516 -23.456  0.00  0.00    +0.007 C 
ATOM     14  C   UNL     1      30.950  -5.482 -24.376  0.00  0.00    +0.007 C 
BRANCH  12  17
ATOM     15  O   UNL     1      34.084  -6.986 -23.211  0.00  0.00    -0.275 OA
ATOM     16  N   UNL     1      33.489  -6.085 -25.250  0.00  0.00    -0.329 N 
ATOM     17  C   UNL     1      33.281  -6.402 -23.929  0.00  0.00    +0.216 C 
ATOM     18  H   UNL     1      34.337  -6.330 -25.688  0.00  0.00    +0.145 HD
ATOM     19  H   UNL     1      32.791  -5.614 -25.759  0.00  0.00    +0.145 HD
ENDBRANCH  12  17
ENDBRANCH  11  12
ENDBRANCH   4  11
ENDBRANCH   2   5
BRANCH   3  20
ATOM     20  C   UNL     1      32.962 -14.443 -20.839  0.00  0.00    +0.054 C 
ATOM     21  C   UNL     1      32.128 -15.539 -21.062  0.00  0.00    +0.004 C 
ATOM     22  C   UNL     1      34.344 -14.623 -20.771  0.00  0.00    +0.004 C 
ATOM     23  C   UNL     1      32.673 -16.813 -21.214  0.00  0.00    -0.002 C 
ATOM     24  C   UNL     1      34.890 -15.897 -20.923  0.00  0.00    -0.002 C 
ATOM     25  C   UNL     1      34.055 -16.992 -21.145  0.00  0.00    +0.010 C 
BRANCH  25  26
ATOM     26  C   UNL     1      34.639 -18.354 -21.310  0.00  0.00    +0.194 C 
ATOM     27  C   UNL     1      33.674 -19.497 -20.901  0.00  0.00    +0.043 C 
BRANCH  26  31
ATOM     28  F   UNL     1      36.463 -18.396 -22.856  0.00  0.00    -0.167 F 
ATOM     29  F   UNL     1      34.531 -17.766 -23.639  0.00  0.00    -0.167 F 
ATOM     30  F   UNL     1      34.870 -19.860 -23.144  0.00  0.00    -0.167 F 
ATOM     31  C   UNL     1      35.130 -18.593 -22.751  0.00  0.00    +0.423 C 
ENDBRANCH  26  31
BRANCH  26  32
ATOM     32  O   UNL     1      35.797 -18.531 -20.460  0.00  0.00    -0.375 OA
ATOM     33  H   UNL     1      36.548 -18.042 -20.831  0.00  0.00    +0.211 HD
ENDBRANCH  26  32
ENDBRANCH  25  26
ENDBRANCH   3  20
BRANCH   2  34
ATOM     34  C   UNL     1      32.575 -12.820 -23.157  0.00  0.00    +0.076 C 
ATOM     35  C   UNL     1      33.948 -13.365 -23.425  0.00  0.00    +0.022 C 
ATOM     36  C   UNL     1      33.527 -12.056 -24.030  0.00  0.00    +0.022 C 
ENDBRANCH   2  34
TORSDOF 9
ENDMDL
MODEL 7
REMARK VINA RESULT:      -9.4      6.548     10.391
REMARK  Name = 25263223
REMARK  9 active torsions:
REMARK  status: ('A' for Active; 'I' for Inactive)
REMARK    1  A    between atoms: N_2  and  C_5
REMARK    2  A    between atoms: N_2  and  C_34
REMARK    3  A    between atoms: C_3  and  C_20
REMARK    4  A    between atoms: N_4  and  C_11
REMARK    5  A    between atoms: C_11  and  C_12
REMARK    6  A    between atoms: C_12  and  C_17
REMARK    7  A    between atoms: C_25  and  C_26
REMARK    8  A    between atoms: C_26  and  C_31
REMARK    9  A    between atoms: C_26  and  O_32
REMARK                            x       y       z     vdW  Elec       q    Type
REMARK                         _______ _______ _______ _____ _____    ______ ____
ROOT
ATOM      1  O   UNL     1      32.992 -12.737 -21.456  0.00  0.00    -0.270 OA
ATOM      2  N   UNL     1      33.341 -12.669 -23.773  0.00  0.00    -0.279 N 
ATOM      3  C   UNL     1      33.314 -13.280 -22.511  0.00  0.00    +0.249 C 
ENDROOT
BRANCH   2   5
ATOM      4  N   UNL     1      32.754  -8.567 -22.899  0.00  0.00    +0.387 N 
ATOM      5  C   UNL     1      32.976 -11.287 -23.957  0.00  0.00    +0.071 C 
ATOM      6  C   UNL     1      34.190 -10.370 -23.799  0.00  0.00    -0.003 C 
ATOM      7  C   UNL     1      31.875 -10.880 -22.978  0.00  0.00    -0.003 C 
ATOM      8  C   UNL     1      33.788  -8.896 -23.890  0.00  0.00    -0.076 C 
ATOM      9  C   UNL     1      31.551  -9.389 -23.094  0.00  0.00    -0.076 C 
ATOM     10  H   UNL     1      33.128  -8.773 -21.973  0.00  0.00    -0.080 HD
BRANCH   4  11
ATOM     11  C   UNL     1      32.418  -7.145 -22.964  0.00  0.00    -0.069 C 
BRANCH  11  12
ATOM     12  C   UNL     1      31.910  -6.647 -21.650  0.00  0.00    +0.050 C 
ATOM     13  C   UNL     1      30.579  -5.953 -21.665  0.00  0.00    +0.007 C 
ATOM     14  C   UNL     1      31.838  -5.158 -21.480  0.00  0.00    +0.007 C 
BRANCH  12  17
ATOM     15  O   UNL     1      31.563  -8.428 -20.159  0.00  0.00    -0.275 OA
ATOM     16  N   UNL     1      33.339  -7.013 -19.754  0.00  0.00    -0.329 N 
ATOM     17  C   UNL     1      32.243  -7.454 -20.456  0.00  0.00    +0.216 C 
ATOM     18  H   UNL     1      33.632  -7.491 -18.946  0.00  0.00    +0.145 HD
ATOM     19  H   UNL     1      33.833  -6.218 -20.062  0.00  0.00    +0.145 HD
ENDBRANCH  12  17
ENDBRANCH  11  12
ENDBRANCH   4  11
ENDBRANCH   2   5
BRANCH   3  20
ATOM     20  C   UNL     1      33.699 -14.698 -22.431  0.00  0.00    +0.054 C 
ATOM     21  C   UNL     1      33.070 -15.541 -21.514  0.00  0.00    +0.004 C 
ATOM     22  C   UNL     1      34.691 -15.201 -23.273  0.00  0.00    +0.004 C 
ATOM     23  C   UNL     1      33.434 -16.884 -21.437  0.00  0.00    -0.002 C 
ATOM     24  C   UNL     1      35.056 -16.545 -23.196  0.00  0.00    -0.002 C 
ATOM     25  C   UNL     1      34.427 -17.387 -22.279  0.00  0.00    +0.010 C 
BRANCH  25  26
ATOM     26  C   UNL     1      34.815 -18.825 -22.198  0.00  0.00    +0.194 C 
ATOM     27  C   UNL     1      35.062 -19.479 -23.582  0.00  0.00    +0.043 C 
BRANCH  26  31
ATOM     28  F   UNL     1      36.019 -18.232 -20.219  0.00  0.00    -0.167 F 
ATOM     29  F   UNL     1      37.208 -18.757 -21.966  0.00  0.00    -0.167 F 
ATOM     30  F   UNL     1      36.134 -20.310 -20.879  0.00  0.00    -0.167 F 
ATOM     31  C   UNL     1      36.057 -19.030 -21.309  0.00  0.00    +0.423 C 
ENDBRANCH  26  31
BRANCH  26  32
ATOM     32  O   UNL     1      33.762 -19.616 -21.601  0.00  0.00    -0.375 OA
ATOM     33  H   UNL     1      32.933 -19.466 -22.081  0.00  0.00    +0.211 HD
ENDBRANCH  26  32
ENDBRANCH  25  26
ENDBRANCH   3  20
BRANCH   2  34
ATOM     34  C   UNL     1      33.740 -13.397 -24.973  0.00  0.00    +0.076 C 
ATOM     35  C   UNL     1      33.460 -12.850 -26.343  0.00  0.00    +0.022 C 
ATOM     36  C   UNL     1      32.720 -14.060 -25.853  0.00  0.00    +0.022 C 
ENDBRANCH   2  34
TORSDOF 9
ENDMDL
MODEL 8
REMARK VINA RESULT:      -9.1      8.567     13.127
REMARK  Name = 25263223
REMARK  9 active torsions:
REMARK  status: ('A' for Active; 'I' for Inactive)
REMARK    1  A    between atoms: N_2  and  C_5
REMARK    2  A    between atoms: N_2  and  C_34
REMARK    3  A    between atoms: C_3  and  C_20
REMARK    4  A    between atoms: N_4  and  C_11
REMARK    5  A    between atoms: C_11  and  C_12
REMARK    6  A    between atoms: C_12  and  C_17
REMARK    7  A    between atoms: C_25  and  C_26
REMARK    8  A    between atoms: C_26  and  C_31
REMARK    9  A    between atoms: C_26  and  O_32
REMARK                            x       y       z     vdW  Elec       q    Type
REMARK                         _______ _______ _______ _____ _____    ______ ____
ROOT
ATOM      1  O   UNL     1      30.695 -11.762 -21.666  0.00  0.00    -0.270 OA
ATOM      2  N   UNL     1      32.423 -10.443 -22.543  0.00  0.00    -0.279 N 
ATOM      3  C   UNL     1      31.794 -11.650 -22.205  0.00  0.00    +0.249 C 
ENDROOT
BRANCH   2   5
ATOM      4  N   UNL     1      31.617  -6.294 -22.807  0.00  0.00    +0.387 N 
ATOM      5  C   UNL     1      31.811  -9.165 -22.277  0.00  0.00    +0.071 C 
ATOM      6  C   UNL     1      31.129  -8.609 -23.528  0.00  0.00    -0.003 C 
ATOM      7  C   UNL     1      32.841  -8.167 -21.749  0.00  0.00    -0.003 C 
ATOM      8  C   UNL     1      30.568  -7.208 -23.279  0.00  0.00    -0.076 C 
ATOM      9  C   UNL     1      32.224  -6.780 -21.559  0.00  0.00    -0.076 C 
ATOM     10  H   UNL     1      32.347  -6.258 -23.518  0.00  0.00    -0.080 HD
BRANCH   4  11
ATOM     11  C   UNL     1      31.077  -4.947 -22.622  0.00  0.00    -0.069 C 
BRANCH  11  12
ATOM     12  C   UNL     1      31.403  -4.067 -23.783  0.00  0.00    +0.050 C 
ATOM     13  C   UNL     1      30.806  -4.453 -25.106  0.00  0.00    +0.007 C 
ATOM     14  C   UNL     1      32.271  -4.662 -24.853  0.00  0.00    +0.007 C 
BRANCH  12  17
ATOM     15  O   UNL     1      32.364  -1.953 -24.141  0.00  0.00    -0.275 OA
ATOM     16  N   UNL     1      30.750  -2.142 -22.504  0.00  0.00    -0.329 N 
ATOM     17  C   UNL     1      31.560  -2.623 -23.504  0.00  0.00    +0.216 C 
ATOM     18  H   UNL     1      30.789  -1.191 -22.252  0.00  0.00    +0.145 HD
ATOM     19  H   UNL     1      30.129  -2.748 -22.040  0.00  0.00    +0.145 HD
ENDBRANCH  12  17
ENDBRANCH  11  12
ENDBRANCH   4  11
ENDBRANCH   2   5
BRANCH   3  20
ATOM     20  C   UNL     1      32.501 -12.901 -22.526  0.00  0.00    +0.054 C 
ATOM     21  C   UNL     1      32.681 -13.278 -23.857  0.00  0.00    +0.004 C 
ATOM     22  C   UNL     1      32.991 -13.708 -21.500  0.00  0.00    +0.004 C 
ATOM     23  C   UNL     1      33.350 -14.462 -24.162  0.00  0.00    -0.002 C 
ATOM     24  C   UNL     1      33.660 -14.894 -21.805  0.00  0.00    -0.002 C 
ATOM     25  C   UNL     1      33.839 -15.271 -23.136  0.00  0.00    +0.010 C 
BRANCH  25  26
ATOM     26  C   UNL     1      34.557 -16.537 -23.462  0.00  0.00    +0.194 C 
ATOM     27  C   UNL     1      34.249 -17.696 -22.478  0.00  0.00    +0.043 C 
BRANCH  26  31
ATOM     28  F   UNL     1      35.299 -16.724 -25.728  0.00  0.00    -0.167 F 
ATOM     29  F   UNL     1      33.168 -16.404 -25.421  0.00  0.00    -0.167 F 
ATOM     30  F   UNL     1      34.054 -18.336 -24.944  0.00  0.00    -0.167 F 
ATOM     31  C   UNL     1      34.265 -17.002 -24.903  0.00  0.00    +0.423 C 
ENDBRANCH  26  31
BRANCH  26  32
ATOM     32  O   UNL     1      35.990 -16.359 -23.383  0.00  0.00    -0.375 OA
ATOM     33  H   UNL     1      36.369 -17.041 -22.807  0.00  0.00    +0.211 HD
ENDBRANCH  26  32
ENDBRANCH  25  26
ENDBRANCH   3  20
BRANCH   2  34
ATOM     34  C   UNL     1      33.733 -10.410 -23.184  0.00  0.00    +0.076 C 
ATOM     35  C   UNL     1      34.181  -9.217 -23.978  0.00  0.00    +0.022 C 
ATOM     36  C   UNL     1      33.871 -10.510 -24.675  0.00  0.00    +0.022 C 
ENDBRANCH   2  34
TORSDOF 9
ENDMDL
MODEL 9
REMARK VINA RESULT:      -9.1      1.478      2.169
REMARK  Name = 25263223
REMARK  9 active torsions:
REMARK  status: ('A' for Active; 'I' for Inactive)
REMARK    1  A    between atoms: N_2  and  C_5
REMARK    2  A    between atoms: N_2  and  C_34
REMARK    3  A    between atoms: C_3  and  C_20
REMARK    4  A    between atoms: N_4  and  C_11
REMARK    5  A    between atoms: C_11  and  C_12
REMARK    6  A    between atoms: C_12  and  C_17
REMARK    7  A    between atoms: C_25  and  C_26
REMARK    8  A    between atoms: C_26  and  C_31
REMARK    9  A    between atoms: C_26  and  O_32
REMARK                            x       y       z     vdW  Elec       q    Type
REMARK                         _______ _______ _______ _____ _____    ______ ____
ROOT
ATOM      1  O   UNL     1      33.166 -23.147 -17.609  0.00  0.00    -0.270 OA
ATOM      2  N   UNL     1      35.276 -22.280 -18.152  0.00  0.00    -0.279 N 
ATOM      3  C   UNL     1      34.348 -22.945 -17.337  0.00  0.00    +0.249 C 
ENDROOT
BRANCH   2   5
ATOM      4  N   UNL     1      34.357 -19.449 -21.164  0.00  0.00    +0.387 N 
ATOM      5  C   UNL     1      34.913 -21.749 -19.442  0.00  0.00    +0.071 C 
ATOM      6  C   UNL     1      36.025 -20.863 -20.006  0.00  0.00    -0.003 C 
ATOM      7  C   UNL     1      33.604 -20.964 -19.358  0.00  0.00    -0.003 C 
ATOM      8  C   UNL     1      35.601 -20.214 -21.325  0.00  0.00    -0.076 C 
ATOM      9  C   UNL     1      33.261 -20.311 -20.698  0.00  0.00    -0.076 C 
ATOM     10  H   UNL     1      34.517 -18.733 -20.456  0.00  0.00    -0.080 HD
BRANCH   4  11
ATOM     11  C   UNL     1      33.993 -18.793 -22.420  0.00  0.00    -0.069 C 
BRANCH  11  12
ATOM     12  C   UNL     1      34.456 -17.373 -22.444  0.00  0.00    +0.050 C 
ATOM     13  C   UNL     1      34.312 -16.644 -23.748  0.00  0.00    +0.007 C 
ATOM     14  C   UNL     1      35.669 -17.077 -23.276  0.00  0.00    +0.007 C 
BRANCH  12  17
ATOM     15  O   UNL     1      35.184 -16.497 -20.390  0.00  0.00    -0.275 OA
ATOM     16  N   UNL     1      33.034 -16.010 -21.070  0.00  0.00    -0.329 N 
ATOM     17  C   UNL     1      34.273 -16.590 -21.204  0.00  0.00    +0.216 C 
ATOM     18  H   UNL     1      32.826 -15.469 -20.273  0.00  0.00    +0.145 HD
ATOM     19  H   UNL     1      32.355 -16.133 -21.772  0.00  0.00    +0.145 HD
ENDBRANCH  12  17
ENDBRANCH  11  12
ENDBRANCH   4  11
ENDBRANCH   2   5
BRANCH   3  20
ATOM     20  C   UNL     1      34.822 -23.457 -16.041  0.00  0.00    +0.054 C 
ATOM     21  C   UNL     1      35.821 -24.429 -15.998  0.00  0.00    +0.004 C 
ATOM     22  C   UNL     1      34.272 -22.969 -14.855  0.00  0.00    +0.004 C 
ATOM     23  C   UNL     1      36.270 -24.915 -14.771  0.00  0.00    -0.002 C 
ATOM     24  C   UNL     1      34.721 -23.456 -13.627  0.00  0.00    -0.002 C 
ATOM     25  C   UNL     1      35.720 -24.428 -13.585  0.00  0.00    +0.010 C 
BRANCH  25  26
ATOM     26  C   UNL     1      36.202 -24.946 -12.272  0.00  0.00    +0.194 C 
ATOM     27  C   UNL     1      36.999 -26.272 -12.383  0.00  0.00    +0.043 C 
BRANCH  26  31
ATOM     28  F   UNL     1      36.529 -23.617 -10.311  0.00  0.00    -0.167 F 
ATOM     29  F   UNL     1      37.144 -22.734 -12.204  0.00  0.00    -0.167 F 
ATOM     30  F   UNL     1      38.312 -24.353 -11.332  0.00  0.00    -0.167 F 
ATOM     31  C   UNL     1      37.053 -23.901 -11.524  0.00  0.00    +0.423 C 
ENDBRANCH  26  31
BRANCH  26  32
ATOM     32  O   UNL     1      35.093 -25.258 -11.396  0.00  0.00    -0.375 OA
ATOM     33  H   UNL     1      34.681 -24.435 -11.091  0.00  0.00    +0.211 HD
ENDBRANCH  26  32
ENDBRANCH  25  26
ENDBRANCH   3  20
BRANCH   2  34
ATOM     34  C   UNL     1      36.663 -22.089 -17.741  0.00  0.00    +0.076 C 
ATOM     35  C   UNL     1      37.003 -21.533 -16.389  0.00  0.00    +0.022 C 
ATOM     36  C   UNL     1      37.254 -20.714 -17.621  0.00  0.00    +0.022 C 
ENDBRANCH   2  34
TORSDOF 9
ENDMDL
