MODEL 1
REMARK VINA RESULT:      -9.1      0.000      0.000
REMARK  Name = 483499
REMARK  5 active torsions:
REMARK  status: ('A' for Active; 'I' for Inactive)
REMARK    1  A    between atoms: N_3  and  C_23
REMARK    2  A    between atoms: C_5  and  C_14
REMARK    3  A    between atoms: C_7  and  C_10
REMARK    4  A    between atoms: C_14  and  C_15
REMARK    5  A    between atoms: C_23  and  C_24
REMARK                            x       y       z     vdW  Elec       q    Type
REMARK                         _______ _______ _______ _____ _____    ______ ____
ROOT
ATOM      1  O   UNL     1      30.849 -22.692 -14.070  0.00  0.00    -0.246 OA
ATOM      2  O   UNL     1      35.318 -23.351 -13.365  0.00  0.00    -0.267 OA
ATOM      3  N   UNL     1      32.200 -23.110 -15.932  0.00  0.00    -0.279 N 
ATOM      4  N   UNL     1      33.077 -23.050 -13.745  0.00  0.00    -0.275 N 
ATOM      5  C   UNL     1      33.476 -23.403 -16.416  0.00  0.00    +0.103 A 
ATOM      6  C   UNL     1      31.954 -22.936 -14.559  0.00  0.00    +0.331 A 
ATOM      7  C   UNL     1      34.554 -23.527 -15.616  0.00  0.00    +0.053 A 
ATOM      8  C   UNL     1      34.372 -23.307 -14.148  0.00  0.00    +0.258 A 
ATOM      9  H   UNL     1      32.933 -22.935 -12.778  0.00  0.00    +0.173 HD
ENDROOT
BRANCH   7  10
ATOM     10  C   UNL     1      35.954 -23.899 -16.027  0.00  0.00    +0.029 C 
ATOM     11  C   UNL     1      36.898 -22.729 -15.785  0.00  0.00    +0.005 C 
ATOM     12  C   UNL     1      36.418 -25.143 -15.279  0.00  0.00    +0.005 C 
ENDBRANCH   7  10
BRANCH   5  14
ATOM     13  O   UNL     1      33.510 -24.673 -18.386  0.00  0.00    -0.285 OA
ATOM     14  C   UNL     1      33.671 -23.574 -17.869  0.00  0.00    +0.211 C 
BRANCH  14  15
ATOM     15  C   UNL     1      34.036 -22.394 -18.684  0.00  0.00    +0.040 C 
ATOM     16  C   UNL     1      33.032 -21.629 -19.245  0.00  0.00    -0.001 C 
ATOM     17  C   UNL     1      35.373 -22.090 -18.863  0.00  0.00    -0.001 C 
ATOM     18  C   UNL     1      33.377 -20.516 -20.013  0.00  0.00    -0.022 C 
ATOM     19  C   UNL     1      35.717 -20.978 -19.631  0.00  0.00    -0.022 C 
ATOM     20  C   UNL     1      34.719 -20.191 -20.207  0.00  0.00    -0.009 C 
ATOM     21  C   UNL     1      32.310 -19.675 -20.628  0.00  0.00    +0.031 C 
ATOM     22  C   UNL     1      37.153 -20.630 -19.837  0.00  0.00    +0.031 C 
ENDBRANCH  14  15
ENDBRANCH   5  14
BRANCH   3  23
ATOM     23  C   UNL     1      31.072 -22.975 -16.851  0.00  0.00    +0.111 C 
BRANCH  23  24
ATOM     24  C   UNL     1      29.749 -23.147 -16.135  0.00  0.00    +0.023 C 
ATOM     25  C   UNL     1      28.886 -24.294 -16.520  0.00  0.00    +0.002 C 
ATOM     26  C   UNL     1      28.499 -22.895 -16.898  0.00  0.00    +0.002 C 
ENDBRANCH  23  24
ENDBRANCH   3  23
TORSDOF 5
ENDMDL
MODEL 2
REMARK VINA RESULT:      -8.7      8.698     11.973
REMARK  Name = 483499
REMARK  5 active torsions:
REMARK  status: ('A' for Active; 'I' for Inactive)
REMARK    1  A    between atoms: N_3  and  C_23
REMARK    2  A    between atoms: C_5  and  C_14
REMARK    3  A    between atoms: C_7  and  C_10
REMARK    4  A    between atoms: C_14  and  C_15
REMARK    5  A    between atoms: C_23  and  C_24
REMARK                            x       y       z     vdW  Elec       q    Type
REMARK                         _______ _______ _______ _____ _____    ______ ____
ROOT
ATOM      1  O   UNL     1      35.774 -16.645 -21.841  0.00  0.00    -0.246 OA
ATOM      2  O   UNL     1      34.586 -16.740 -26.255  0.00  0.00    -0.267 OA
ATOM      3  N   UNL     1      34.285 -15.014 -22.609  0.00  0.00    -0.279 N 
ATOM      4  N   UNL     1      35.144 -16.684 -24.033  0.00  0.00    -0.275 N 
ATOM      5  C   UNL     1      33.545 -14.509 -23.678  0.00  0.00    +0.103 A 
ATOM      6  C   UNL     1      35.110 -16.143 -22.751  0.00  0.00    +0.331 A 
ATOM      7  C   UNL     1      33.574 -15.050 -24.913  0.00  0.00    +0.053 A 
ATOM      8  C   UNL     1      34.468 -16.227 -25.145  0.00  0.00    +0.258 A 
ATOM      9  H   UNL     1      35.712 -17.478 -24.160  0.00  0.00    +0.173 HD
ENDROOT
BRANCH   7  10
ATOM     10  C   UNL     1      32.772 -14.623 -26.113  0.00  0.00    +0.029 C 
ATOM     11  C   UNL     1      33.631 -13.776 -27.042  0.00  0.00    +0.005 C 
ATOM     12  C   UNL     1      32.210 -15.839 -26.841  0.00  0.00    +0.005 C 
ENDBRANCH   7  10
BRANCH   5  14
ATOM     13  O   UNL     1      31.549 -13.446 -23.060  0.00  0.00    -0.285 OA
ATOM     14  C   UNL     1      32.697 -13.318 -23.466  0.00  0.00    +0.211 C 
BRANCH  14  15
ATOM     15  C   UNL     1      33.269 -11.979 -23.730  0.00  0.00    +0.040 C 
ATOM     16  C   UNL     1      32.841 -10.905 -22.973  0.00  0.00    -0.001 C 
ATOM     17  C   UNL     1      34.215 -11.838 -24.728  0.00  0.00    -0.001 C 
ATOM     18  C   UNL     1      33.380  -9.643 -23.222  0.00  0.00    -0.022 C 
ATOM     19  C   UNL     1      34.754 -10.576 -24.977  0.00  0.00    -0.022 C 
ATOM     20  C   UNL     1      34.336  -9.478 -24.224  0.00  0.00    -0.009 C 
ATOM     21  C   UNL     1      32.935  -8.470 -22.417  0.00  0.00    +0.031 C 
ATOM     22  C   UNL     1      35.776 -10.399 -26.049  0.00  0.00    +0.031 C 
ENDBRANCH  14  15
ENDBRANCH   5  14
BRANCH   3  23
ATOM     23  C   UNL     1      34.223 -14.374 -21.297  0.00  0.00    +0.111 C 
BRANCH  23  24
ATOM     24  C   UNL     1      33.478 -15.232 -20.295  0.00  0.00    +0.023 C 
ATOM     25  C   UNL     1      32.305 -16.009 -20.770  0.00  0.00    +0.002 C 
ATOM     26  C   UNL     1      32.113 -14.811 -19.887  0.00  0.00    +0.002 C 
ENDBRANCH  23  24
ENDBRANCH   3  23
TORSDOF 5
ENDMDL
MODEL 3
REMARK VINA RESULT:      -8.7      8.707     12.038
REMARK  Name = 483499
REMARK  5 active torsions:
REMARK  status: ('A' for Active; 'I' for Inactive)
REMARK    1  A    between atoms: N_3  and  C_23
REMARK    2  A    between atoms: C_5  and  C_14
REMARK    3  A    between atoms: C_7  and  C_10
REMARK    4  A    between atoms: C_14  and  C_15
REMARK    5  A    between atoms: C_23  and  C_24
REMARK                            x       y       z     vdW  Elec       q    Type
REMARK                         _______ _______ _______ _____ _____    ______ ____
ROOT
ATOM      1  O   UNL     1      35.790 -16.640 -21.848  0.00  0.00    -0.246 OA
ATOM      2  O   UNL     1      34.595 -16.738 -26.260  0.00  0.00    -0.267 OA
ATOM      3  N   UNL     1      34.296 -15.013 -22.613  0.00  0.00    -0.279 N 
ATOM      4  N   UNL     1      35.157 -16.681 -24.039  0.00  0.00    -0.275 N 
ATOM      5  C   UNL     1      33.553 -14.509 -23.682  0.00  0.00    +0.103 A 
ATOM      6  C   UNL     1      35.123 -16.140 -22.757  0.00  0.00    +0.331 A 
ATOM      7  C   UNL     1      33.581 -15.051 -24.916  0.00  0.00    +0.053 A 
ATOM      8  C   UNL     1      34.477 -16.225 -25.150  0.00  0.00    +0.258 A 
ATOM      9  H   UNL     1      35.726 -17.474 -24.167  0.00  0.00    +0.173 HD
ENDROOT
BRANCH   7  10
ATOM     10  C   UNL     1      32.776 -14.626 -26.115  0.00  0.00    +0.029 C 
ATOM     11  C   UNL     1      33.632 -13.776 -27.045  0.00  0.00    +0.005 C 
ATOM     12  C   UNL     1      32.216 -15.843 -26.842  0.00  0.00    +0.005 C 
ENDBRANCH   7  10
BRANCH   5  14
ATOM     13  O   UNL     1      31.555 -13.452 -23.061  0.00  0.00    -0.285 OA
ATOM     14  C   UNL     1      32.703 -13.321 -23.468  0.00  0.00    +0.211 C 
BRANCH  14  15
ATOM     15  C   UNL     1      33.271 -11.980 -23.732  0.00  0.00    +0.040 C 
ATOM     16  C   UNL     1      34.216 -11.836 -24.730  0.00  0.00    -0.001 C 
ATOM     17  C   UNL     1      32.842 -10.908 -22.972  0.00  0.00    -0.001 C 
ATOM     18  C   UNL     1      34.752 -10.573 -24.978  0.00  0.00    -0.022 C 
ATOM     19  C   UNL     1      33.378  -9.645 -23.220  0.00  0.00    -0.022 C 
ATOM     20  C   UNL     1      34.334  -9.477 -24.223  0.00  0.00    -0.009 C 
ATOM     21  C   UNL     1      35.773 -10.392 -26.050  0.00  0.00    +0.031 C 
ATOM     22  C   UNL     1      32.931  -8.472 -22.413  0.00  0.00    +0.031 C 
ENDBRANCH  14  15
ENDBRANCH   5  14
BRANCH   3  23
ATOM     23  C   UNL     1      34.235 -14.373 -21.301  0.00  0.00    +0.111 C 
BRANCH  23  24
ATOM     24  C   UNL     1      33.487 -15.229 -20.300  0.00  0.00    +0.023 C 
ATOM     25  C   UNL     1      32.309 -15.999 -20.775  0.00  0.00    +0.002 C 
ATOM     26  C   UNL     1      32.124 -14.802 -19.890  0.00  0.00    +0.002 C 
ENDBRANCH  23  24
ENDBRANCH   3  23
TORSDOF 5
ENDMDL
MODEL 4
REMARK VINA RESULT:      -8.5      2.031      5.259
REMARK  Name = 483499
REMARK  5 active torsions:
REMARK  status: ('A' for Active; 'I' for Inactive)
REMARK    1  A    between atoms: N_3  and  C_23
REMARK    2  A    between atoms: C_5  and  C_14
REMARK    3  A    between atoms: C_7  and  C_10
REMARK    4  A    between atoms: C_14  and  C_15
REMARK    5  A    between atoms: C_23  and  C_24
REMARK                            x       y       z     vdW  Elec       q    Type
REMARK                         _______ _______ _______ _____ _____    ______ ____
ROOT
ATOM      1  O   UNL     1      36.761 -20.525 -19.214  0.00  0.00    -0.246 OA
ATOM      2  O   UNL     1      37.670 -22.518 -15.201  0.00  0.00    -0.267 OA
ATOM      3  N   UNL     1      35.214 -22.069 -18.385  0.00  0.00    -0.279 N 
ATOM      4  N   UNL     1      37.177 -21.515 -17.202  0.00  0.00    -0.275 N 
ATOM      5  C   UNL     1      34.854 -22.930 -17.347  0.00  0.00    +0.103 A 
ATOM      6  C   UNL     1      36.398 -21.312 -18.338  0.00  0.00    +0.331 A 
ATOM      7  C   UNL     1      35.609 -23.107 -16.244  0.00  0.00    +0.053 A 
ATOM      8  C   UNL     1      36.905 -22.367 -16.151  0.00  0.00    +0.258 A 
ATOM      9  H   UNL     1      38.010 -20.995 -17.143  0.00  0.00    +0.173 HD
ENDROOT
BRANCH   7  10
ATOM     10  C   UNL     1      35.285 -23.959 -15.046  0.00  0.00    +0.029 C 
ATOM     11  C   UNL     1      35.940 -25.326 -15.184  0.00  0.00    +0.005 C 
ATOM     12  C   UNL     1      35.724 -23.266 -13.762  0.00  0.00    +0.005 C 
ENDBRANCH   7  10
BRANCH   5  14
ATOM     13  O   UNL     1      33.503 -24.608 -18.271  0.00  0.00    -0.285 OA
ATOM     14  C   UNL     1      33.598 -23.699 -17.455  0.00  0.00    +0.211 C 
BRANCH  14  15
ATOM     15  C   UNL     1      32.478 -23.367 -16.548  0.00  0.00    +0.040 C 
ATOM     16  C   UNL     1      32.701 -23.346 -15.184  0.00  0.00    -0.001 C 
ATOM     17  C   UNL     1      31.237 -23.086 -17.089  0.00  0.00    -0.001 C 
ATOM     18  C   UNL     1      31.645 -23.033 -14.329  0.00  0.00    -0.022 C 
ATOM     19  C   UNL     1      30.181 -22.772 -16.233  0.00  0.00    -0.022 C 
ATOM     20  C   UNL     1      30.384 -22.747 -14.853  0.00  0.00    -0.009 C 
ATOM     21  C   UNL     1      31.862 -23.004 -12.854  0.00  0.00    +0.031 C 
ATOM     22  C   UNL     1      28.832 -22.466 -16.794  0.00  0.00    +0.031 C 
ENDBRANCH  14  15
ENDBRANCH   5  14
BRANCH   3  23
ATOM     23  C   UNL     1      34.360 -21.931 -19.563  0.00  0.00    +0.111 C 
BRANCH  23  24
ATOM     24  C   UNL     1      33.746 -20.549 -19.644  0.00  0.00    +0.023 C 
ATOM     25  C   UNL     1      32.631 -20.331 -20.600  0.00  0.00    +0.002 C 
ATOM     26  C   UNL     1      33.985 -19.745 -20.869  0.00  0.00    +0.002 C 
ENDBRANCH  23  24
ENDBRANCH   3  23
TORSDOF 5
ENDMDL
MODEL 5
REMARK VINA RESULT:      -8.3      0.846      4.536
REMARK  Name = 483499
REMARK  5 active torsions:
REMARK  status: ('A' for Active; 'I' for Inactive)
REMARK    1  A    between atoms: N_3  and  C_23
REMARK    2  A    between atoms: C_5  and  C_14
REMARK    3  A    between atoms: C_7  and  C_10
REMARK    4  A    between atoms: C_14  and  C_15
REMARK    5  A    between atoms: C_23  and  C_24
REMARK                            x       y       z     vdW  Elec       q    Type
REMARK                         _______ _______ _______ _____ _____    ______ ____
ROOT
ATOM      1  O   UNL     1      35.340 -23.423 -13.346  0.00  0.00    -0.246 OA
ATOM      2  O   UNL     1      30.809 -23.144 -13.891  0.00  0.00    -0.267 OA
ATOM      3  N   UNL     1      34.489 -23.573 -15.518  0.00  0.00    -0.279 N 
ATOM      4  N   UNL     1      33.085 -23.261 -13.650  0.00  0.00    -0.275 N 
ATOM      5  C   UNL     1      33.364 -23.540 -16.345  0.00  0.00    +0.103 A 
ATOM      6  C   UNL     1      34.384 -23.419 -14.125  0.00  0.00    +0.331 A 
ATOM      7  C   UNL     1      32.112 -23.371 -15.875  0.00  0.00    +0.053 A 
ATOM      8  C   UNL     1      31.925 -23.247 -14.396  0.00  0.00    +0.258 A 
ATOM      9  H   UNL     1      32.984 -23.148 -12.677  0.00  0.00    +0.173 HD
ENDROOT
BRANCH   7  10
ATOM     10  C   UNL     1      30.845 -23.259 -16.680  0.00  0.00    +0.029 C 
ATOM     11  C   UNL     1      30.005 -24.518 -16.512  0.00  0.00    +0.005 C 
ATOM     12  C   UNL     1      30.061 -22.017 -16.274  0.00  0.00    +0.005 C 
ENDBRANCH   7  10
BRANCH   5  14
ATOM     13  O   UNL     1      33.354 -24.804 -18.319  0.00  0.00    -0.285 OA
ATOM     14  C   UNL     1      33.538 -23.709 -17.801  0.00  0.00    +0.211 C 
BRANCH  14  15
ATOM     15  C   UNL     1      33.914 -22.532 -18.617  0.00  0.00    +0.040 C 
ATOM     16  C   UNL     1      35.251 -22.279 -18.854  0.00  0.00    -0.001 C 
ATOM     17  C   UNL     1      32.916 -21.718 -19.118  0.00  0.00    -0.001 C 
ATOM     18  C   UNL     1      35.604 -21.169 -19.622  0.00  0.00    -0.022 C 
ATOM     19  C   UNL     1      33.269 -20.608 -19.886  0.00  0.00    -0.022 C 
ATOM     20  C   UNL     1      34.614 -20.334 -20.138  0.00  0.00    -0.009 C 
ATOM     21  C   UNL     1      37.042 -20.876 -19.892  0.00  0.00    +0.031 C 
ATOM     22  C   UNL     1      32.210 -19.715 -20.438  0.00  0.00    +0.031 C 
ENDBRANCH  14  15
ENDBRANCH   5  14
BRANCH   3  23
ATOM     23  C   UNL     1      35.820 -23.773 -16.086  0.00  0.00    +0.111 C 
BRANCH  23  24
ATOM     24  C   UNL     1      36.825 -22.804 -15.501  0.00  0.00    +0.023 C 
ATOM     25  C   UNL     1      37.217 -21.622 -16.311  0.00  0.00    +0.002 C 
ATOM     26  C   UNL     1      38.182 -22.750 -16.102  0.00  0.00    +0.002 C 
ENDBRANCH  23  24
ENDBRANCH   3  23
TORSDOF 5
ENDMDL
MODEL 6
REMARK VINA RESULT:      -8.1      6.520      9.858
REMARK  Name = 483499
REMARK  5 active torsions:
REMARK  status: ('A' for Active; 'I' for Inactive)
REMARK    1  A    between atoms: N_3  and  C_23
REMARK    2  A    between atoms: C_5  and  C_14
REMARK    3  A    between atoms: C_7  and  C_10
REMARK    4  A    between atoms: C_14  and  C_15
REMARK    5  A    between atoms: C_23  and  C_24
REMARK                            x       y       z     vdW  Elec       q    Type
REMARK                         _______ _______ _______ _____ _____    ______ ____
ROOT
ATOM      1  O   UNL     1      34.065 -15.945 -26.043  0.00  0.00    -0.246 OA
ATOM      2  O   UNL     1      31.778 -12.982 -23.415  0.00  0.00    -0.267 OA
ATOM      3  N   UNL     1      34.439 -16.013 -23.736  0.00  0.00    -0.279 N 
ATOM      4  N   UNL     1      32.918 -14.496 -24.705  0.00  0.00    -0.275 N 
ATOM      5  C   UNL     1      34.115 -15.506 -22.477  0.00  0.00    +0.103 A 
ATOM      6  C   UNL     1      33.832 -15.526 -24.907  0.00  0.00    +0.331 A 
ATOM      7  C   UNL     1      33.216 -14.517 -22.293  0.00  0.00    +0.053 A 
ATOM      8  C   UNL     1      32.567 -13.921 -23.501  0.00  0.00    +0.258 A 
ATOM      9  H   UNL     1      32.476 -14.138 -25.509  0.00  0.00    +0.173 HD
ENDROOT
BRANCH   7  10
ATOM     10  C   UNL     1      32.751 -13.943 -20.981  0.00  0.00    +0.029 C 
ATOM     11  C   UNL     1      31.945 -12.674 -21.222  0.00  0.00    +0.005 C 
ATOM     12  C   UNL     1      31.938 -14.972 -20.205  0.00  0.00    +0.005 C 
ENDBRANCH   7  10
BRANCH   5  14
ATOM     13  O   UNL     1      35.323 -15.307 -20.478  0.00  0.00    -0.285 OA
ATOM     14  C   UNL     1      34.788 -16.058 -21.285  0.00  0.00    +0.211 C 
BRANCH  14  15
ATOM     15  C   UNL     1      34.782 -17.523 -21.076  0.00  0.00    +0.040 C 
ATOM     16  C   UNL     1      33.572 -18.191 -21.041  0.00  0.00    -0.001 C 
ATOM     17  C   UNL     1      35.985 -18.184 -20.920  0.00  0.00    -0.001 C 
ATOM     18  C   UNL     1      33.566 -19.571 -20.844  0.00  0.00    -0.022 C 
ATOM     19  C   UNL     1      35.979 -19.565 -20.723  0.00  0.00    -0.022 C 
ATOM     20  C   UNL     1      34.769 -20.259 -20.684  0.00  0.00    -0.009 C 
ATOM     21  C   UNL     1      32.273 -20.314 -20.804  0.00  0.00    +0.031 C 
ATOM     22  C   UNL     1      37.267 -20.300 -20.552  0.00  0.00    +0.031 C 
ENDBRANCH  14  15
ENDBRANCH   5  14
BRANCH   3  23
ATOM     23  C   UNL     1      35.432 -17.076 -23.873  0.00  0.00    +0.111 C 
BRANCH  23  24
ATOM     24  C   UNL     1      34.949 -18.172 -24.800  0.00  0.00    +0.023 C 
ATOM     25  C   UNL     1      33.782 -18.987 -24.376  0.00  0.00    +0.002 C 
ATOM     26  C   UNL     1      35.158 -19.584 -24.388  0.00  0.00    +0.002 C 
ENDBRANCH  23  24
ENDBRANCH   3  23
TORSDOF 5
ENDMDL
MODEL 7
REMARK VINA RESULT:      -8.0     14.108     17.273
REMARK  Name = 483499
REMARK  5 active torsions:
REMARK  status: ('A' for Active; 'I' for Inactive)
REMARK    1  A    between atoms: N_3  and  C_23
REMARK    2  A    between atoms: C_5  and  C_14
REMARK    3  A    between atoms: C_7  and  C_10
REMARK    4  A    between atoms: C_14  and  C_15
REMARK    5  A    between atoms: C_23  and  C_24
REMARK                            x       y       z     vdW  Elec       q    Type
REMARK                         _______ _______ _______ _____ _____    ______ ____
ROOT
ATOM      1  O   UNL     1      31.101  -4.822 -25.419  0.00  0.00    -0.246 OA
ATOM      2  O   UNL     1      30.709  -5.883 -20.989  0.00  0.00    -0.267 OA
ATOM      3  N   UNL     1      32.700  -6.254 -24.492  0.00  0.00    -0.279 N 
ATOM      4  N   UNL     1      30.916  -5.389 -23.218  0.00  0.00    -0.275 N 
ATOM      5  C   UNL     1      33.141  -6.952 -23.366  0.00  0.00    +0.103 A 
ATOM      6  C   UNL     1      31.548  -5.449 -24.456  0.00  0.00    +0.331 A 
ATOM      7  C   UNL     1      32.511  -6.898 -22.176  0.00  0.00    +0.053 A 
ATOM      8  C   UNL     1      31.304  -6.023 -22.056  0.00  0.00    +0.258 A 
ATOM      9  H   UNL     1      30.104  -4.834 -23.166  0.00  0.00    +0.173 HD
ENDROOT
BRANCH   7  10
ATOM     10  C   UNL     1      32.865  -7.656 -20.924  0.00  0.00    +0.029 C 
ATOM     11  C   UNL     1      32.859  -6.717 -19.725  0.00  0.00    +0.005 C 
ATOM     12  C   UNL     1      31.905  -8.821 -20.714  0.00  0.00    +0.005 C 
ENDBRANCH   7  10
BRANCH   5  14
ATOM     13  O   UNL     1      35.435  -7.339 -23.082  0.00  0.00    -0.285 OA
ATOM     14  C   UNL     1      34.359  -7.780 -23.467  0.00  0.00    +0.211 C 
BRANCH  14  15
ATOM     15  C   UNL     1      34.247  -9.151 -24.014  0.00  0.00    +0.040 C 
ATOM     16  C   UNL     1      34.909  -9.462 -25.186  0.00  0.00    -0.001 C 
ATOM     17  C   UNL     1      33.481 -10.083 -23.338  0.00  0.00    -0.001 C 
ATOM     18  C   UNL     1      34.803 -10.753 -25.702  0.00  0.00    -0.022 C 
ATOM     19  C   UNL     1      33.375 -11.374 -23.854  0.00  0.00    -0.022 C 
ATOM     20  C   UNL     1      34.036 -11.709 -25.037  0.00  0.00    -0.009 C 
ATOM     21  C   UNL     1      35.510 -11.113 -26.965  0.00  0.00    +0.031 C 
ATOM     22  C   UNL     1      32.555 -12.397 -23.143  0.00  0.00    +0.031 C 
ENDBRANCH  14  15
ENDBRANCH   5  14
BRANCH   3  23
ATOM     23  C   UNL     1      33.434  -6.341 -25.752  0.00  0.00    +0.111 C 
BRANCH  23  24
ATOM     24  C   UNL     1      34.123  -5.034 -26.085  0.00  0.00    +0.023 C 
ATOM     25  C   UNL     1      33.920  -4.458 -27.439  0.00  0.00    +0.002 C 
ATOM     26  C   UNL     1      35.242  -5.059 -27.063  0.00  0.00    +0.002 C 
ENDBRANCH  23  24
ENDBRANCH   3  23
TORSDOF 5
ENDMDL
MODEL 8
REMARK VINA RESULT:      -7.8      2.059      5.261
REMARK  Name = 483499
REMARK  5 active torsions:
REMARK  status: ('A' for Active; 'I' for Inactive)
REMARK    1  A    between atoms: N_3  and  C_23
REMARK    2  A    between atoms: C_5  and  C_14
REMARK    3  A    between atoms: C_7  and  C_10
REMARK    4  A    between atoms: C_14  and  C_15
REMARK    5  A    between atoms: C_23  and  C_24
REMARK                            x       y       z     vdW  Elec       q    Type
REMARK                         _______ _______ _______ _____ _____    ______ ____
ROOT
ATOM      1  O   UNL     1      37.436 -20.456 -17.444  0.00  0.00    -0.246 OA
ATOM      2  O   UNL     1      37.936 -23.854 -14.426  0.00  0.00    -0.267 OA
ATOM      3  N   UNL     1      35.715 -22.029 -17.273  0.00  0.00    -0.279 N 
ATOM      4  N   UNL     1      37.648 -22.147 -15.929  0.00  0.00    -0.275 N 
ATOM      5  C   UNL     1      35.222 -23.166 -16.632  0.00  0.00    +0.103 A 
ATOM      6  C   UNL     1      36.956 -21.467 -16.927  0.00  0.00    +0.331 A 
ATOM      7  C   UNL     1      35.894 -23.809 -15.656  0.00  0.00    +0.053 A 
ATOM      8  C   UNL     1      37.243 -23.290 -15.270  0.00  0.00    +0.258 A 
ATOM      9  H   UNL     1      38.519 -21.773 -15.665  0.00  0.00    +0.173 HD
ENDROOT
BRANCH   7  10
ATOM     10  C   UNL     1      35.428 -25.000 -14.862  0.00  0.00    +0.029 C 
ATOM     11  C   UNL     1      36.248 -26.229 -15.232  0.00  0.00    +0.005 C 
ATOM     12  C   UNL     1      35.512 -24.713 -13.367  0.00  0.00    +0.005 C 
ENDBRANCH   7  10
BRANCH   5  14
ATOM     13  O   UNL     1      33.828 -24.434 -18.027  0.00  0.00    -0.285 OA
ATOM     14  C   UNL     1      33.912 -23.710 -17.042  0.00  0.00    +0.211 C 
BRANCH  14  15
ATOM     15  C   UNL     1      32.718 -23.385 -16.229  0.00  0.00    +0.040 C 
ATOM     16  C   UNL     1      31.509 -23.182 -16.865  0.00  0.00    -0.001 C 
ATOM     17  C   UNL     1      32.847 -23.291 -14.856  0.00  0.00    -0.001 C 
ATOM     18  C   UNL     1      30.384 -22.875 -16.099  0.00  0.00    -0.022 C 
ATOM     19  C   UNL     1      31.722 -22.984 -14.090  0.00  0.00    -0.022 C 
ATOM     20  C   UNL     1      30.491 -22.775 -14.712  0.00  0.00    -0.009 C 
ATOM     21  C   UNL     1      29.067 -22.653 -16.763  0.00  0.00    +0.031 C 
ATOM     22  C   UNL     1      31.836 -22.878 -12.606  0.00  0.00    +0.031 C 
ENDBRANCH  14  15
ENDBRANCH   5  14
BRANCH   3  23
ATOM     23  C   UNL     1      34.946 -21.385 -18.335  0.00  0.00    +0.111 C 
BRANCH  23  24
ATOM     24  C   UNL     1      35.582 -21.601 -19.692  0.00  0.00    +0.023 C 
ATOM     25  C   UNL     1      36.319 -20.469 -20.311  0.00  0.00    +0.002 C 
ATOM     26  C   UNL     1      34.994 -20.902 -20.864  0.00  0.00    +0.002 C 
ENDBRANCH  23  24
ENDBRANCH   3  23
TORSDOF 5
ENDMDL
MODEL 9
REMARK VINA RESULT:      -7.6      0.874      4.189
REMARK  Name = 483499
REMARK  5 active torsions:
REMARK  status: ('A' for Active; 'I' for Inactive)
REMARK    1  A    between atoms: N_3  and  C_23
REMARK    2  A    between atoms: C_5  and  C_14
REMARK    3  A    between atoms: C_7  and  C_10
REMARK    4  A    between atoms: C_14  and  C_15
REMARK    5  A    between atoms: C_23  and  C_24
REMARK                            x       y       z     vdW  Elec       q    Type
REMARK                         _______ _______ _______ _____ _____    ______ ____
ROOT
ATOM      1  O   UNL     1      35.042 -23.445 -13.001  0.00  0.00    -0.246 OA
ATOM      2  O   UNL     1      30.559 -23.092 -13.825  0.00  0.00    -0.267 OA
ATOM      3  N   UNL     1      34.319 -23.639 -15.216  0.00  0.00    -0.279 N 
ATOM      4  N   UNL     1      32.814 -23.247 -13.444  0.00  0.00    -0.275 N 
ATOM      5  C   UNL     1      33.247 -23.607 -16.109  0.00  0.00    +0.103 A 
ATOM      6  C   UNL     1      34.135 -23.443 -13.836  0.00  0.00    +0.331 A 
ATOM      7  C   UNL     1      31.973 -23.400 -15.720  0.00  0.00    +0.053 A 
ATOM      8  C   UNL     1      31.701 -23.231 -14.259  0.00  0.00    +0.258 A 
ATOM      9  H   UNL     1      32.657 -23.105 -12.483  0.00  0.00    +0.173 HD
ENDROOT
BRANCH   7  10
ATOM     10  C   UNL     1      30.759 -23.286 -16.603  0.00  0.00    +0.029 C 
ATOM     11  C   UNL     1      29.911 -24.546 -16.492  0.00  0.00    +0.005 C 
ATOM     12  C   UNL     1      29.950 -22.045 -16.242  0.00  0.00    +0.005 C 
ENDBRANCH   7  10
BRANCH   5  14
ATOM     13  O   UNL     1      33.350 -24.931 -18.041  0.00  0.00    -0.285 OA
ATOM     14  C   UNL     1      33.504 -23.820 -17.547  0.00  0.00    +0.211 C 
BRANCH  14  15
ATOM     15  C   UNL     1      33.925 -22.668 -18.376  0.00  0.00    +0.040 C 
ATOM     16  C   UNL     1      32.957 -21.877 -18.965  0.00  0.00    -0.001 C 
ATOM     17  C   UNL     1      35.273 -22.415 -18.538  0.00  0.00    -0.001 C 
ATOM     18  C   UNL     1      33.354 -20.791 -19.746  0.00  0.00    -0.022 C 
ATOM     19  C   UNL     1      35.670 -21.329 -19.319  0.00  0.00    -0.022 C 
ATOM     20  C   UNL     1      34.710 -20.518 -19.924  0.00  0.00    -0.009 C 
ATOM     21  C   UNL     1      32.328 -19.923 -20.392  0.00  0.00    +0.031 C 
ATOM     22  C   UNL     1      37.121 -21.037 -19.508  0.00  0.00    +0.031 C 
ENDBRANCH  14  15
ENDBRANCH   5  14
BRANCH   3  23
ATOM     23  C   UNL     1      35.677 -23.881 -15.697  0.00  0.00    +0.111 C 
BRANCH  23  24
ATOM     24  C   UNL     1      36.416 -24.858 -14.806  0.00  0.00    +0.023 C 
ATOM     25  C   UNL     1      37.835 -25.163 -15.123  0.00  0.00    +0.002 C 
ATOM     26  C   UNL     1      36.767 -26.190 -15.363  0.00  0.00    +0.002 C 
ENDBRANCH  23  24
ENDBRANCH   3  23
TORSDOF 5
ENDMDL
