MODEL 1
REMARK VINA RESULT:      -8.1      0.000      0.000
REMARK  Name = 446862
REMARK  11 active torsions:
REMARK  status: ('A' for Active; 'I' for Inactive)
REMARK    1  A    between atoms: C_2  and  C_10
REMARK    2  A    between atoms: C_3  and  C_20
REMARK    3  A    between atoms: C_4  and  O_8
REMARK    4  A    between atoms: C_10  and  N_11
REMARK    5  A    between atoms: N_11  and  CA_14
REMARK    6  A    between atoms: CA_14  and  C_17
REMARK    7  A    between atoms: C_17  and  O_18
REMARK    8  A    between atoms: C_20  and  O_21
REMARK    9  A    between atoms: O_21  and  P_22
REMARK   10  A    between atoms: P_22  and  O_24
REMARK   11  A    between atoms: P_22  and  O_26
REMARK                            x       y       z     vdW  Elec       q    Type
REMARK                         _______ _______ _______ _____ _____    ______ ____
ROOT
ATOM      1  N   UNL     1      35.544 -22.869 -16.795  0.00  0.00    -0.245 NA
ATOM      2  C   UNL     1      33.134 -23.542 -15.573  0.00  0.00    -0.009 C 
ATOM      3  C   UNL     1      34.317 -23.638 -14.859  0.00  0.00    +0.024 C 
ATOM      4  C   UNL     1      33.140 -23.112 -16.890  0.00  0.00    +0.141 C 
ATOM      5  C   UNL     1      34.365 -22.790 -17.452  0.00  0.00    +0.092 C 
ATOM      6  C   UNL     1      35.489 -23.292 -15.512  0.00  0.00    +0.096 C 
ATOM      7  C   UNL     1      34.439 -22.322 -18.869  0.00  0.00    +0.055 C 
ENDROOT
BRANCH   4   8
ATOM      8  O   UNL     1      31.991 -23.013 -17.607  0.00  0.00    -0.505 OA
ATOM      9  H   UNL     1      31.220 -23.463 -17.322  0.00  0.00    +0.292 HD
ENDBRANCH   4   8
BRANCH   2  10
ATOM     10  C   ACE A   0      31.829 -23.905 -14.916  0.00  0.00    -0.051 C 
BRANCH  10  11
ATOM     11  N   UNL     1      30.914 -22.774 -14.867  0.00  0.00    +0.395 N 
ATOM     12  H1  UNL     1      31.091 -22.167 -15.667  0.00  0.00    -0.083 HD
ATOM     13  H2  UNL     1      31.065 -22.267 -13.996  0.00  0.00    -0.083 HD
BRANCH  11  14
ATOM     14  CA  UNL     1      29.525 -23.229 -14.910  0.00  0.00    +0.040 C 
ATOM     15  CB  UNL     1      29.483 -24.731 -15.150  0.00  0.00    -0.012 C 
BRANCH  14  17
ATOM     16  OXT UNL     1      29.209 -22.372 -17.179  0.00  0.00    -0.253 OA
ATOM     17  C   UNL     1      28.821 -22.486 -16.025  0.00  0.00    +0.293 C 
BRANCH  17  18
ATOM     18  O   UNL     1      27.656 -21.950 -15.575  0.00  0.00    -0.482 OA
ATOM     19  H   UNL     1      27.667 -21.328 -14.875  0.00  0.00    +0.295 HD
ENDBRANCH  17  18
ENDBRANCH  14  17
ENDBRANCH  11  14
ENDBRANCH  10  11
ENDBRANCH   2  10
BRANCH   3  20
ATOM     20  C   UNL     1      34.359 -24.093 -13.441  0.00  0.00    +0.181 C 
BRANCH  20  21
ATOM     21  O   UNL     1      35.580 -23.671 -12.844  0.00  0.00    -0.268 OA
BRANCH  21  22
ATOM     22  P   UNL     1      36.347 -24.698 -11.860  0.00  0.00    +0.473 P 
ATOM     23  O   UNL     1      37.632 -24.184 -11.280  0.00  0.00    -0.227 OA
BRANCH  22  24
ATOM     24  O   UNL     1      36.479 -26.049 -12.741  0.00  0.00    -0.303 OA
ATOM     25  H   UNL     1      36.773 -26.778 -12.173  0.00  0.00    +0.222 HD
ENDBRANCH  22  24
BRANCH  22  26
ATOM     26  O   UNL     1      35.208 -25.071 -10.776  0.00  0.00    -0.303 OA
ATOM     27  H   UNL     1      35.216 -26.028 -10.613  0.00  0.00    +0.222 HD
ENDBRANCH  22  26
ENDBRANCH  21  22
ENDBRANCH  20  21
ENDBRANCH   3  20
TORSDOF 11
ENDMDL
MODEL 2
REMARK VINA RESULT:      -7.9      3.208      5.947
REMARK  Name = 446862
REMARK  11 active torsions:
REMARK  status: ('A' for Active; 'I' for Inactive)
REMARK    1  A    between atoms: C_2  and  C_10
REMARK    2  A    between atoms: C_3  and  C_20
REMARK    3  A    between atoms: C_4  and  O_8
REMARK    4  A    between atoms: C_10  and  N_11
REMARK    5  A    between atoms: N_11  and  CA_14
REMARK    6  A    between atoms: CA_14  and  C_17
REMARK    7  A    between atoms: C_17  and  O_18
REMARK    8  A    between atoms: C_20  and  O_21
REMARK    9  A    between atoms: O_21  and  P_22
REMARK   10  A    between atoms: P_22  and  O_24
REMARK   11  A    between atoms: P_22  and  O_26
REMARK                            x       y       z     vdW  Elec       q    Type
REMARK                         _______ _______ _______ _____ _____    ______ ____
ROOT
ATOM      1  N   UNL     1      34.304 -22.719 -17.966  0.00  0.00    -0.245 NA
ATOM      2  C   UNL     1      35.655 -23.036 -15.551  0.00  0.00    -0.009 C 
ATOM      3  C   UNL     1      34.372 -23.538 -15.692  0.00  0.00    +0.024 C 
ATOM      4  C   UNL     1      36.272 -22.378 -16.603  0.00  0.00    +0.141 C 
ATOM      5  C   UNL     1      35.558 -22.246 -17.783  0.00  0.00    +0.092 C 
ATOM      6  C   UNL     1      33.743 -23.355 -16.913  0.00  0.00    +0.096 C 
ATOM      7  C   UNL     1      36.167 -21.545 -18.953  0.00  0.00    +0.055 C 
ENDROOT
BRANCH   4   8
ATOM      8  O   UNL     1      37.529 -21.877 -16.483  0.00  0.00    -0.505 OA
ATOM      9  H   UNL     1      37.934 -21.822 -15.640  0.00  0.00    +0.292 HD
ENDBRANCH   4   8
BRANCH   2  10
ATOM     10  C   ACE A   0      36.389 -23.206 -14.248  0.00  0.00    -0.051 C 
BRANCH  10  11
ATOM     11  N   UNL     1      37.481 -24.161 -14.360  0.00  0.00    +0.395 N 
ATOM     12  H1  UNL     1      38.296 -23.795 -13.867  0.00  0.00    -0.083 HD
ATOM     13  H2  UNL     1      37.695 -24.298 -15.348  0.00  0.00    -0.083 HD
BRANCH  11  14
ATOM     14  CA  UNL     1      37.107 -25.448 -13.778  0.00  0.00    +0.040 C 
ATOM     15  CB  UNL     1      38.089 -25.819 -12.677  0.00  0.00    -0.012 C 
BRANCH  14  17
ATOM     16  OXT UNL     1      36.260 -26.641 -15.738  0.00  0.00    -0.253 OA
ATOM     17  C   UNL     1      37.118 -26.484 -14.881  0.00  0.00    +0.293 C 
BRANCH  17  18
ATOM     18  O   UNL     1      38.246 -27.240 -14.809  0.00  0.00    -0.482 OA
ATOM     19  H   UNL     1      38.448 -27.845 -15.495  0.00  0.00    +0.295 HD
ENDBRANCH  17  18
ENDBRANCH  14  17
ENDBRANCH  11  14
ENDBRANCH  10  11
ENDBRANCH   2  10
BRANCH   3  20
ATOM     20  C   UNL     1      33.669 -24.253 -14.591  0.00  0.00    +0.181 C 
BRANCH  20  21
ATOM     21  O   UNL     1      32.278 -24.320 -14.881  0.00  0.00    -0.268 OA
BRANCH  21  22
ATOM     22  P   UNL     1      31.244 -23.653 -13.833  0.00  0.00    +0.473 P 
ATOM     23  O   UNL     1      30.143 -22.844 -14.453  0.00  0.00    -0.227 OA
BRANCH  22  24
ATOM     24  O   UNL     1      32.201 -22.846 -12.808  0.00  0.00    -0.303 OA
ATOM     25  H   UNL     1      32.440 -21.989 -13.195  0.00  0.00    +0.222 HD
ENDBRANCH  22  24
BRANCH  22  26
ATOM     26  O   UNL     1      30.752 -24.922 -12.961  0.00  0.00    -0.303 OA
ATOM     27  H   UNL     1      29.936 -25.281 -13.344  0.00  0.00    +0.222 HD
ENDBRANCH  22  26
ENDBRANCH  21  22
ENDBRANCH  20  21
ENDBRANCH   3  20
TORSDOF 11
ENDMDL
MODEL 3
REMARK VINA RESULT:      -7.9      3.138      5.317
REMARK  Name = 446862
REMARK  11 active torsions:
REMARK  status: ('A' for Active; 'I' for Inactive)
REMARK    1  A    between atoms: C_2  and  C_10
REMARK    2  A    between atoms: C_3  and  C_20
REMARK    3  A    between atoms: C_4  and  O_8
REMARK    4  A    between atoms: C_10  and  N_11
REMARK    5  A    between atoms: N_11  and  CA_14
REMARK    6  A    between atoms: CA_14  and  C_17
REMARK    7  A    between atoms: C_17  and  O_18
REMARK    8  A    between atoms: C_20  and  O_21
REMARK    9  A    between atoms: O_21  and  P_22
REMARK   10  A    between atoms: P_22  and  O_24
REMARK   11  A    between atoms: P_22  and  O_26
REMARK                            x       y       z     vdW  Elec       q    Type
REMARK                         _______ _______ _______ _____ _____    ______ ____
ROOT
ATOM      1  N   UNL     1      32.731 -23.583 -16.177  0.00  0.00    -0.245 NA
ATOM      2  C   UNL     1      35.331 -23.558 -15.179  0.00  0.00    -0.009 C 
ATOM      3  C   UNL     1      34.308 -24.100 -14.419  0.00  0.00    +0.024 C 
ATOM      4  C   UNL     1      35.071 -23.028 -16.433  0.00  0.00    +0.141 C 
ATOM      5  C   UNL     1      33.761 -23.064 -16.884  0.00  0.00    +0.092 C 
ATOM      6  C   UNL     1      33.033 -24.089 -14.960  0.00  0.00    +0.096 C 
ATOM      7  C   UNL     1      33.415 -22.508 -18.226  0.00  0.00    +0.055 C 
ENDROOT
BRANCH   4   8
ATOM      8  O   UNL     1      36.060 -22.490 -17.192  0.00  0.00    -0.505 OA
ATOM      9  H   UNL     1      36.957 -22.680 -16.998  0.00  0.00    +0.292 HD
ENDBRANCH   4   8
BRANCH   2  10
ATOM     10  C   ACE A   0      36.738 -23.542 -14.643  0.00  0.00    -0.051 C 
BRANCH  10  11
ATOM     11  N   UNL     1      37.620 -24.408 -15.411  0.00  0.00    +0.395 N 
ATOM     12  H1  UNL     1      38.424 -23.867 -15.729  0.00  0.00    -0.083 HD
ATOM     13  H2  UNL     1      37.103 -24.779 -16.207  0.00  0.00    -0.083 HD
BRANCH  11  14
ATOM     14  CA  UNL     1      38.088 -25.526 -14.594  0.00  0.00    +0.040 C 
ATOM     15  CB  UNL     1      39.541 -25.833 -14.927  0.00  0.00    -0.012 C 
BRANCH  14  17
ATOM     16  OXT UNL     1      36.902 -27.149 -15.988  0.00  0.00    -0.253 OA
ATOM     17  C   UNL     1      37.205 -26.722 -14.883  0.00  0.00    +0.293 C 
BRANCH  17  18
ATOM     18  O   UNL     1      36.784 -27.291 -13.723  0.00  0.00    -0.482 OA
ATOM     19  H   UNL     1      37.233 -27.107 -12.921  0.00  0.00    +0.295 HD
ENDBRANCH  17  18
ENDBRANCH  14  17
ENDBRANCH  11  14
ENDBRANCH  10  11
ENDBRANCH   2  10
BRANCH   3  20
ATOM     20  C   UNL     1      34.540 -24.681 -13.067  0.00  0.00    +0.181 C 
BRANCH  20  21
ATOM     21  O   UNL     1      34.969 -23.657 -12.178  0.00  0.00    -0.268 OA
BRANCH  21  22
ATOM     22  P   UNL     1      36.103 -24.017 -11.083  0.00  0.00    +0.473 P 
ATOM     23  O   UNL     1      37.165 -22.973 -10.901  0.00  0.00    -0.227 OA
BRANCH  22  24
ATOM     24  O   UNL     1      36.635 -25.472 -11.546  0.00  0.00    -0.303 OA
ATOM     25  H   UNL     1      36.502 -26.109 -10.827  0.00  0.00    +0.222 HD
ENDBRANCH  22  24
BRANCH  22  26
ATOM     26  O   UNL     1      35.231 -24.343  -9.762  0.00  0.00    -0.303 OA
ATOM     27  H   UNL     1      34.292 -24.400  -9.999  0.00  0.00    +0.222 HD
ENDBRANCH  22  26
ENDBRANCH  21  22
ENDBRANCH  20  21
ENDBRANCH   3  20
TORSDOF 11
ENDMDL
MODEL 4
REMARK VINA RESULT:      -7.8      1.952      2.489
REMARK  Name = 446862
REMARK  11 active torsions:
REMARK  status: ('A' for Active; 'I' for Inactive)
REMARK    1  A    between atoms: C_2  and  C_10
REMARK    2  A    between atoms: C_3  and  C_20
REMARK    3  A    between atoms: C_4  and  O_8
REMARK    4  A    between atoms: C_10  and  N_11
REMARK    5  A    between atoms: N_11  and  CA_14
REMARK    6  A    between atoms: CA_14  and  C_17
REMARK    7  A    between atoms: C_17  and  O_18
REMARK    8  A    between atoms: C_20  and  O_21
REMARK    9  A    between atoms: O_21  and  P_22
REMARK   10  A    between atoms: P_22  and  O_24
REMARK   11  A    between atoms: P_22  and  O_26
REMARK                            x       y       z     vdW  Elec       q    Type
REMARK                         _______ _______ _______ _____ _____    ______ ____
ROOT
ATOM      1  N   UNL     1      36.443 -21.399 -18.422  0.00  0.00    -0.245 NA
ATOM      2  C   UNL     1      34.132 -22.758 -17.667  0.00  0.00    -0.009 C 
ATOM      3  C   UNL     1      35.223 -22.730 -16.814  0.00  0.00    +0.024 C 
ATOM      4  C   UNL     1      34.181 -22.114 -18.893  0.00  0.00    +0.141 C 
ATOM      5  C   UNL     1      35.353 -21.452 -19.222  0.00  0.00    +0.092 C 
ATOM      6  C   UNL     1      36.348 -22.040 -17.236  0.00  0.00    +0.096 C 
ATOM      7  C   UNL     1      35.469 -20.741 -20.530  0.00  0.00    +0.055 C 
ENDROOT
BRANCH   4   8
ATOM      8  O   UNL     1      33.122 -22.132 -19.743  0.00  0.00    -0.505 OA
ATOM      9  H   UNL     1      33.212 -21.791 -20.612  0.00  0.00    +0.292 HD
ENDBRANCH   4   8
BRANCH   2  10
ATOM     10  C   ACE A   0      32.881 -23.491 -17.262  0.00  0.00    -0.051 C 
BRANCH  10  11
ATOM     11  N   UNL     1      31.721 -22.613 -17.240  0.00  0.00    +0.395 N 
ATOM     12  H1  UNL     1      31.134 -22.816 -18.050  0.00  0.00    -0.083 HD
ATOM     13  H2  UNL     1      32.042 -21.646 -17.267  0.00  0.00    -0.083 HD
BRANCH  11  14
ATOM     14  CA  UNL     1      30.941 -22.815 -16.021  0.00  0.00    +0.040 C 
ATOM     15  CB  UNL     1      31.470 -24.026 -15.266  0.00  0.00    -0.012 C 
BRANCH  14  17
ATOM     16  OXT UNL     1      28.827 -22.282 -17.129  0.00  0.00    -0.253 OA
ATOM     17  C   UNL     1      29.494 -23.018 -16.417  0.00  0.00    +0.293 C 
BRANCH  17  18
ATOM     18  O   UNL     1      29.011 -24.166 -15.873  0.00  0.00    -0.482 OA
ATOM     19  H   UNL     1      29.261 -24.995 -16.232  0.00  0.00    +0.295 HD
ENDBRANCH  17  18
ENDBRANCH  14  17
ENDBRANCH  11  14
ENDBRANCH  10  11
ENDBRANCH   2  10
BRANCH   3  20
ATOM     20  C   UNL     1      35.217 -23.406 -15.487  0.00  0.00    +0.181 C 
BRANCH  20  21
ATOM     21  O   UNL     1      35.715 -24.731 -15.627  0.00  0.00    -0.268 OA
BRANCH  21  22
ATOM     22  P   UNL     1      37.044 -25.141 -14.804  0.00  0.00    +0.473 P 
ATOM     23  O   UNL     1      37.984 -24.010 -14.508  0.00  0.00    -0.227 OA
BRANCH  22  24
ATOM     24  O   UNL     1      37.674 -26.354 -15.670  0.00  0.00    -0.303 OA
ATOM     25  H   UNL     1      36.999 -26.709 -16.269  0.00  0.00    +0.222 HD
ENDBRANCH  22  24
BRANCH  22  26
ATOM     26  O   UNL     1      36.441 -25.888 -13.503  0.00  0.00    -0.303 OA
ATOM     27  H   UNL     1      37.110 -26.485 -13.133  0.00  0.00    +0.222 HD
ENDBRANCH  22  26
ENDBRANCH  21  22
ENDBRANCH  20  21
ENDBRANCH   3  20
TORSDOF 11
ENDMDL
MODEL 5
REMARK VINA RESULT:      -7.6      1.595      4.204
REMARK  Name = 446862
REMARK  11 active torsions:
REMARK  status: ('A' for Active; 'I' for Inactive)
REMARK    1  A    between atoms: C_2  and  C_10
REMARK    2  A    between atoms: C_3  and  C_20
REMARK    3  A    between atoms: C_4  and  O_8
REMARK    4  A    between atoms: C_10  and  N_11
REMARK    5  A    between atoms: N_11  and  CA_14
REMARK    6  A    between atoms: CA_14  and  C_17
REMARK    7  A    between atoms: C_17  and  O_18
REMARK    8  A    between atoms: C_20  and  O_21
REMARK    9  A    between atoms: O_21  and  P_22
REMARK   10  A    between atoms: P_22  and  O_24
REMARK   11  A    between atoms: P_22  and  O_26
REMARK                            x       y       z     vdW  Elec       q    Type
REMARK                         _______ _______ _______ _____ _____    ______ ____
ROOT
ATOM      1  N   UNL     1      30.491 -23.841 -14.085  0.00  0.00    -0.245 NA
ATOM      2  C   UNL     1      32.648 -23.346 -15.776  0.00  0.00    -0.009 C 
ATOM      3  C   UNL     1      32.864 -23.933 -14.540  0.00  0.00    +0.024 C 
ATOM      4  C   UNL     1      31.367 -23.003 -16.178  0.00  0.00    +0.141 C 
ATOM      5  C   UNL     1      30.328 -23.270 -15.301  0.00  0.00    +0.092 C 
ATOM      6  C   UNL     1      31.758 -24.159 -13.737  0.00  0.00    +0.096 C 
ATOM      7  C   UNL     1      28.925 -22.923 -15.675  0.00  0.00    +0.055 C 
ENDROOT
BRANCH   4   8
ATOM      8  O   UNL     1      31.136 -22.425 -17.385  0.00  0.00    -0.505 OA
ATOM      9  H   UNL     1      30.933 -21.512 -17.436  0.00  0.00    +0.292 HD
ENDBRANCH   4   8
BRANCH   2  10
ATOM     10  C   ACE A   0      33.812 -23.076 -16.693  0.00  0.00    -0.051 C 
BRANCH  10  11
ATOM     11  N   UNL     1      33.432 -23.176 -18.094  0.00  0.00    +0.395 N 
ATOM     12  H1  UNL     1      32.506 -22.766 -18.218  0.00  0.00    -0.083 HD
ATOM     13  H2  UNL     1      33.424 -24.159 -18.362  0.00  0.00    -0.083 HD
BRANCH  11  14
ATOM     14  CA  UNL     1      34.388 -22.466 -18.942  0.00  0.00    +0.040 C 
ATOM     15  CB  UNL     1      35.619 -22.093 -18.128  0.00  0.00    -0.012 C 
BRANCH  14  17
ATOM     16  OXT UNL     1      32.506 -20.996 -19.472  0.00  0.00    -0.253 OA
ATOM     17  C   UNL     1      33.706 -21.228 -19.485  0.00  0.00    +0.293 C 
BRANCH  17  18
ATOM     18  O   UNL     1      34.625 -20.368 -19.998  0.00  0.00    -0.482 OA
ATOM     19  H   UNL     1      34.911 -19.633 -19.492  0.00  0.00    +0.295 HD
ENDBRANCH  17  18
ENDBRANCH  14  17
ENDBRANCH  11  14
ENDBRANCH  10  11
ENDBRANCH   2  10
BRANCH   3  20
ATOM     20  C   UNL     1      34.222 -24.319 -14.066  0.00  0.00    +0.181 C 
BRANCH  20  21
ATOM     21  O   UNL     1      34.278 -24.209 -12.649  0.00  0.00    -0.268 OA
BRANCH  21  22
ATOM     22  P   UNL     1      35.693 -24.480 -11.914  0.00  0.00    +0.473 P 
ATOM     23  O   UNL     1      36.617 -23.300 -11.858  0.00  0.00    -0.227 OA
BRANCH  22  24
ATOM     24  O   UNL     1      36.279 -25.781 -12.677  0.00  0.00    -0.303 OA
ATOM     25  H   UNL     1      35.961 -26.585 -12.236  0.00  0.00    +0.222 HD
ENDBRANCH  22  24
BRANCH  22  26
ATOM     26  O   UNL     1      35.241 -25.065 -10.476  0.00  0.00    -0.303 OA
ATOM     27  H   UNL     1      35.016 -26.004 -10.565  0.00  0.00    +0.222 HD
ENDBRANCH  22  26
ENDBRANCH  21  22
ENDBRANCH  20  21
ENDBRANCH   3  20
TORSDOF 11
ENDMDL
MODEL 6
REMARK VINA RESULT:      -7.5      2.301      4.694
REMARK  Name = 446862
REMARK  11 active torsions:
REMARK  status: ('A' for Active; 'I' for Inactive)
REMARK    1  A    between atoms: C_2  and  C_10
REMARK    2  A    between atoms: C_3  and  C_20
REMARK    3  A    between atoms: C_4  and  O_8
REMARK    4  A    between atoms: C_10  and  N_11
REMARK    5  A    between atoms: N_11  and  CA_14
REMARK    6  A    between atoms: CA_14  and  C_17
REMARK    7  A    between atoms: C_17  and  O_18
REMARK    8  A    between atoms: C_20  and  O_21
REMARK    9  A    between atoms: O_21  and  P_22
REMARK   10  A    between atoms: P_22  and  O_24
REMARK   11  A    between atoms: P_22  and  O_26
REMARK                            x       y       z     vdW  Elec       q    Type
REMARK                         _______ _______ _______ _____ _____    ______ ____
ROOT
ATOM      1  N   UNL     1      32.088 -23.460 -13.816  0.00  0.00    -0.245 NA
ATOM      2  C   UNL     1      33.086 -23.437 -16.416  0.00  0.00    -0.009 C 
ATOM      3  C   UNL     1      33.913 -23.797 -15.365  0.00  0.00    +0.024 C 
ATOM      4  C   UNL     1      31.765 -23.090 -16.184  0.00  0.00    +0.141 C 
ATOM      5  C   UNL     1      31.317 -23.116 -14.873  0.00  0.00    +0.092 C 
ATOM      6  C   UNL     1      33.369 -23.793 -14.091  0.00  0.00    +0.096 C 
ATOM      7  C   UNL     1      29.904 -22.750 -14.557  0.00  0.00    +0.055 C 
ENDROOT
BRANCH   4   8
ATOM      8  O   UNL     1      30.938 -22.732 -17.201  0.00  0.00    -0.505 OA
ATOM      9  H   UNL     1      31.229 -22.804 -18.089  0.00  0.00    +0.292 HD
ENDBRANCH   4   8
BRANCH   2  10
ATOM     10  C   ACE A   0      33.621 -23.424 -17.823  0.00  0.00    -0.051 C 
BRANCH  10  11
ATOM     11  N   UNL     1      33.347 -22.163 -18.496  0.00  0.00    +0.395 N 
ATOM     12  H1  UNL     1      33.317 -21.415 -17.802  0.00  0.00    -0.083 HD
ATOM     13  H2  UNL     1      32.451 -22.237 -18.977  0.00  0.00    -0.083 HD
BRANCH  11  14
ATOM     14  CA  UNL     1      34.385 -21.863 -19.480  0.00  0.00    +0.040 C 
ATOM     15  CB  UNL     1      35.739 -21.783 -18.790  0.00  0.00    -0.012 C 
BRANCH  14  17
ATOM     16  OXT UNL     1      34.827 -19.669 -20.466  0.00  0.00    -0.253 OA
ATOM     17  C   UNL     1      34.040 -20.546 -20.141  0.00  0.00    +0.293 C 
BRANCH  17  18
ATOM     18  O   UNL     1      32.699 -20.458 -20.349  0.00  0.00    -0.482 OA
ATOM     19  H   UNL     1      32.372 -20.154 -21.172  0.00  0.00    +0.295 HD
ENDBRANCH  17  18
ENDBRANCH  14  17
ENDBRANCH  11  14
ENDBRANCH  10  11
ENDBRANCH   2  10
BRANCH   3  20
ATOM     20  C   UNL     1      35.339 -24.180 -15.567  0.00  0.00    +0.181 C 
BRANCH  20  21
ATOM     21  O   UNL     1      35.718 -25.130 -14.578  0.00  0.00    -0.268 OA
BRANCH  21  22
ATOM     22  P   UNL     1      36.785 -26.274 -14.985  0.00  0.00    +0.473 P 
ATOM     23  O   UNL     1      36.376 -27.147 -16.134  0.00  0.00    -0.227 OA
BRANCH  22  24
ATOM     24  O   UNL     1      37.066 -27.050 -13.594  0.00  0.00    -0.303 OA
ATOM     25  H   UNL     1      36.591 -27.896 -13.593  0.00  0.00    +0.222 HD
ENDBRANCH  22  24
BRANCH  22  26
ATOM     26  O   UNL     1      38.143 -25.428 -15.219  0.00  0.00    -0.303 OA
ATOM     27  H   UNL     1      37.968 -24.486 -15.065  0.00  0.00    +0.222 HD
ENDBRANCH  22  26
ENDBRANCH  21  22
ENDBRANCH  20  21
ENDBRANCH   3  20
TORSDOF 11
ENDMDL
MODEL 7
REMARK VINA RESULT:      -7.3      1.868      5.137
REMARK  Name = 446862
REMARK  11 active torsions:
REMARK  status: ('A' for Active; 'I' for Inactive)
REMARK    1  A    between atoms: C_2  and  C_10
REMARK    2  A    between atoms: C_3  and  C_20
REMARK    3  A    between atoms: C_4  and  O_8
REMARK    4  A    between atoms: C_10  and  N_11
REMARK    5  A    between atoms: N_11  and  CA_14
REMARK    6  A    between atoms: CA_14  and  C_17
REMARK    7  A    between atoms: C_17  and  O_18
REMARK    8  A    between atoms: C_20  and  O_21
REMARK    9  A    between atoms: O_21  and  P_22
REMARK   10  A    between atoms: P_22  and  O_24
REMARK   11  A    between atoms: P_22  and  O_26
REMARK                            x       y       z     vdW  Elec       q    Type
REMARK                         _______ _______ _______ _____ _____    ______ ____
ROOT
ATOM      1  N   UNL     1      30.694 -24.167 -14.510  0.00  0.00    -0.245 NA
ATOM      2  C   UNL     1      33.277 -23.682 -15.431  0.00  0.00    -0.009 C 
ATOM      3  C   UNL     1      33.088 -24.383 -14.252  0.00  0.00    +0.024 C 
ATOM      4  C   UNL     1      32.190 -23.220 -16.157  0.00  0.00    +0.141 C 
ATOM      5  C   UNL     1      30.926 -23.487 -15.656  0.00  0.00    +0.092 C 
ATOM      6  C   UNL     1      31.784 -24.598 -13.837  0.00  0.00    +0.096 C 
ATOM      7  C   UNL     1      29.715 -23.015 -16.390  0.00  0.00    +0.055 C 
ENDROOT
BRANCH   4   8
ATOM      8  O   UNL     1      32.355 -22.529 -17.314  0.00  0.00    -0.505 OA
ATOM      9  H   UNL     1      33.178 -22.552 -17.762  0.00  0.00    +0.292 HD
ENDBRANCH   4   8
BRANCH   2  10
ATOM     10  C   ACE A   0      34.671 -23.417 -15.933  0.00  0.00    -0.051 C 
BRANCH  10  11
ATOM     11  N   UNL     1      35.469 -22.687 -14.959  0.00  0.00    +0.395 N 
ATOM     12  H1  UNL     1      35.575 -23.258 -14.119  0.00  0.00    -0.083 HD
ATOM     13  H2  UNL     1      34.994 -21.813 -14.736  0.00  0.00    -0.083 HD
BRANCH  11  14
ATOM     14  CA  UNL     1      36.792 -22.378 -15.498  0.00  0.00    +0.040 C 
ATOM     15  CB  UNL     1      36.688 -22.113 -16.993  0.00  0.00    -0.012 C 
BRANCH  14  17
ATOM     16  OXT UNL     1      37.494 -24.459 -14.423  0.00  0.00    -0.253 OA
ATOM     17  C   UNL     1      37.699 -23.558 -15.222  0.00  0.00    +0.293 C 
BRANCH  17  18
ATOM     18  O   UNL     1      38.806 -23.497 -16.008  0.00  0.00    -0.482 OA
ATOM     19  H   UNL     1      38.752 -23.739 -16.912  0.00  0.00    +0.295 HD
ENDBRANCH  17  18
ENDBRANCH  14  17
ENDBRANCH  11  14
ENDBRANCH  10  11
ENDBRANCH   2  10
BRANCH   3  20
ATOM     20  C   UNL     1      34.225 -24.899 -13.440  0.00  0.00    +0.181 C 
BRANCH  20  21
ATOM     21  O   UNL     1      34.373 -24.101 -12.271  0.00  0.00    -0.268 OA
BRANCH  21  22
ATOM     22  P   UNL     1      35.694 -24.310 -11.363  0.00  0.00    +0.473 P 
ATOM     23  O   UNL     1      35.452 -24.326  -9.882  0.00  0.00    -0.227 OA
BRANCH  22  24
ATOM     24  O   UNL     1      36.706 -23.161 -11.885  0.00  0.00    -0.303 OA
ATOM     25  H   UNL     1      36.351 -22.288 -11.656  0.00  0.00    +0.222 HD
ENDBRANCH  22  24
BRANCH  22  26
ATOM     26  O   UNL     1      36.330 -25.668 -11.967  0.00  0.00    -0.303 OA
ATOM     27  H   UNL     1      37.296 -25.581 -12.011  0.00  0.00    +0.222 HD
ENDBRANCH  22  26
ENDBRANCH  21  22
ENDBRANCH  20  21
ENDBRANCH   3  20
TORSDOF 11
ENDMDL
MODEL 8
REMARK VINA RESULT:      -7.2      2.962      5.589
REMARK  Name = 446862
REMARK  11 active torsions:
REMARK  status: ('A' for Active; 'I' for Inactive)
REMARK    1  A    between atoms: C_2  and  C_10
REMARK    2  A    between atoms: C_3  and  C_20
REMARK    3  A    between atoms: C_4  and  O_8
REMARK    4  A    between atoms: C_10  and  N_11
REMARK    5  A    between atoms: N_11  and  CA_14
REMARK    6  A    between atoms: CA_14  and  C_17
REMARK    7  A    between atoms: C_17  and  O_18
REMARK    8  A    between atoms: C_20  and  O_21
REMARK    9  A    between atoms: O_21  and  P_22
REMARK   10  A    between atoms: P_22  and  O_24
REMARK   11  A    between atoms: P_22  and  O_26
REMARK                            x       y       z     vdW  Elec       q    Type
REMARK                         _______ _______ _______ _____ _____    ______ ____
ROOT
ATOM      1  N   UNL     1      34.812 -22.463 -17.974  0.00  0.00    -0.245 NA
ATOM      2  C   UNL     1      35.906 -23.223 -15.528  0.00  0.00    -0.009 C 
ATOM      3  C   UNL     1      34.625 -23.628 -15.864  0.00  0.00    +0.024 C 
ATOM      4  C   UNL     1      36.648 -22.443 -16.401  0.00  0.00    +0.141 C 
ATOM      5  C   UNL     1      36.059 -22.092 -17.604  0.00  0.00    +0.092 C 
ATOM      6  C   UNL     1      34.126 -23.224 -17.091  0.00  0.00    +0.096 C 
ATOM      7  C   UNL     1      36.806 -21.250 -18.586  0.00  0.00    +0.055 C 
ENDROOT
BRANCH   4   8
ATOM      8  O   UNL     1      37.905 -22.034 -16.089  0.00  0.00    -0.505 OA
ATOM      9  H   UNL     1      38.585 -22.666 -15.957  0.00  0.00    +0.292 HD
ENDBRANCH   4   8
BRANCH   2  10
ATOM     10  C   ACE A   0      36.501 -23.632 -14.207  0.00  0.00    -0.051 C 
BRANCH  10  11
ATOM     11  N   UNL     1      35.698 -23.171 -13.085  0.00  0.00    +0.395 N 
ATOM     12  H1  UNL     1      34.797 -23.649 -13.100  0.00  0.00    -0.083 HD
ATOM     13  H2  UNL     1      35.567 -22.163 -13.168  0.00  0.00    -0.083 HD
BRANCH  11  14
ATOM     14  CA  UNL     1      36.369 -23.453 -11.817  0.00  0.00    +0.040 C 
ATOM     15  CB  UNL     1      37.726 -24.088 -12.083  0.00  0.00    -0.012 C 
BRANCH  14  17
ATOM     16  OXT UNL     1      35.496 -24.528  -9.801  0.00  0.00    -0.253 OA
ATOM     17  C   UNL     1      35.486 -24.385 -11.015  0.00  0.00    +0.293 C 
BRANCH  17  18
ATOM     18  O   UNL     1      34.640 -25.060 -11.838  0.00  0.00    -0.482 OA
ATOM     19  H   UNL     1      33.918 -25.536 -11.478  0.00  0.00    +0.295 HD
ENDBRANCH  17  18
ENDBRANCH  14  17
ENDBRANCH  11  14
ENDBRANCH  10  11
ENDBRANCH   2  10
BRANCH   3  20
ATOM     20  C   UNL     1      33.791 -24.468 -14.959  0.00  0.00    +0.181 C 
BRANCH  20  21
ATOM     21  O   UNL     1      32.441 -24.022 -15.010  0.00  0.00    -0.268 OA
BRANCH  21  22
ATOM     22  P   UNL     1      31.594 -23.983 -13.633  0.00  0.00    +0.473 P 
ATOM     23  O   UNL     1      31.326 -25.323 -13.013  0.00  0.00    -0.227 OA
BRANCH  22  24
ATOM     24  O   UNL     1      30.279 -23.122 -14.014  0.00  0.00    -0.303 OA
ATOM     25  H   UNL     1      30.014 -22.583 -13.253  0.00  0.00    +0.222 HD
ENDBRANCH  22  24
BRANCH  22  26
ATOM     26  O   UNL     1      32.452 -22.965 -12.717  0.00  0.00    -0.303 OA
ATOM     27  H   UNL     1      31.978 -22.798 -11.887  0.00  0.00    +0.222 HD
ENDBRANCH  22  26
ENDBRANCH  21  22
ENDBRANCH  20  21
ENDBRANCH   3  20
TORSDOF 11
ENDMDL
MODEL 9
REMARK VINA RESULT:      -7.1      1.275      1.794
REMARK  Name = 446862
REMARK  11 active torsions:
REMARK  status: ('A' for Active; 'I' for Inactive)
REMARK    1  A    between atoms: C_2  and  C_10
REMARK    2  A    between atoms: C_3  and  C_20
REMARK    3  A    between atoms: C_4  and  O_8
REMARK    4  A    between atoms: C_10  and  N_11
REMARK    5  A    between atoms: N_11  and  CA_14
REMARK    6  A    between atoms: CA_14  and  C_17
REMARK    7  A    between atoms: C_17  and  O_18
REMARK    8  A    between atoms: C_20  and  O_21
REMARK    9  A    between atoms: O_21  and  P_22
REMARK   10  A    between atoms: P_22  and  O_24
REMARK   11  A    between atoms: P_22  and  O_26
REMARK                            x       y       z     vdW  Elec       q    Type
REMARK                         _______ _______ _______ _____ _____    ______ ____
ROOT
ATOM      1  N   UNL     1      36.165 -22.362 -17.297  0.00  0.00    -0.245 NA
ATOM      2  C   UNL     1      34.271 -23.295 -15.481  0.00  0.00    -0.009 C 
ATOM      3  C   UNL     1      35.571 -23.065 -15.062  0.00  0.00    +0.024 C 
ATOM      4  C   UNL     1      33.905 -23.063 -16.798  0.00  0.00    +0.141 C 
ATOM      5  C   UNL     1      34.885 -22.599 -17.662  0.00  0.00    +0.092 C 
ATOM      6  C   UNL     1      36.475 -22.601 -16.003  0.00  0.00    +0.096 C 
ATOM      7  C   UNL     1      34.555 -22.332 -19.093  0.00  0.00    +0.055 C 
ENDROOT
BRANCH   4   8
ATOM      8  O   UNL     1      32.636 -23.283 -17.229  0.00  0.00    -0.505 OA
ATOM      9  H   UNL     1      31.913 -22.896 -16.776  0.00  0.00    +0.292 HD
ENDBRANCH   4   8
BRANCH   2  10
ATOM     10  C   ACE A   0      33.244 -23.799 -14.503  0.00  0.00    -0.051 C 
BRANCH  10  11
ATOM     11  N   UNL     1      32.217 -22.804 -14.234  0.00  0.00    +0.395 N 
ATOM     12  H1  UNL     1      32.096 -22.217 -15.060  0.00  0.00    -0.083 HD
ATOM     13  H2  UNL     1      32.509 -22.239 -13.437  0.00  0.00    -0.083 HD
BRANCH  11  14
ATOM     14  CA  UNL     1      30.944 -23.446 -13.912  0.00  0.00    +0.040 C 
ATOM     15  CB  UNL     1      31.182 -24.903 -13.545  0.00  0.00    -0.012 C 
BRANCH  14  17
ATOM     16  OXT UNL     1      30.025 -24.090 -16.085  0.00  0.00    -0.253 OA
ATOM     17  C   UNL     1      30.042 -23.336 -15.123  0.00  0.00    +0.293 C 
BRANCH  17  18
ATOM     18  O   UNL     1      29.215 -22.265 -15.001  0.00  0.00    -0.482 OA
ATOM     19  H   UNL     1      29.376 -21.621 -14.339  0.00  0.00    +0.295 HD
ENDBRANCH  17  18
ENDBRANCH  14  17
ENDBRANCH  11  14
ENDBRANCH  10  11
ENDBRANCH   2  10
BRANCH   3  20
ATOM     20  C   UNL     1      36.009 -23.299 -13.658  0.00  0.00    +0.181 C 
BRANCH  20  21
ATOM     21  O   UNL     1      36.316 -24.677 -13.480  0.00  0.00    -0.268 OA
BRANCH  21  22
ATOM     22  P   UNL     1      37.331 -25.089 -12.291  0.00  0.00    +0.473 P 
ATOM     23  O   UNL     1      37.342 -26.548 -11.941  0.00  0.00    -0.227 OA
BRANCH  22  24
ATOM     24  O   UNL     1      36.933 -24.091 -11.082  0.00  0.00    -0.303 OA
ATOM     25  H   UNL     1      36.792 -23.198 -11.433  0.00  0.00    +0.222 HD
ENDBRANCH  22  24
BRANCH  22  26
ATOM     26  O   UNL     1      38.744 -24.500 -12.809  0.00  0.00    -0.303 OA
ATOM     27  H   UNL     1      39.438 -25.166 -12.684  0.00  0.00    +0.222 HD
ENDBRANCH  22  26
ENDBRANCH  21  22
ENDBRANCH  20  21
ENDBRANCH   3  20
TORSDOF 11
ENDMDL
