MODEL 1
REMARK VINA RESULT:      -9.6      0.000      0.000
REMARK  Name = 6540255
REMARK  4 active torsions:
REMARK  status: ('A' for Active; 'I' for Inactive)
REMARK    1  A    between atoms: N_3  and  C_22
REMARK    2  A    between atoms: C_22  and  C_23
REMARK    3  A    between atoms: C_23  and  C_24
REMARK    4  A    between atoms: C_24  and  N_25
REMARK                            x       y       z     vdW  Elec       q    Type
REMARK                         _______ _______ _______ _____ _____    ______ ____
ROOT
ATOM      1  O   UNL     1      31.977 -22.157 -18.050  0.00  0.00    -0.270 OA
ATOM      2  O   UNL     1      28.794 -23.977 -15.268  0.00  0.00    -0.270 OA
ATOM      3  N   UNL     1      35.165 -23.954 -14.260  0.00  0.00    -0.327 N 
ATOM      4  N   UNL     1      30.114 -22.957 -16.904  0.00  0.00    -0.248 N 
ATOM      5  C   UNL     1      33.501 -23.354 -15.627  0.00  0.00    +0.022 A 
ATOM      6  C   UNL     1      33.801 -23.993 -14.414  0.00  0.00    +0.060 A 
ATOM      7  C   UNL     1      34.746 -22.927 -16.199  0.00  0.00    +0.017 A 
ATOM      8  C   UNL     1      35.761 -23.319 -15.321  0.00  0.00    +0.060 A 
ATOM      9  C   UNL     1      32.142 -23.295 -15.956  0.00  0.00    +0.059 C 
ATOM     10  C   UNL     1      31.171 -23.843 -15.118  0.00  0.00    +0.054 C 
ATOM     11  C   UNL     1      32.821 -24.550 -13.561  0.00  0.00    +0.013 C 
ATOM     12  C   UNL     1      31.477 -24.468 -13.930  0.00  0.00    -0.016 C 
ATOM     13  C   UNL     1      35.125 -22.247 -17.378  0.00  0.00    -0.003 C 
ATOM     14  C   UNL     1      37.118 -23.066 -15.560  0.00  0.00    +0.017 C 
ATOM     15  C   UNL     1      31.453 -22.721 -17.112  0.00  0.00    +0.252 C 
ATOM     16  C   UNL     1      29.862 -23.624 -15.732  0.00  0.00    +0.252 C 
ATOM     17  C   UNL     1      36.478 -21.987 -17.630  0.00  0.00    -0.022 C 
ATOM     18  C   UNL     1      37.459 -22.392 -16.732  0.00  0.00    -0.003 C 
ATOM     19  C   UNL     1      30.433 -25.049 -13.042  0.00  0.00    +0.031 C 
ATOM     20  C   UNL     1      36.869 -21.267 -18.878  0.00  0.00    +0.031 C 
ATOM     21  H   UNL     1      29.408 -22.676 -17.531  0.00  0.00    +0.158 HD
ENDROOT
BRANCH   3  22
ATOM     22  C   UNL     1      35.881 -24.511 -13.129  0.00  0.00    +0.104 C 
BRANCH  22  23
ATOM     23  C   UNL     1      35.874 -23.571 -11.924  0.00  0.00    +0.001 C 
BRANCH  23  24
ATOM     24  C   UNL     1      37.246 -22.935 -11.715  0.00  0.00    -0.084 C 
BRANCH  24  25
ATOM     25  N   UNL     1      38.287 -23.954 -11.739  0.00  0.00    +0.380 N 
ATOM     26  H   UNL     1      38.998 -23.730 -11.043  0.00  0.00    -0.089 HD
ATOM     27  H   UNL     1      38.715 -23.983 -12.664  0.00  0.00    -0.089 HD
ATOM     28  H   UNL     1      37.877 -24.864 -11.525  0.00  0.00    -0.089 HD
ENDBRANCH  24  25
ENDBRANCH  23  24
ENDBRANCH  22  23
ENDBRANCH   3  22
TORSDOF 4
ENDMDL
MODEL 2
REMARK VINA RESULT:      -9.4      1.764      5.040
REMARK  Name = 6540255
REMARK  4 active torsions:
REMARK  status: ('A' for Active; 'I' for Inactive)
REMARK    1  A    between atoms: N_3  and  C_22
REMARK    2  A    between atoms: C_22  and  C_23
REMARK    3  A    between atoms: C_23  and  C_24
REMARK    4  A    between atoms: C_24  and  N_25
REMARK                            x       y       z     vdW  Elec       q    Type
REMARK                         _______ _______ _______ _____ _____    ______ ____
ROOT
ATOM      1  O   UNL     1      32.479 -22.359 -18.704  0.00  0.00    -0.270 OA
ATOM      2  O   UNL     1      36.971 -21.421 -19.051  0.00  0.00    -0.270 OA
ATOM      3  N   UNL     1      34.042 -24.205 -14.023  0.00  0.00    -0.327 N 
ATOM      4  N   UNL     1      34.664 -21.744 -19.225  0.00  0.00    -0.248 N 
ATOM      5  C   UNL     1      33.790 -23.325 -16.063  0.00  0.00    +0.022 A 
ATOM      6  C   UNL     1      34.726 -23.618 -15.059  0.00  0.00    +0.060 A 
ATOM      7  C   UNL     1      32.509 -23.762 -15.587  0.00  0.00    +0.017 A 
ATOM      8  C   UNL     1      32.703 -24.304 -14.313  0.00  0.00    +0.060 A 
ATOM      9  C   UNL     1      34.310 -22.716 -17.211  0.00  0.00    +0.059 C 
ATOM     10  C   UNL     1      35.670 -22.430 -17.324  0.00  0.00    +0.054 C 
ATOM     11  C   UNL     1      36.105 -23.329 -15.169  0.00  0.00    +0.013 C 
ATOM     12  C   UNL     1      36.579 -22.721 -16.333  0.00  0.00    -0.016 C 
ATOM     13  C   UNL     1      31.194 -23.754 -16.102  0.00  0.00    -0.003 C 
ATOM     14  C   UNL     1      31.662 -24.833 -13.540  0.00  0.00    +0.017 C 
ATOM     15  C   UNL     1      33.662 -22.271 -18.445  0.00  0.00    +0.252 C 
ATOM     16  C   UNL     1      35.897 -21.801 -18.625  0.00  0.00    +0.252 C 
ATOM     17  C   UNL     1      30.142 -24.280 -15.341  0.00  0.00    -0.022 C 
ATOM     18  C   UNL     1      30.375 -24.811 -14.077  0.00  0.00    -0.003 C 
ATOM     19  C   UNL     1      38.030 -22.412 -16.464  0.00  0.00    +0.031 C 
ATOM     20  C   UNL     1      28.756 -24.269 -15.894  0.00  0.00    +0.031 C 
ATOM     21  H   UNL     1      34.514 -21.364 -20.121  0.00  0.00    +0.158 HD
ENDROOT
BRANCH   3  22
ATOM     22  C   UNL     1      34.651 -24.659 -12.788  0.00  0.00    +0.104 C 
BRANCH  22  23
ATOM     23  C   UNL     1      35.359 -23.527 -12.045  0.00  0.00    +0.001 C 
BRANCH  23  24
ATOM     24  C   UNL     1      36.535 -24.058 -11.229  0.00  0.00    -0.084 C 
BRANCH  24  25
ATOM     25  N   UNL     1      37.756 -23.338 -11.569  0.00  0.00    +0.380 N 
ATOM     26  H   UNL     1      38.452 -23.996 -11.920  0.00  0.00    -0.089 HD
ATOM     27  H   UNL     1      38.118 -22.870 -10.739  0.00  0.00    -0.089 HD
ATOM     28  H   UNL     1      37.551 -22.643 -12.289  0.00  0.00    -0.089 HD
ENDBRANCH  24  25
ENDBRANCH  23  24
ENDBRANCH  22  23
ENDBRANCH   3  22
TORSDOF 4
ENDMDL
MODEL 3
REMARK VINA RESULT:      -8.9      2.812      5.602
REMARK  Name = 6540255
REMARK  4 active torsions:
REMARK  status: ('A' for Active; 'I' for Inactive)
REMARK    1  A    between atoms: N_3  and  C_22
REMARK    2  A    between atoms: C_22  and  C_23
REMARK    3  A    between atoms: C_23  and  C_24
REMARK    4  A    between atoms: C_24  and  N_25
REMARK                            x       y       z     vdW  Elec       q    Type
REMARK                         _______ _______ _______ _____ _____    ______ ____
ROOT
ATOM      1  O   UNL     1      38.109 -23.227 -15.753  0.00  0.00    -0.270 OA
ATOM      2  O   UNL     1      38.276 -24.560 -11.351  0.00  0.00    -0.270 OA
ATOM      3  N   UNL     1      32.933 -23.535 -14.817  0.00  0.00    -0.327 N 
ATOM      4  N   UNL     1      38.574 -23.887 -13.568  0.00  0.00    -0.248 N 
ATOM      5  C   UNL     1      35.169 -23.526 -14.808  0.00  0.00    +0.022 A 
ATOM      6  C   UNL     1      34.030 -23.771 -14.025  0.00  0.00    +0.060 A 
ATOM      7  C   UNL     1      34.711 -23.133 -16.109  0.00  0.00    +0.017 A 
ATOM      8  C   UNL     1      33.313 -23.149 -16.079  0.00  0.00    +0.060 A 
ATOM      9  C   UNL     1      36.396 -23.717 -14.161  0.00  0.00    +0.059 C 
ATOM     10  C   UNL     1      36.455 -24.122 -12.828  0.00  0.00    +0.054 C 
ATOM     11  C   UNL     1      34.084 -24.181 -12.673  0.00  0.00    +0.013 C 
ATOM     12  C   UNL     1      35.331 -24.359 -12.069  0.00  0.00    -0.016 C 
ATOM     13  C   UNL     1      35.336 -22.760 -17.320  0.00  0.00    -0.003 C 
ATOM     14  C   UNL     1      32.520 -22.816 -17.184  0.00  0.00    +0.017 C 
ATOM     15  C   UNL     1      37.771 -23.566 -14.637  0.00  0.00    +0.252 C 
ATOM     16  C   UNL     1      37.862 -24.231 -12.446  0.00  0.00    +0.252 C 
ATOM     17  C   UNL     1      34.556 -22.425 -18.435  0.00  0.00    -0.022 C 
ATOM     18  C   UNL     1      33.168 -22.453 -18.365  0.00  0.00    -0.003 C 
ATOM     19  C   UNL     1      35.405 -24.791 -10.646  0.00  0.00    +0.031 C 
ATOM     20  C   UNL     1      35.225 -22.033 -19.710  0.00  0.00    +0.031 C 
ATOM     21  H   UNL     1      39.558 -23.871 -13.602  0.00  0.00    +0.158 HD
ENDROOT
BRANCH   3  22
ATOM     22  C   UNL     1      31.558 -23.675 -14.380  0.00  0.00    +0.104 C 
BRANCH  22  23
ATOM     23  C   UNL     1      31.152 -25.139 -14.216  0.00  0.00    +0.001 C 
BRANCH  23  24
ATOM     24  C   UNL     1      29.963 -25.483 -15.110  0.00  0.00    -0.084 C 
BRANCH  24  25
ATOM     25  N   UNL     1      28.734 -25.517 -14.327  0.00  0.00    +0.380 N 
ATOM     26  H   UNL     1      28.786 -24.824 -13.580  0.00  0.00    -0.089 HD
ATOM     27  H   UNL     1      28.614 -26.446 -13.921  0.00  0.00    -0.089 HD
ATOM     28  H   UNL     1      27.939 -25.306 -14.932  0.00  0.00    -0.089 HD
ENDBRANCH  24  25
ENDBRANCH  23  24
ENDBRANCH  22  23
ENDBRANCH   3  22
TORSDOF 4
ENDMDL
MODEL 4
REMARK VINA RESULT:      -8.9      2.725      5.913
REMARK  Name = 6540255
REMARK  4 active torsions:
REMARK  status: ('A' for Active; 'I' for Inactive)
REMARK    1  A    between atoms: N_3  and  C_22
REMARK    2  A    between atoms: C_22  and  C_23
REMARK    3  A    between atoms: C_23  and  C_24
REMARK    4  A    between atoms: C_24  and  N_25
REMARK                            x       y       z     vdW  Elec       q    Type
REMARK                         _______ _______ _______ _____ _____    ______ ____
ROOT
ATOM      1  O   UNL     1      37.896 -22.197 -16.384  0.00  0.00    -0.270 OA
ATOM      2  O   UNL     1      35.889 -21.048 -20.363  0.00  0.00    -0.270 OA
ATOM      3  N   UNL     1      32.981 -23.732 -15.269  0.00  0.00    -0.327 N 
ATOM      4  N   UNL     1      37.229 -21.496 -18.503  0.00  0.00    -0.248 N 
ATOM      5  C   UNL     1      34.902 -22.967 -16.118  0.00  0.00    +0.022 A 
ATOM      6  C   UNL     1      33.538 -23.160 -16.386  0.00  0.00    +0.060 A 
ATOM      7  C   UNL     1      35.144 -23.447 -14.788  0.00  0.00    +0.017 A 
ATOM      8  C   UNL     1      33.925 -23.917 -14.290  0.00  0.00    +0.060 A 
ATOM      9  C   UNL     1      35.643 -22.387 -17.155  0.00  0.00    +0.059 C 
ATOM     10  C   UNL     1      35.042 -22.035 -18.363  0.00  0.00    +0.054 C 
ATOM     11  C   UNL     1      32.924 -22.806 -17.609  0.00  0.00    +0.013 C 
ATOM     12  C   UNL     1      33.703 -22.229 -18.615  0.00  0.00    -0.016 C 
ATOM     13  C   UNL     1      36.275 -23.537 -13.946  0.00  0.00    -0.003 C 
ATOM     14  C   UNL     1      33.783 -24.464 -13.008  0.00  0.00    +0.017 C 
ATOM     15  C   UNL     1      37.060 -22.035 -17.249  0.00  0.00    +0.252 C 
ATOM     16  C   UNL     1      36.068 -21.460 -19.233  0.00  0.00    +0.252 C 
ATOM     17  C   UNL     1      36.148 -24.081 -12.662  0.00  0.00    -0.022 C 
ATOM     18  C   UNL     1      34.918 -24.538 -12.201  0.00  0.00    -0.003 C 
ATOM     19  C   UNL     1      33.070 -21.850 -19.909  0.00  0.00    +0.031 C 
ATOM     20  C   UNL     1      37.348 -24.171 -11.779  0.00  0.00    +0.031 C 
ATOM     21  H   UNL     1      38.094 -21.169 -18.842  0.00  0.00    +0.158 HD
ENDROOT
BRANCH   3  22
ATOM     22  C   UNL     1      31.582 -24.092 -15.140  0.00  0.00    +0.104 C 
BRANCH  22  23
ATOM     23  C   UNL     1      30.709 -22.890 -14.781  0.00  0.00    +0.001 C 
BRANCH  23  24
ATOM     24  C   UNL     1      29.335 -22.995 -15.437  0.00  0.00    -0.084 C 
BRANCH  24  25
ATOM     25  N   UNL     1      29.442 -22.785 -16.876  0.00  0.00    +0.380 N 
ATOM     26  H   UNL     1      29.559 -23.685 -17.342  0.00  0.00    -0.089 HD
ATOM     27  H   UNL     1      30.247 -22.192 -17.074  0.00  0.00    -0.089 HD
ATOM     28  H   UNL     1      28.593 -22.332 -17.217  0.00  0.00    -0.089 HD
ENDBRANCH  24  25
ENDBRANCH  23  24
ENDBRANCH  22  23
ENDBRANCH   3  22
TORSDOF 4
ENDMDL
MODEL 5
REMARK VINA RESULT:      -8.8      1.923      5.041
REMARK  Name = 6540255
REMARK  4 active torsions:
REMARK  status: ('A' for Active; 'I' for Inactive)
REMARK    1  A    between atoms: N_3  and  C_22
REMARK    2  A    between atoms: C_22  and  C_23
REMARK    3  A    between atoms: C_23  and  C_24
REMARK    4  A    between atoms: C_24  and  N_25
REMARK                            x       y       z     vdW  Elec       q    Type
REMARK                         _______ _______ _______ _____ _____    ______ ____
ROOT
ATOM      1  O   UNL     1      31.766 -22.643 -17.855  0.00  0.00    -0.270 OA
ATOM      2  O   UNL     1      34.477 -20.673 -21.010  0.00  0.00    -0.270 OA
ATOM      3  N   UNL     1      36.388 -23.176 -15.380  0.00  0.00    -0.327 N 
ATOM      4  N   UNL     1      32.815 -21.595 -19.651  0.00  0.00    -0.248 N 
ATOM      5  C   UNL     1      34.658 -22.763 -16.735  0.00  0.00    +0.022 A 
ATOM      6  C   UNL     1      36.048 -22.627 -16.592  0.00  0.00    +0.060 A 
ATOM      7  C   UNL     1      34.173 -23.419 -15.555  0.00  0.00    +0.017 A 
ATOM      8  C   UNL     1      35.278 -23.661 -14.733  0.00  0.00    +0.060 A 
ATOM      9  C   UNL     1      34.123 -22.255 -17.925  0.00  0.00    +0.059 C 
ATOM     10  C   UNL     1      34.937 -21.657 -18.886  0.00  0.00    +0.054 C 
ATOM     11  C   UNL     1      36.877 -22.022 -17.563  0.00  0.00    +0.013 C 
ATOM     12  C   UNL     1      36.300 -21.529 -18.735  0.00  0.00    -0.016 C 
ATOM     13  C   UNL     1      32.906 -23.837 -15.090  0.00  0.00    -0.003 C 
ATOM     14  C   UNL     1      35.180 -24.292 -13.486  0.00  0.00    +0.017 C 
ATOM     15  C   UNL     1      32.748 -22.213 -18.425  0.00  0.00    +0.252 C 
ATOM     16  C   UNL     1      34.092 -21.232 -20.001  0.00  0.00    +0.252 C 
ATOM     17  C   UNL     1      32.792 -24.469 -13.846  0.00  0.00    -0.022 C 
ATOM     18  C   UNL     1      33.915 -24.692 -13.056  0.00  0.00    -0.003 C 
ATOM     19  C   UNL     1      37.161 -20.890 -19.768  0.00  0.00    +0.031 C 
ATOM     20  C   UNL     1      31.449 -24.907 -13.363  0.00  0.00    +0.031 C 
ATOM     21  H   UNL     1      32.029 -21.430 -20.221  0.00  0.00    +0.158 HD
ENDROOT
BRANCH   3  22
ATOM     22  C   UNL     1      37.737 -23.236 -14.854  0.00  0.00    +0.104 C 
BRANCH  22  23
ATOM     23  C   UNL     1      38.341 -24.635 -14.974  0.00  0.00    +0.001 C 
BRANCH  23  24
ATOM     24  C   UNL     1      38.860 -25.126 -13.625  0.00  0.00    -0.084 C 
BRANCH  24  25
ATOM     25  N   UNL     1      39.956 -26.068 -13.816  0.00  0.00    +0.380 N 
ATOM     26  H   UNL     1      39.878 -26.823 -13.134  0.00  0.00    -0.089 HD
ATOM     27  H   UNL     1      40.846 -25.586 -13.689  0.00  0.00    -0.089 HD
ATOM     28  H   UNL     1      39.911 -26.455 -14.759  0.00  0.00    -0.089 HD
ENDBRANCH  24  25
ENDBRANCH  23  24
ENDBRANCH  22  23
ENDBRANCH   3  22
TORSDOF 4
ENDMDL
MODEL 6
REMARK VINA RESULT:      -8.7     11.237     13.652
REMARK  Name = 6540255
REMARK  4 active torsions:
REMARK  status: ('A' for Active; 'I' for Inactive)
REMARK    1  A    between atoms: N_3  and  C_22
REMARK    2  A    between atoms: C_22  and  C_23
REMARK    3  A    between atoms: C_23  and  C_24
REMARK    4  A    between atoms: C_24  and  N_25
REMARK                            x       y       z     vdW  Elec       q    Type
REMARK                         _______ _______ _______ _____ _____    ______ ____
ROOT
ATOM      1  O   UNL     1      32.795  -9.155 -24.007  0.00  0.00    -0.270 OA
ATOM      2  O   UNL     1      31.638  -8.095 -19.680  0.00  0.00    -0.270 OA
ATOM      3  N   UNL     1      32.511 -14.035 -22.039  0.00  0.00    -0.327 N 
ATOM      4  N   UNL     1      32.224  -8.254 -21.936  0.00  0.00    -0.248 N 
ATOM      5  C   UNL     1      32.524 -11.843 -22.480  0.00  0.00    +0.022 A 
ATOM      6  C   UNL     1      32.311 -12.799 -21.475  0.00  0.00    +0.060 A 
ATOM      7  C   UNL     1      32.862 -12.557 -23.678  0.00  0.00    +0.017 A 
ATOM      8  C   UNL     1      32.843 -13.920 -23.367  0.00  0.00    +0.060 A 
ATOM      9  C   UNL     1      32.364 -10.509 -22.086  0.00  0.00    +0.059 C 
ATOM     10  C   UNL     1      32.014 -10.180 -20.777  0.00  0.00    +0.054 C 
ATOM     11  C   UNL     1      31.956 -12.470 -20.147  0.00  0.00    +0.013 C 
ATOM     12  C   UNL     1      31.807 -11.126 -19.799  0.00  0.00    -0.016 C 
ATOM     13  C   UNL     1      33.183 -12.192 -25.004  0.00  0.00    -0.003 C 
ATOM     14  C   UNL     1      33.127 -14.922 -24.303  0.00  0.00    +0.017 C 
ATOM     15  C   UNL     1      32.499  -9.259 -22.834  0.00  0.00    +0.252 C 
ATOM     16  C   UNL     1      31.924  -8.723 -20.682  0.00  0.00    +0.252 C 
ATOM     17  C   UNL     1      33.469 -13.183 -25.952  0.00  0.00    -0.022 C 
ATOM     18  C   UNL     1      33.441 -14.529 -25.604  0.00  0.00    -0.003 C 
ATOM     19  C   UNL     1      31.435 -10.763 -18.403  0.00  0.00    +0.031 C 
ATOM     20  C   UNL     1      33.808 -12.788 -27.351  0.00  0.00    +0.031 C 
ATOM     21  H   UNL     1      32.240  -7.298 -22.169  0.00  0.00    +0.158 HD
ENDROOT
BRANCH   3  22
ATOM     22  C   UNL     1      32.387 -15.292 -21.329  0.00  0.00    +0.104 C 
BRANCH  22  23
ATOM     23  C   UNL     1      33.716 -15.748 -20.729  0.00  0.00    +0.001 C 
BRANCH  23  24
ATOM     24  C   UNL     1      34.312 -16.904 -21.528  0.00  0.00    -0.084 C 
BRANCH  24  25
ATOM     25  N   UNL     1      35.345 -17.579 -20.752  0.00  0.00    +0.380 N 
ATOM     26  H   UNL     1      35.469 -17.098 -19.861  0.00  0.00    -0.089 HD
ATOM     27  H   UNL     1      36.223 -17.566 -21.270  0.00  0.00    -0.089 HD
ATOM     28  H   UNL     1      35.065 -18.546 -20.581  0.00  0.00    -0.089 HD
ENDBRANCH  24  25
ENDBRANCH  23  24
ENDBRANCH  22  23
ENDBRANCH   3  22
TORSDOF 4
ENDMDL
MODEL 7
REMARK VINA RESULT:      -8.5     10.417     13.702
REMARK  Name = 6540255
REMARK  4 active torsions:
REMARK  status: ('A' for Active; 'I' for Inactive)
REMARK    1  A    between atoms: N_3  and  C_22
REMARK    2  A    between atoms: C_22  and  C_23
REMARK    3  A    between atoms: C_23  and  C_24
REMARK    4  A    between atoms: C_24  and  N_25
REMARK                            x       y       z     vdW  Elec       q    Type
REMARK                         _______ _______ _______ _____ _____    ______ ____
ROOT
ATOM      1  O   UNL     1      32.406 -15.301 -19.813  0.00  0.00    -0.270 OA
ATOM      2  O   UNL     1      34.474 -18.364 -22.557  0.00  0.00    -0.270 OA
ATOM      3  N   UNL     1      33.314 -12.175 -23.956  0.00  0.00    -0.327 N 
ATOM      4  N   UNL     1      33.398 -17.098 -20.914  0.00  0.00    -0.248 N 
ATOM      5  C   UNL     1      33.116 -13.801 -22.435  0.00  0.00    +0.022 A 
ATOM      6  C   UNL     1      33.590 -13.499 -23.721  0.00  0.00    +0.060 A 
ATOM      7  C   UNL     1      32.541 -12.599 -21.903  0.00  0.00    +0.017 A 
ATOM      8  C   UNL     1      32.681 -11.607 -22.878  0.00  0.00    +0.060 A 
ATOM      9  C   UNL     1      33.313 -15.123 -22.016  0.00  0.00    +0.059 C 
ATOM     10  C   UNL     1      33.939 -16.056 -22.841  0.00  0.00    +0.054 C 
ATOM     11  C   UNL     1      34.225 -14.441 -24.561  0.00  0.00    +0.013 C 
ATOM     12  C   UNL     1      34.400 -15.749 -24.102  0.00  0.00    -0.016 C 
ATOM     13  C   UNL     1      31.909 -12.243 -20.691  0.00  0.00    -0.003 C 
ATOM     14  C   UNL     1      32.227 -10.293 -22.702  0.00  0.00    +0.017 C 
ATOM     15  C   UNL     1      32.965 -15.802 -20.768  0.00  0.00    +0.252 C 
ATOM     16  C   UNL     1      33.994 -17.332 -22.128  0.00  0.00    +0.252 C 
ATOM     17  C   UNL     1      31.451 -10.934 -20.500  0.00  0.00    -0.022 C 
ATOM     18  C   UNL     1      31.609  -9.973 -21.493  0.00  0.00    -0.003 C 
ATOM     19  C   UNL     1      35.068 -16.753 -24.975  0.00  0.00    +0.031 C 
ATOM     20  C   UNL     1      30.786 -10.566 -19.215  0.00  0.00    +0.031 C 
ATOM     21  H   UNL     1      33.293 -17.789 -20.219  0.00  0.00    +0.158 HD
ENDROOT
BRANCH   3  22
ATOM     22  C   UNL     1      33.645 -11.470 -25.179  0.00  0.00    +0.104 C 
BRANCH  22  23
ATOM     23  C   UNL     1      34.780 -10.467 -24.976  0.00  0.00    +0.001 C 
BRANCH  23  24
ATOM     24  C   UNL     1      35.660 -10.375 -26.220  0.00  0.00    -0.084 C 
BRANCH  24  25
ATOM     25  N   UNL     1      35.245 -11.362 -27.210  0.00  0.00    +0.380 N 
ATOM     26  H   UNL     1      35.841 -11.289 -28.034  0.00  0.00    -0.089 HD
ATOM     27  H   UNL     1      34.275 -11.190 -27.476  0.00  0.00    -0.089 HD
ATOM     28  H   UNL     1      35.328 -12.298 -26.812  0.00  0.00    -0.089 HD
ENDBRANCH  24  25
ENDBRANCH  23  24
ENDBRANCH  22  23
ENDBRANCH   3  22
TORSDOF 4
ENDMDL
MODEL 8
REMARK VINA RESULT:      -8.4     12.267     15.409
REMARK  Name = 6540255
REMARK  4 active torsions:
REMARK  status: ('A' for Active; 'I' for Inactive)
REMARK    1  A    between atoms: N_3  and  C_22
REMARK    2  A    between atoms: C_22  and  C_23
REMARK    3  A    between atoms: C_23  and  C_24
REMARK    4  A    between atoms: C_24  and  N_25
REMARK                            x       y       z     vdW  Elec       q    Type
REMARK                         _______ _______ _______ _____ _____    ______ ____
ROOT
ATOM      1  O   UNL     1      31.553 -10.787 -19.351  0.00  0.00    -0.270 OA
ATOM      2  O   UNL     1      31.978  -6.441 -20.808  0.00  0.00    -0.270 OA
ATOM      3  N   UNL     1      33.545 -11.740 -24.136  0.00  0.00    -0.327 N 
ATOM      4  N   UNL     1      31.625  -8.492 -19.746  0.00  0.00    -0.248 N 
ATOM      5  C   UNL     1      32.731 -10.926 -22.219  0.00  0.00    +0.022 A 
ATOM      6  C   UNL     1      33.232 -10.574 -23.482  0.00  0.00    +0.060 A 
ATOM      7  C   UNL     1      32.756 -12.358 -22.139  0.00  0.00    +0.017 A 
ATOM      8  C   UNL     1      33.269 -12.832 -23.350  0.00  0.00    +0.060 A 
ATOM      9  C   UNL     1      32.354  -9.854 -21.401  0.00  0.00    +0.059 C 
ATOM     10  C   UNL     1      32.479  -8.535 -21.835  0.00  0.00    +0.054 C 
ATOM     11  C   UNL     1      33.360  -9.238 -23.927  0.00  0.00    +0.013 C 
ATOM     12  C   UNL     1      32.971  -8.201 -23.076  0.00  0.00    -0.016 C 
ATOM     13  C   UNL     1      32.397 -13.312 -21.161  0.00  0.00    -0.003 C 
ATOM     14  C   UNL     1      33.438 -14.194 -23.629  0.00  0.00    +0.017 C 
ATOM     15  C   UNL     1      31.800  -9.822 -20.047  0.00  0.00    +0.252 C 
ATOM     16  C   UNL     1      32.007  -7.656 -20.765  0.00  0.00    +0.252 C 
ATOM     17  C   UNL     1      32.559 -14.678 -21.425  0.00  0.00    -0.022 C 
ATOM     18  C   UNL     1      33.074 -15.111 -22.643  0.00  0.00    -0.003 C 
ATOM     19  C   UNL     1      33.100  -6.789 -23.531  0.00  0.00    +0.031 C 
ATOM     20  C   UNL     1      32.176 -15.679 -20.386  0.00  0.00    +0.031 C 
ATOM     21  H   UNL     1      31.262  -8.171 -18.889  0.00  0.00    +0.158 HD
ENDROOT
BRANCH   3  22
ATOM     22  C   UNL     1      34.094 -11.809 -25.475  0.00  0.00    +0.104 C 
BRANCH  22  23
ATOM     23  C   UNL     1      33.036 -12.185 -26.513  0.00  0.00    +0.001 C 
BRANCH  23  24
ATOM     24  C   UNL     1      33.338 -13.544 -27.138  0.00  0.00    -0.084 C 
BRANCH  24  25
ATOM     25  N   UNL     1      32.344 -14.526 -26.724  0.00  0.00    +0.380 N 
ATOM     26  H   UNL     1      32.742 -15.132 -26.006  0.00  0.00    -0.089 HD
ATOM     27  H   UNL     1      32.065 -15.089 -27.528  0.00  0.00    -0.089 HD
ATOM     28  H   UNL     1      31.526 -14.044 -26.348  0.00  0.00    -0.089 HD
ENDBRANCH  24  25
ENDBRANCH  23  24
ENDBRANCH  22  23
ENDBRANCH   3  22
TORSDOF 4
ENDMDL
MODEL 9
REMARK VINA RESULT:      -8.2      2.239      4.659
REMARK  Name = 6540255
REMARK  4 active torsions:
REMARK  status: ('A' for Active; 'I' for Inactive)
REMARK    1  A    between atoms: N_3  and  C_22
REMARK    2  A    between atoms: C_22  and  C_23
REMARK    3  A    between atoms: C_23  and  C_24
REMARK    4  A    between atoms: C_24  and  N_25
REMARK                            x       y       z     vdW  Elec       q    Type
REMARK                         _______ _______ _______ _____ _____    ______ ____
ROOT
ATOM      1  O   UNL     1      32.628 -25.427 -12.682  0.00  0.00    -0.270 OA
ATOM      2  O   UNL     1      28.714 -24.268 -14.809  0.00  0.00    -0.270 OA
ATOM      3  N   UNL     1      34.684 -22.802 -16.762  0.00  0.00    -0.327 N 
ATOM      4  N   UNL     1      30.474 -25.026 -13.472  0.00  0.00    -0.248 N 
ATOM      5  C   UNL     1      33.438 -23.819 -15.210  0.00  0.00    +0.022 A 
ATOM      6  C   UNL     1      33.389 -23.081 -16.403  0.00  0.00    +0.060 A 
ATOM      7  C   UNL     1      34.822 -23.974 -14.865  0.00  0.00    +0.017 A 
ATOM      8  C   UNL     1      35.570 -23.327 -15.853  0.00  0.00    +0.060 A 
ATOM      9  C   UNL     1      32.196 -24.199 -14.686  0.00  0.00    +0.059 C 
ATOM     10  C   UNL     1      31.006 -23.852 -15.324  0.00  0.00    +0.054 C 
ATOM     11  C   UNL     1      32.185 -22.727 -17.053  0.00  0.00    +0.013 C 
ATOM     12  C   UNL     1      30.970 -23.127 -16.494  0.00  0.00    -0.016 C 
ATOM     13  C   UNL     1      35.527 -24.597 -13.812  0.00  0.00    -0.003 C 
ATOM     14  C   UNL     1      36.970 -23.274 -15.841  0.00  0.00    +0.017 C 
ATOM     15  C   UNL     1      31.847 -24.960 -13.486  0.00  0.00    +0.252 C 
ATOM     16  C   UNL     1      29.894 -24.387 -14.539  0.00  0.00    +0.252 C 
ATOM     17  C   UNL     1      36.927 -24.553 -13.786  0.00  0.00    -0.022 C 
ATOM     18  C   UNL     1      37.636 -23.900 -14.788  0.00  0.00    -0.003 C 
ATOM     19  C   UNL     1      29.693 -22.763 -17.169  0.00  0.00    +0.031 C 
ATOM     20  C   UNL     1      37.664 -25.215 -12.669  0.00  0.00    +0.031 C 
ATOM     21  H   UNL     1      29.958 -25.485 -12.769  0.00  0.00    +0.158 HD
ENDROOT
BRANCH   3  22
ATOM     22  C   UNL     1      35.067 -22.052 -17.942  0.00  0.00    +0.104 C 
BRANCH  22  23
ATOM     23  C   UNL     1      34.198 -22.399 -19.151  0.00  0.00    +0.001 C 
BRANCH  23  24
ATOM     24  C   UNL     1      33.965 -21.172 -20.030  0.00  0.00    -0.084 C 
BRANCH  24  25
ATOM     25  N   UNL     1      32.645 -20.609 -19.775  0.00  0.00    +0.380 N 
ATOM     26  H   UNL     1      32.573 -20.342 -18.794  0.00  0.00    -0.089 HD
ATOM     27  H   UNL     1      31.931 -21.304 -19.992  0.00  0.00    -0.089 HD
ATOM     28  H   UNL     1      32.508 -19.785 -20.363  0.00  0.00    -0.089 HD
ENDBRANCH  24  25
ENDBRANCH  23  24
ENDBRANCH  22  23
ENDBRANCH   3  22
TORSDOF 4
ENDMDL
