MODEL 1
REMARK VINA RESULT:      -4.5      0.000      0.000
REMARK  Name = 7991
REMARK  4 active torsions:
REMARK  status: ('A' for Active; 'I' for Inactive)
REMARK    1  A    between atoms: C_1  and  C_3
REMARK    2  A    between atoms: C_1  and  C_6
REMARK    3  A    between atoms: C_3  and  O_4
REMARK    4  A    between atoms: C_6  and  C_7
REMARK                            x       y       z     vdW  Elec       q    Type
REMARK                         _______ _______ _______ _____ _____    ______ ____
ROOT
ATOM      1  C   UNL     1      39.262 -25.073 -14.184  0.00  0.00    +0.109 C 
ENDROOT
BRANCH   1   3
ATOM      2  O   UNL     1      41.163 -26.591 -14.069  0.00  0.00    -0.250 OA
ATOM      3  C   UNL     1      40.368 -25.943 -14.737  0.00  0.00    +0.314 C 
BRANCH   3   4
ATOM      4  O   UNL     1      40.380 -25.929 -16.095  0.00  0.00    -0.480 OA
ATOM      5  H   UNL     1      39.586 -26.076 -16.572  0.00  0.00    +0.295 HD
ENDBRANCH   3   4
ENDBRANCH   1   3
BRANCH   1   6
ATOM      6  C   UNL     1      38.368 -25.838 -13.211  0.00  0.00    +0.012 C 
BRANCH   6   7
ATOM      7  C   UNL     1      37.332 -26.724 -13.907  0.00  0.00    +0.001 C 
ATOM      8  C   UNL     1      36.618 -26.032 -15.057  0.00  0.00    +0.000 C 
ENDBRANCH   6   7
ENDBRANCH   1   6
TORSDOF 4
ENDMDL
MODEL 2
REMARK VINA RESULT:      -4.4      9.524     10.694
REMARK  Name = 7991
REMARK  4 active torsions:
REMARK  status: ('A' for Active; 'I' for Inactive)
REMARK    1  A    between atoms: C_1  and  C_3
REMARK    2  A    between atoms: C_1  and  C_6
REMARK    3  A    between atoms: C_3  and  O_4
REMARK    4  A    between atoms: C_6  and  C_7
REMARK                            x       y       z     vdW  Elec       q    Type
REMARK                         _______ _______ _______ _____ _____    ______ ____
ROOT
ATOM      1  C   UNL     1      28.896 -23.798 -15.612  0.00  0.00    +0.109 C 
ENDROOT
BRANCH   1   3
ATOM      2  O   UNL     1      27.585 -23.999 -17.655  0.00  0.00    -0.250 OA
ATOM      3  C   UNL     1      28.233 -23.308 -16.879  0.00  0.00    +0.314 C 
BRANCH   3   4
ATOM      4  O   UNL     1      28.437 -21.978 -17.065  0.00  0.00    -0.480 OA
ATOM      5  H   UNL     1      28.669 -21.434 -16.337  0.00  0.00    +0.295 HD
ENDBRANCH   3   4
ENDBRANCH   1   3
BRANCH   1   6
ATOM      6  C   UNL     1      29.845 -22.754 -15.026  0.00  0.00    +0.012 C 
BRANCH   6   7
ATOM      7  C   UNL     1      31.313 -23.187 -15.050  0.00  0.00    +0.001 C 
ATOM      8  C   UNL     1      31.919 -23.196 -16.444  0.00  0.00    +0.000 C 
ENDBRANCH   6   7
ENDBRANCH   1   6
TORSDOF 4
ENDMDL
MODEL 3
REMARK VINA RESULT:      -4.4      8.253      9.505
REMARK  Name = 7991
REMARK  4 active torsions:
REMARK  status: ('A' for Active; 'I' for Inactive)
REMARK    1  A    between atoms: C_1  and  C_3
REMARK    2  A    between atoms: C_1  and  C_6
REMARK    3  A    between atoms: C_3  and  O_4
REMARK    4  A    between atoms: C_6  and  C_7
REMARK                            x       y       z     vdW  Elec       q    Type
REMARK                         _______ _______ _______ _____ _____    ______ ____
ROOT
ATOM      1  C   UNL     1      34.286 -21.281 -19.680  0.00  0.00    +0.109 C 
ENDROOT
BRANCH   1   3
ATOM      2  O   UNL     1      34.030 -23.692 -19.458  0.00  0.00    -0.250 OA
ATOM      3  C   UNL     1      33.640 -22.561 -19.202  0.00  0.00    +0.314 C 
BRANCH   3   4
ATOM      4  O   UNL     1      32.551 -22.309 -18.429  0.00  0.00    -0.480 OA
ATOM      5  H   UNL     1      32.509 -21.524 -17.920  0.00  0.00    +0.295 HD
ENDBRANCH   3   4
ENDBRANCH   1   3
BRANCH   1   6
ATOM      6  C   UNL     1      33.266 -20.325 -20.297  0.00  0.00    +0.012 C 
BRANCH   6   7
ATOM      7  C   UNL     1      33.835 -19.491 -21.447  0.00  0.00    +0.001 C 
ATOM      8  C   UNL     1      35.190 -18.874 -21.136  0.00  0.00    +0.000 C 
ENDBRANCH   6   7
ENDBRANCH   1   6
TORSDOF 4
ENDMDL
MODEL 4
REMARK VINA RESULT:      -4.4     11.414     12.487
REMARK  Name = 7991
REMARK  4 active torsions:
REMARK  status: ('A' for Active; 'I' for Inactive)
REMARK    1  A    between atoms: C_1  and  C_3
REMARK    2  A    between atoms: C_1  and  C_6
REMARK    3  A    between atoms: C_3  and  O_4
REMARK    4  A    between atoms: C_6  and  C_7
REMARK                            x       y       z     vdW  Elec       q    Type
REMARK                         _______ _______ _______ _____ _____    ______ ____
ROOT
ATOM      1  C   UNL     1      34.843 -19.002 -23.509  0.00  0.00    +0.109 C 
ENDROOT
BRANCH   1   3
ATOM      2  O   UNL     1      34.462 -17.741 -25.557  0.00  0.00    -0.250 OA
ATOM      3  C   UNL     1      34.919 -17.801 -24.423  0.00  0.00    +0.314 C 
BRANCH   3   4
ATOM      4  O   UNL     1      35.563 -16.763 -23.828  0.00  0.00    -0.480 OA
ATOM      5  H   UNL     1      35.179 -15.908 -23.835  0.00  0.00    +0.295 HD
ENDBRANCH   3   4
ENDBRANCH   1   3
BRANCH   1   6
ATOM      6  C   UNL     1      34.518 -18.603 -22.070  0.00  0.00    +0.012 C 
BRANCH   6   7
ATOM      7  C   UNL     1      34.345 -19.800 -21.133  0.00  0.00    +0.001 C 
ATOM      8  C   UNL     1      32.926 -19.963 -20.613  0.00  0.00    +0.000 C 
ENDBRANCH   6   7
ENDBRANCH   1   6
TORSDOF 4
ENDMDL
MODEL 5
REMARK VINA RESULT:      -4.4      9.766     10.893
REMARK  Name = 7991
REMARK  4 active torsions:
REMARK  status: ('A' for Active; 'I' for Inactive)
REMARK    1  A    between atoms: C_1  and  C_3
REMARK    2  A    between atoms: C_1  and  C_6
REMARK    3  A    between atoms: C_3  and  O_4
REMARK    4  A    between atoms: C_6  and  C_7
REMARK                            x       y       z     vdW  Elec       q    Type
REMARK                         _______ _______ _______ _____ _____    ______ ____
ROOT
ATOM      1  C   UNL     1      28.730 -23.613 -15.642  0.00  0.00    +0.109 C 
ENDROOT
BRANCH   1   3
ATOM      2  O   UNL     1      27.861 -21.763 -16.966  0.00  0.00    -0.250 OA
ATOM      3  C   UNL     1      28.031 -22.965 -16.815  0.00  0.00    +0.314 C 
BRANCH   3   4
ATOM      4  O   UNL     1      27.605 -23.892 -17.713  0.00  0.00    -0.480 OA
ATOM      5  H   UNL     1      27.852 -23.819 -18.614  0.00  0.00    +0.295 HD
ENDBRANCH   3   4
ENDBRANCH   1   3
BRANCH   1   6
ATOM      6  C   UNL     1      29.782 -22.692 -15.027  0.00  0.00    +0.012 C 
BRANCH   6   7
ATOM      7  C   UNL     1      31.203 -23.252 -15.113  0.00  0.00    +0.001 C 
ATOM      8  C   UNL     1      31.806 -23.163 -16.507  0.00  0.00    +0.000 C 
ENDBRANCH   6   7
ENDBRANCH   1   6
TORSDOF 4
ENDMDL
MODEL 6
REMARK VINA RESULT:      -4.3     10.212     11.210
REMARK  Name = 7991
REMARK  4 active torsions:
REMARK  status: ('A' for Active; 'I' for Inactive)
REMARK    1  A    between atoms: C_1  and  C_3
REMARK    2  A    between atoms: C_1  and  C_6
REMARK    3  A    between atoms: C_3  and  O_4
REMARK    4  A    between atoms: C_6  and  C_7
REMARK                            x       y       z     vdW  Elec       q    Type
REMARK                         _______ _______ _______ _____ _____    ______ ____
ROOT
ATOM      1  C   UNL     1      34.631 -18.621 -22.247  0.00  0.00    +0.109 C 
ENDROOT
BRANCH   1   3
ATOM      2  O   UNL     1      35.296 -16.916 -20.641  0.00  0.00    -0.250 OA
ATOM      3  C   UNL     1      35.238 -17.312 -21.797  0.00  0.00    +0.314 C 
BRANCH   3   4
ATOM      4  O   UNL     1      35.730 -16.605 -22.848  0.00  0.00    -0.480 OA
ATOM      5  H   UNL     1      36.494 -16.907 -23.299  0.00  0.00    +0.295 HD
ENDBRANCH   3   4
ENDBRANCH   1   3
BRANCH   1   6
ATOM      6  C   UNL     1      34.669 -19.676 -21.142  0.00  0.00    +0.012 C 
BRANCH   6   7
ATOM      7  C   UNL     1      33.282 -20.051 -20.614  0.00  0.00    +0.001 C 
ATOM      8  C   UNL     1      33.304 -21.190 -19.607  0.00  0.00    +0.000 C 
ENDBRANCH   6   7
ENDBRANCH   1   6
TORSDOF 4
ENDMDL
MODEL 7
REMARK VINA RESULT:      -4.1      7.292      8.344
REMARK  Name = 7991
REMARK  4 active torsions:
REMARK  status: ('A' for Active; 'I' for Inactive)
REMARK    1  A    between atoms: C_1  and  C_3
REMARK    2  A    between atoms: C_1  and  C_6
REMARK    3  A    between atoms: C_3  and  O_4
REMARK    4  A    between atoms: C_6  and  C_7
REMARK                            x       y       z     vdW  Elec       q    Type
REMARK                         _______ _______ _______ _____ _____    ______ ____
ROOT
ATOM      1  C   UNL     1      35.440 -21.637 -19.908  0.00  0.00    +0.109 C 
ENDROOT
BRANCH   1   3
ATOM      2  O   UNL     1      35.570 -22.519 -17.642  0.00  0.00    -0.250 OA
ATOM      3  C   UNL     1      35.953 -21.724 -18.489  0.00  0.00    +0.314 C 
BRANCH   3   4
ATOM      4  O   UNL     1      36.919 -20.797 -18.252  0.00  0.00    -0.480 OA
ATOM      5  H   UNL     1      37.569 -20.956 -17.596  0.00  0.00    +0.295 HD
ENDBRANCH   3   4
ENDBRANCH   1   3
BRANCH   1   6
ATOM      6  C   UNL     1      35.503 -20.210 -20.450  0.00  0.00    +0.012 C 
BRANCH   6   7
ATOM      7  C   UNL     1      34.141 -19.667 -20.889  0.00  0.00    +0.001 C 
ATOM      8  C   UNL     1      32.966 -20.385 -20.244  0.00  0.00    +0.000 C 
ENDBRANCH   6   7
ENDBRANCH   1   6
TORSDOF 4
ENDMDL
MODEL 8
REMARK VINA RESULT:      -4.1      9.478     10.601
REMARK  Name = 7991
REMARK  4 active torsions:
REMARK  status: ('A' for Active; 'I' for Inactive)
REMARK    1  A    between atoms: C_1  and  C_3
REMARK    2  A    between atoms: C_1  and  C_6
REMARK    3  A    between atoms: C_3  and  O_4
REMARK    4  A    between atoms: C_6  and  C_7
REMARK                            x       y       z     vdW  Elec       q    Type
REMARK                         _______ _______ _______ _____ _____    ______ ____
ROOT
ATOM      1  C   UNL     1      34.709 -20.620 -20.264  0.00  0.00    +0.109 C 
ENDROOT
BRANCH   1   3
ATOM      2  O   UNL     1      33.058 -22.262 -19.548  0.00  0.00    -0.250 OA
ATOM      3  C   UNL     1      33.331 -21.120 -19.896  0.00  0.00    +0.314 C 
BRANCH   3   4
ATOM      4  O   UNL     1      32.402 -20.133 -19.993  0.00  0.00    -0.480 OA
ATOM      5  H   UNL     1      32.518 -19.333 -19.520  0.00  0.00    +0.295 HD
ENDBRANCH   3   4
ENDBRANCH   1   3
BRANCH   1   6
ATOM      6  C   UNL     1      34.653 -19.276 -20.988  0.00  0.00    +0.012 C 
BRANCH   6   7
ATOM      7  C   UNL     1      34.793 -19.399 -22.506  0.00  0.00    +0.001 C 
ATOM      8  C   UNL     1      35.139 -18.086 -23.191  0.00  0.00    +0.000 C 
ENDBRANCH   6   7
ENDBRANCH   1   6
TORSDOF 4
ENDMDL
MODEL 9
REMARK VINA RESULT:      -4.1     19.899     20.589
REMARK  Name = 7991
REMARK  4 active torsions:
REMARK  status: ('A' for Active; 'I' for Inactive)
REMARK    1  A    between atoms: C_1  and  C_3
REMARK    2  A    between atoms: C_1  and  C_6
REMARK    3  A    between atoms: C_3  and  O_4
REMARK    4  A    between atoms: C_6  and  C_7
REMARK                            x       y       z     vdW  Elec       q    Type
REMARK                         _______ _______ _______ _____ _____    ______ ____
ROOT
ATOM      1  C   UNL     1      32.496  -8.517 -21.591  0.00  0.00    +0.109 C 
ENDROOT
BRANCH   1   3
ATOM      2  O   UNL     1      31.915  -9.147 -19.312  0.00  0.00    -0.250 OA
ATOM      3  C   UNL     1      32.491  -8.393 -20.085  0.00  0.00    +0.314 C 
BRANCH   3   4
ATOM      4  O   UNL     1      33.223  -7.325 -19.672  0.00  0.00    -0.480 OA
ATOM      5  H   UNL     1      33.908  -6.989 -20.216  0.00  0.00    +0.295 HD
ENDBRANCH   3   4
ENDBRANCH   1   3
BRANCH   1   6
ATOM      6  C   UNL     1      33.138  -7.303 -22.260  0.00  0.00    +0.012 C 
BRANCH   6   7
ATOM      7  C   UNL     1      34.383  -7.650 -23.080  0.00  0.00    +0.001 C 
ATOM      8  C   UNL     1      34.443  -6.940 -24.423  0.00  0.00    +0.000 C 
ENDBRANCH   6   7
ENDBRANCH   1   6
TORSDOF 4
ENDMDL
