MODEL 1
REMARK VINA RESULT:      -9.0      0.000      0.000
REMARK  Name = 3307
REMARK  2 active torsions:
REMARK  status: ('A' for Active; 'I' for Inactive)
REMARK    1  A    between atoms: C_8  and  C_16
REMARK    2  A    between atoms: C_10  and  C_22
REMARK                            x       y       z     vdW  Elec       q    Type
REMARK                         _______ _______ _______ _____ _____    ______ ____
ROOT
ATOM      1  S   UNL     1      32.787 -22.955 -16.967  0.00  0.00    -0.074 S 
ATOM      2  N   UNL     1      35.183 -22.313 -17.930  0.00  0.00    -0.274 N 
ATOM      3  N   UNL     1      37.369 -22.669 -15.782  0.00  0.00    -0.262 NA
ATOM      4  N   UNL     1      36.853 -21.427 -19.073  0.00  0.00    -0.131 NA
ATOM      5  N   UNL     1      35.828 -21.691 -19.948  0.00  0.00    -0.133 NA
ATOM      6  C   UNL     1      34.472 -22.821 -16.851  0.00  0.00    +0.097 C 
ATOM      7  C   UNL     1      34.996 -23.255 -15.646  0.00  0.00    +0.040 C 
ATOM      8  C   UNL     1      36.422 -23.420 -15.338  0.00  0.00    +0.079 C 
ATOM      9  C   UNL     1      36.449 -21.767 -17.868  0.00  0.00    +0.172 A 
ATOM     10  C   UNL     1      32.670 -23.483 -15.349  0.00  0.00    +0.009 C 
ATOM     11  C   UNL     1      33.911 -23.606 -14.763  0.00  0.00    +0.006 C 
ATOM     12  C   UNL     1      37.124 -21.479 -16.580  0.00  0.00    +0.191 C 
ATOM     13  C   UNL     1      34.830 -22.186 -19.251  0.00  0.00    +0.148 A 
ATOM     14  C   UNL     1      33.561 -22.626 -19.866  0.00  0.00    +0.074 C 
ENDROOT
BRANCH   8  16
ATOM     15 CL   UNL     1      37.069 -22.824 -12.378  0.00  0.00    -0.082 Cl
ATOM     16  C   UNL     1      36.813 -24.560 -14.467  0.00  0.00    +0.028 C 
ATOM     17  C   UNL     1      37.121 -24.382 -13.121  0.00  0.00    +0.059 C 
ATOM     18  C   UNL     1      36.866 -25.829 -15.040  0.00  0.00    +0.002 C 
ATOM     19  C   UNL     1      37.484 -25.481 -12.342  0.00  0.00    +0.011 C 
ATOM     20  C   UNL     1      37.229 -26.928 -14.259  0.00  0.00    +0.000 C 
ATOM     21  C   UNL     1      37.538 -26.753 -12.910  0.00  0.00    +0.001 C 
ENDBRANCH   8  16
BRANCH  10  22
ATOM     22  C   UNL     1      31.342 -23.766 -14.765  0.00  0.00    +0.033 C 
ATOM     23  C   UNL     1      31.358 -24.968 -13.813  0.00  0.00    +0.006 C 
ENDBRANCH  10  22
TORSDOF 2
ENDMDL
MODEL 2
REMARK VINA RESULT:      -8.4      3.124      6.190
REMARK  Name = 3307
REMARK  2 active torsions:
REMARK  status: ('A' for Active; 'I' for Inactive)
REMARK    1  A    between atoms: C_8  and  C_16
REMARK    2  A    between atoms: C_10  and  C_22
REMARK                            x       y       z     vdW  Elec       q    Type
REMARK                         _______ _______ _______ _____ _____    ______ ____
ROOT
ATOM      1  S   UNL     1      37.640 -23.467 -15.662  0.00  0.00    -0.074 S 
ATOM      2  N   UNL     1      36.788 -24.803 -13.524  0.00  0.00    -0.274 N 
ATOM      3  N   UNL     1      33.877 -24.047 -12.836  0.00  0.00    -0.262 NA
ATOM      4  N   UNL     1      36.651 -25.903 -11.613  0.00  0.00    -0.131 NA
ATOM      5  N   UNL     1      37.756 -26.357 -12.291  0.00  0.00    -0.133 NA
ATOM      6  C   UNL     1      36.451 -23.922 -14.544  0.00  0.00    +0.097 C 
ATOM      7  C   UNL     1      35.210 -23.355 -14.770  0.00  0.00    +0.040 C 
ATOM      8  C   UNL     1      33.964 -23.705 -14.075  0.00  0.00    +0.079 C 
ATOM      9  C   UNL     1      36.099 -24.954 -12.338  0.00  0.00    +0.172 A 
ATOM     10  C   UNL     1      36.571 -22.380 -16.427  0.00  0.00    +0.009 C 
ATOM     11  C   UNL     1      35.314 -22.420 -15.863  0.00  0.00    +0.006 C 
ATOM     12  C   UNL     1      35.014 -24.031 -11.930  0.00  0.00    +0.191 C 
ATOM     13  C   UNL     1      37.845 -25.672 -13.408  0.00  0.00    +0.148 A 
ATOM     14  C   UNL     1      38.896 -25.914 -14.418  0.00  0.00    +0.074 C 
ENDROOT
BRANCH   8  16
ATOM     15 CL   UNL     1      31.595 -25.399 -13.050  0.00  0.00    -0.082 Cl
ATOM     16  C   UNL     1      32.705 -23.692 -14.865  0.00  0.00    +0.028 C 
ATOM     17  C   UNL     1      31.587 -24.426 -14.476  0.00  0.00    +0.059 C 
ATOM     18  C   UNL     1      32.671 -22.918 -16.022  0.00  0.00    +0.002 C 
ATOM     19  C   UNL     1      30.427 -24.385 -15.250  0.00  0.00    +0.011 C 
ATOM     20  C   UNL     1      31.510 -22.876 -16.795  0.00  0.00    +0.000 C 
ATOM     21  C   UNL     1      30.388 -23.610 -16.408  0.00  0.00    +0.001 C 
ENDBRANCH   8  16
BRANCH  10  22
ATOM     22  C   UNL     1      37.045 -21.564 -17.565  0.00  0.00    +0.033 C 
ATOM     23  C   UNL     1      36.099 -21.622 -18.769  0.00  0.00    +0.006 C 
ENDBRANCH  10  22
TORSDOF 2
ENDMDL
MODEL 3
REMARK VINA RESULT:      -8.3     15.152     18.108
REMARK  Name = 3307
REMARK  2 active torsions:
REMARK  status: ('A' for Active; 'I' for Inactive)
REMARK    1  A    between atoms: C_8  and  C_16
REMARK    2  A    between atoms: C_10  and  C_22
REMARK                            x       y       z     vdW  Elec       q    Type
REMARK                         _______ _______ _______ _____ _____    ______ ____
ROOT
ATOM      1  S   UNL     1      33.101 -11.173 -23.143  0.00  0.00    -0.074 S 
ATOM      2  N   UNL     1      32.148  -9.770 -21.091  0.00  0.00    -0.274 N 
ATOM      3  N   UNL     1      32.740  -6.762 -21.440  0.00  0.00    -0.262 NA
ATOM      4  N   UNL     1      31.451  -9.110 -19.102  0.00  0.00    -0.131 NA
ATOM      5  N   UNL     1      30.979 -10.381 -19.322  0.00  0.00    -0.133 NA
ATOM      6  C   UNL     1      32.767  -9.721 -22.334  0.00  0.00    +0.097 C 
ATOM      7  C   UNL     1      33.152  -8.585 -23.022  0.00  0.00    +0.040 C 
ATOM      8  C   UNL     1      32.830  -7.202 -22.647  0.00  0.00    +0.079 C 
ATOM      9  C   UNL     1      32.175  -8.765 -20.145  0.00  0.00    +0.172 A 
ATOM     10  C   UNL     1      33.900 -10.342 -24.401  0.00  0.00    +0.009 C 
ATOM     11  C   UNL     1      33.851  -8.977 -24.221  0.00  0.00    +0.006 C 
ATOM     12  C   UNL     1      33.051  -7.577 -20.277  0.00  0.00    +0.191 C 
ATOM     13  C   UNL     1      31.429 -10.774 -20.492  0.00  0.00    +0.148 A 
ATOM     14  C   UNL     1      31.092 -12.086 -21.083  0.00  0.00    +0.074 C 
ENDROOT
BRANCH   8  16
ATOM     15 CL   UNL     1      30.318  -5.421 -22.417  0.00  0.00    -0.082 Cl
ATOM     16  C   UNL     1      32.559  -6.234 -23.743  0.00  0.00    +0.028 C 
ATOM     17  C   UNL     1      31.450  -5.393 -23.721  0.00  0.00    +0.059 C 
ATOM     18  C   UNL     1      33.455  -6.191 -24.809  0.00  0.00    +0.002 C 
ATOM     19  C   UNL     1      31.235  -4.502 -24.772  0.00  0.00    +0.011 C 
ATOM     20  C   UNL     1      33.239  -5.298 -25.860  0.00  0.00    +0.000 C 
ATOM     21  C   UNL     1      32.129  -4.454 -25.841  0.00  0.00    +0.001 C 
ENDBRANCH   8  16
BRANCH  10  22
ATOM     22  C   UNL     1      34.510 -11.105 -25.510  0.00  0.00    +0.033 C 
ATOM     23  C   UNL     1      35.635 -10.334 -26.210  0.00  0.00    +0.006 C 
ENDBRANCH  10  22
TORSDOF 2
ENDMDL
MODEL 4
REMARK VINA RESULT:      -7.9     12.003     14.840
REMARK  Name = 3307
REMARK  2 active torsions:
REMARK  status: ('A' for Active; 'I' for Inactive)
REMARK    1  A    between atoms: C_8  and  C_16
REMARK    2  A    between atoms: C_10  and  C_22
REMARK                            x       y       z     vdW  Elec       q    Type
REMARK                         _______ _______ _______ _____ _____    ______ ____
ROOT
ATOM      1  S   UNL     1      34.370  -9.233 -24.130  0.00  0.00    -0.074 S 
ATOM      2  N   UNL     1      32.658  -9.765 -22.163  0.00  0.00    -0.274 N 
ATOM      3  N   UNL     1      31.709 -12.698 -22.287  0.00  0.00    -0.262 NA
ATOM      4  N   UNL     1      31.120  -9.634 -20.583  0.00  0.00    -0.131 NA
ATOM      5  N   UNL     1      31.927  -8.527 -20.489  0.00  0.00    -0.133 NA
ATOM      6  C   UNL     1      33.387 -10.279 -23.228  0.00  0.00    +0.097 C 
ATOM      7  C   UNL     1      33.415 -11.595 -23.653  0.00  0.00    +0.040 C 
ATOM      8  C   UNL     1      32.808 -12.736 -22.957  0.00  0.00    +0.079 C 
ATOM      9  C   UNL     1      31.540 -10.350 -21.604  0.00  0.00    +0.172 A 
ATOM     10  C   UNL     1      34.778 -10.482 -25.220  0.00  0.00    +0.009 C 
ATOM     11  C   UNL     1      34.212 -11.683 -24.852  0.00  0.00    +0.006 C 
ATOM     12  C   UNL     1      30.865 -11.516 -22.221  0.00  0.00    +0.191 C 
ATOM     13  C   UNL     1      32.815  -8.600 -21.454  0.00  0.00    +0.148 A 
ATOM     14  C   UNL     1      33.881  -7.594 -21.643  0.00  0.00    +0.074 C 
ENDROOT
BRANCH   8  16
ATOM     15 CL   UNL     1      32.662 -14.381 -25.566  0.00  0.00    -0.082 Cl
ATOM     16  C   UNL     1      33.529 -14.036 -23.003  0.00  0.00    +0.028 C 
ATOM     17  C   UNL     1      33.517 -14.842 -24.138  0.00  0.00    +0.059 C 
ATOM     18  C   UNL     1      34.226 -14.434 -21.864  0.00  0.00    +0.002 C 
ATOM     19  C   UNL     1      34.208 -16.054 -24.136  0.00  0.00    +0.011 C 
ATOM     20  C   UNL     1      34.918 -15.646 -21.863  0.00  0.00    +0.000 C 
ATOM     21  C   UNL     1      34.908 -16.456 -22.999  0.00  0.00    +0.001 C 
ENDBRANCH   8  16
BRANCH  10  22
ATOM     22  C   UNL     1      35.661 -10.191 -26.369  0.00  0.00    +0.033 C 
ATOM     23  C   UNL     1      35.582 -11.264 -27.461  0.00  0.00    +0.006 C 
ENDBRANCH  10  22
TORSDOF 2
ENDMDL
MODEL 5
REMARK VINA RESULT:      -7.9     10.966     14.195
REMARK  Name = 3307
REMARK  2 active torsions:
REMARK  status: ('A' for Active; 'I' for Inactive)
REMARK    1  A    between atoms: C_8  and  C_16
REMARK    2  A    between atoms: C_10  and  C_22
REMARK                            x       y       z     vdW  Elec       q    Type
REMARK                         _______ _______ _______ _____ _____    ______ ____
ROOT
ATOM      1  S   UNL     1      33.048 -14.992 -21.593  0.00  0.00    -0.074 S 
ATOM      2  N   UNL     1      33.855 -15.655 -24.041  0.00  0.00    -0.274 N 
ATOM      3  N   UNL     1      33.554 -13.279 -25.985  0.00  0.00    -0.262 NA
ATOM      4  N   UNL     1      34.358 -16.740 -25.898  0.00  0.00    -0.131 NA
ATOM      5  N   UNL     1      34.749 -17.512 -24.831  0.00  0.00    -0.133 NA
ATOM      6  C   UNL     1      33.397 -14.638 -23.213  0.00  0.00    +0.097 C 
ATOM      7  C   UNL     1      33.191 -13.316 -23.564  0.00  0.00    +0.040 C 
ATOM      8  C   UNL     1      33.576 -12.694 -24.838  0.00  0.00    +0.079 C 
ATOM      9  C   UNL     1      33.795 -15.651 -25.419  0.00  0.00    +0.172 A 
ATOM     10  C   UNL     1      32.477 -13.408 -21.321  0.00  0.00    +0.009 C 
ATOM     11  C   UNL     1      32.612 -12.618 -22.442  0.00  0.00    +0.006 C 
ATOM     12  C   UNL     1      33.041 -14.625 -26.176  0.00  0.00    +0.191 C 
ATOM     13  C   UNL     1      34.414 -16.872 -23.734  0.00  0.00    +0.148 A 
ATOM     14  C   UNL     1      34.713 -17.384 -22.381  0.00  0.00    +0.074 C 
ENDROOT
BRANCH   8  16
ATOM     15 CL   UNL     1      35.331 -11.703 -27.177  0.00  0.00    -0.082 Cl
ATOM     16  C   UNL     1      34.054 -11.287 -24.802  0.00  0.00    +0.028 C 
ATOM     17  C   UNL     1      34.850 -10.757 -25.815  0.00  0.00    +0.059 C 
ATOM     18  C   UNL     1      33.683 -10.501 -23.714  0.00  0.00    +0.002 C 
ATOM     19  C   UNL     1      35.277  -9.431 -25.739  0.00  0.00    +0.011 C 
ATOM     20  C   UNL     1      34.109  -9.174 -23.640  0.00  0.00    +0.000 C 
ATOM     21  C   UNL     1      34.906  -8.640 -24.652  0.00  0.00    +0.001 C 
ENDBRANCH   8  16
BRANCH  10  22
ATOM     22  C   UNL     1      31.945 -13.038 -19.992  0.00  0.00    +0.033 C 
ATOM     23  C   UNL     1      31.570 -11.555 -19.896  0.00  0.00    +0.006 C 
ENDBRANCH  10  22
TORSDOF 2
ENDMDL
MODEL 6
REMARK VINA RESULT:      -7.9     13.730     15.758
REMARK  Name = 3307
REMARK  2 active torsions:
REMARK  status: ('A' for Active; 'I' for Inactive)
REMARK    1  A    between atoms: C_8  and  C_16
REMARK    2  A    between atoms: C_10  and  C_22
REMARK                            x       y       z     vdW  Elec       q    Type
REMARK                         _______ _______ _______ _____ _____    ______ ____
ROOT
ATOM      1  S   UNL     1      31.450  -9.188 -22.033  0.00  0.00    -0.074 S 
ATOM      2  N   UNL     1      33.193  -8.286 -23.831  0.00  0.00    -0.274 N 
ATOM      3  N   UNL     1      34.937 -10.582 -24.929  0.00  0.00    -0.262 NA
ATOM      4  N   UNL     1      34.590  -7.045 -25.008  0.00  0.00    -0.131 NA
ATOM      5  N   UNL     1      33.501  -6.274 -24.684  0.00  0.00    -0.133 NA
ATOM      6  C   UNL     1      32.666  -9.402 -23.195  0.00  0.00    +0.097 C 
ATOM      7  C   UNL     1      33.023 -10.721 -23.408  0.00  0.00    +0.040 C 
ATOM      8  C   UNL     1      33.911 -11.211 -24.471  0.00  0.00    +0.079 C 
ATOM      9  C   UNL     1      34.416  -8.232 -24.467  0.00  0.00    +0.172 A 
ATOM     10  C   UNL     1      31.440 -10.855 -21.668  0.00  0.00    +0.009 C 
ATOM     11  C   UNL     1      32.314 -11.557 -22.470  0.00  0.00    +0.006 C 
ATOM     12  C   UNL     1      35.409  -9.327 -24.368  0.00  0.00    +0.191 C 
ATOM     13  C   UNL     1      32.694  -7.012 -23.957  0.00  0.00    +0.148 A 
ATOM     14  C   UNL     1      31.392  -6.526 -23.455  0.00  0.00    +0.074 C 
ENDROOT
BRANCH   8  16
ATOM     15 CL   UNL     1      34.317 -13.753 -22.766  0.00  0.00    -0.082 Cl
ATOM     16  C   UNL     1      33.588 -12.524 -25.090  0.00  0.00    +0.028 C 
ATOM     17  C   UNL     1      33.742 -13.720 -24.394  0.00  0.00    +0.059 C 
ATOM     18  C   UNL     1      33.124 -12.528 -26.403  0.00  0.00    +0.002 C 
ATOM     19  C   UNL     1      33.428 -14.929 -25.015  0.00  0.00    +0.011 C 
ATOM     20  C   UNL     1      32.809 -13.738 -27.024  0.00  0.00    +0.000 C 
ATOM     21  C   UNL     1      32.962 -14.938 -26.329  0.00  0.00    +0.001 C 
ENDBRANCH   8  16
BRANCH  10  22
ATOM     22  C   UNL     1      30.541 -11.369 -20.614  0.00  0.00    +0.033 C 
ATOM     23  C   UNL     1      30.864 -10.796 -19.229  0.00  0.00    +0.006 C 
ENDBRANCH  10  22
TORSDOF 2
ENDMDL
MODEL 7
REMARK VINA RESULT:      -7.5      6.910      9.490
REMARK  Name = 3307
REMARK  2 active torsions:
REMARK  status: ('A' for Active; 'I' for Inactive)
REMARK    1  A    between atoms: C_8  and  C_16
REMARK    2  A    between atoms: C_10  and  C_22
REMARK                            x       y       z     vdW  Elec       q    Type
REMARK                         _______ _______ _______ _____ _____    ______ ____
ROOT
ATOM      1  S   UNL     1      32.967 -14.478 -22.260  0.00  0.00    -0.074 S 
ATOM      2  N   UNL     1      34.066 -15.960 -24.179  0.00  0.00    -0.274 N 
ATOM      3  N   UNL     1      35.502 -18.419 -22.990  0.00  0.00    -0.262 NA
ATOM      4  N   UNL     1      35.006 -16.672 -26.046  0.00  0.00    -0.131 NA
ATOM      5  N   UNL     1      34.029 -15.765 -26.377  0.00  0.00    -0.133 NA
ATOM      6  C   UNL     1      33.795 -15.847 -22.821  0.00  0.00    +0.097 C 
ATOM      7  C   UNL     1      34.126 -16.756 -21.833  0.00  0.00    +0.040 C 
ATOM      8  C   UNL     1      34.681 -18.098 -22.050  0.00  0.00    +0.079 C 
ATOM      9  C   UNL     1      35.046 -16.758 -24.734  0.00  0.00    +0.172 A 
ATOM     10  C   UNL     1      33.131 -14.985 -20.639  0.00  0.00    +0.009 C 
ATOM     11  C   UNL     1      33.758 -16.209 -20.550  0.00  0.00    +0.006 C 
ATOM     12  C   UNL     1      36.067 -17.446 -23.910  0.00  0.00    +0.191 C 
ATOM     13  C   UNL     1      33.502 -15.324 -25.257  0.00  0.00    +0.148 A 
ATOM     14  C   UNL     1      32.386 -14.356 -25.220  0.00  0.00    +0.074 C 
ENDROOT
BRANCH   8  16
ATOM     15 CL   UNL     1      36.863 -19.735 -20.603  0.00  0.00    -0.082 Cl
ATOM     16  C   UNL     1      34.245 -19.183 -21.132  0.00  0.00    +0.028 C 
ATOM     17  C   UNL     1      35.161 -19.971 -20.439  0.00  0.00    +0.059 C 
ATOM     18  C   UNL     1      32.877 -19.397 -20.982  0.00  0.00    +0.002 C 
ATOM     19  C   UNL     1      34.705 -20.978 -19.589  0.00  0.00    +0.011 C 
ATOM     20  C   UNL     1      32.422 -20.405 -20.131  0.00  0.00    +0.000 C 
ATOM     21  C   UNL     1      33.336 -21.195 -19.434  0.00  0.00    +0.001 C 
ENDBRANCH   8  16
BRANCH  10  22
ATOM     22  C   UNL     1      32.602 -14.138 -19.549  0.00  0.00    +0.033 C 
ATOM     23  C   UNL     1      32.055 -12.799 -20.054  0.00  0.00    +0.006 C 
ENDBRANCH  10  22
TORSDOF 2
ENDMDL
MODEL 8
REMARK VINA RESULT:      -7.1     11.490     14.267
REMARK  Name = 3307
REMARK  2 active torsions:
REMARK  status: ('A' for Active; 'I' for Inactive)
REMARK    1  A    between atoms: C_8  and  C_16
REMARK    2  A    between atoms: C_10  and  C_22
REMARK                            x       y       z     vdW  Elec       q    Type
REMARK                         _______ _______ _______ _____ _____    ______ ____
ROOT
ATOM      1  S   UNL     1      34.017  -9.941 -24.666  0.00  0.00    -0.074 S 
ATOM      2  N   UNL     1      32.697  -9.991 -22.355  0.00  0.00    -0.274 N 
ATOM      3  N   UNL     1      31.821 -12.862 -21.645  0.00  0.00    -0.262 NA
ATOM      4  N   UNL     1      31.461  -9.485 -20.597  0.00  0.00    -0.131 NA
ATOM      5  N   UNL     1      32.241  -8.396 -20.900  0.00  0.00    -0.133 NA
ATOM      6  C   UNL     1      33.239 -10.742 -23.391  0.00  0.00    +0.097 C 
ATOM      7  C   UNL     1      33.227 -12.120 -23.507  0.00  0.00    +0.040 C 
ATOM      8  C   UNL     1      32.785 -13.066 -22.475  0.00  0.00    +0.079 C 
ATOM      9  C   UNL     1      31.713 -10.419 -21.489  0.00  0.00    +0.172 A 
ATOM     10  C   UNL     1      34.259 -11.409 -25.502  0.00  0.00    +0.009 C 
ATOM     11  C   UNL     1      33.801 -12.488 -24.778  0.00  0.00    +0.006 C 
ATOM     12  C   UNL     1      30.971 -11.685 -21.696  0.00  0.00    +0.191 C 
ATOM     13  C   UNL     1      32.946  -8.697 -21.966  0.00  0.00    +0.148 A 
ATOM     14  C   UNL     1      33.933  -7.775 -22.565  0.00  0.00    +0.074 C 
ENDROOT
BRANCH   8  16
ATOM     15 CL   UNL     1      32.452 -14.689 -19.869  0.00  0.00    -0.082 Cl
ATOM     16  C   UNL     1      33.522 -14.352 -22.356  0.00  0.00    +0.028 C 
ATOM     17  C   UNL     1      33.429 -15.148 -21.216  0.00  0.00    +0.059 C 
ATOM     18  C   UNL     1      34.320 -14.746 -23.427  0.00  0.00    +0.002 C 
ATOM     19  C   UNL     1      34.140 -16.346 -21.148  0.00  0.00    +0.011 C 
ATOM     20  C   UNL     1      35.030 -15.946 -23.358  0.00  0.00    +0.000 C 
ATOM     21  C   UNL     1      34.939 -16.745 -22.219  0.00  0.00    +0.001 C 
ENDBRANCH   8  16
BRANCH  10  22
ATOM     22  C   UNL     1      34.916 -11.398 -26.826  0.00  0.00    +0.033 C 
ATOM     23  C   UNL     1      36.041 -10.362 -26.920  0.00  0.00    +0.006 C 
ENDBRANCH  10  22
TORSDOF 2
ENDMDL
MODEL 9
REMARK VINA RESULT:      -7.1      2.394      5.534
REMARK  Name = 3307
REMARK  2 active torsions:
REMARK  status: ('A' for Active; 'I' for Inactive)
REMARK    1  A    between atoms: C_8  and  C_16
REMARK    2  A    between atoms: C_10  and  C_22
REMARK                            x       y       z     vdW  Elec       q    Type
REMARK                         _______ _______ _______ _____ _____    ______ ____
ROOT
ATOM      1  S   UNL     1      33.374 -23.883 -12.383  0.00  0.00    -0.074 S 
ATOM      2  N   UNL     1      35.906 -24.596 -12.792  0.00  0.00    -0.274 N 
ATOM      3  N   UNL     1      36.502 -24.876 -15.806  0.00  0.00    -0.262 NA
ATOM      4  N   UNL     1      37.940 -25.435 -12.604  0.00  0.00    -0.131 NA
ATOM      5  N   UNL     1      37.581 -24.906 -11.388  0.00  0.00    -0.133 NA
ATOM      6  C   UNL     1      34.704 -24.218 -13.378  0.00  0.00    +0.097 C 
ATOM      7  C   UNL     1      34.455 -24.069 -14.731  0.00  0.00    +0.040 C 
ATOM      8  C   UNL     1      35.460 -24.119 -15.801  0.00  0.00    +0.079 C 
ATOM      9  C   UNL     1      36.925 -25.277 -13.426  0.00  0.00    +0.172 A 
ATOM     10  C   UNL     1      32.361 -23.649 -13.736  0.00  0.00    +0.009 C 
ATOM     11  C   UNL     1      33.057 -23.769 -14.919  0.00  0.00    +0.006 C 
ATOM     12  C   UNL     1      36.763 -25.866 -14.776  0.00  0.00    +0.191 C 
ATOM     13  C   UNL     1      36.357 -24.441 -11.505  0.00  0.00    +0.148 A 
ATOM     14  C   UNL     1      35.648 -23.761 -10.401  0.00  0.00    +0.074 C 
ENDROOT
BRANCH   8  16
ATOM     15 CL   UNL     1      37.704 -22.087 -16.407  0.00  0.00    -0.082 Cl
ATOM     16  C   UNL     1      35.279 -23.206 -16.961  0.00  0.00    +0.028 C 
ATOM     17  C   UNL     1      36.240 -22.259 -17.306  0.00  0.00    +0.059 C 
ATOM     18  C   UNL     1      34.106 -23.321 -17.703  0.00  0.00    +0.002 C 
ATOM     19  C   UNL     1      36.028 -21.423 -18.401  0.00  0.00    +0.011 C 
ATOM     20  C   UNL     1      33.894 -22.484 -18.800  0.00  0.00    +0.000 C 
ATOM     21  C   UNL     1      34.855 -21.535 -19.148  0.00  0.00    +0.001 C 
ENDBRANCH   8  16
BRANCH  10  22
ATOM     22  C   UNL     1      30.931 -23.334 -13.535  0.00  0.00    +0.033 C 
ATOM     23  C   UNL     1      30.250 -22.834 -14.813  0.00  0.00    +0.006 C 
ENDBRANCH  10  22
TORSDOF 2
ENDMDL
