MODEL 1
REMARK VINA RESULT:      -9.9      0.000      0.000
REMARK  Name = 42627562
REMARK  3 active torsions:
REMARK  status: ('A' for Active; 'I' for Inactive)
REMARK    1  A    between atoms: C_5  and  N_17
REMARK    2  A    between atoms: C_5  and  C_21
REMARK    3  A    between atoms: C_21  and  C_23
REMARK                            x       y       z     vdW  Elec       q    Type
REMARK                         _______ _______ _______ _____ _____    ______ ____
ROOT
ATOM      1  N   UNL     1      33.140 -12.249 -23.252  0.00  0.00    -0.296 N 
ATOM      2  N   UNL     1      33.320 -13.939 -24.920  0.00  0.00    -0.233 NA
ATOM      3  N   UNL     1      34.535 -16.536 -22.074  0.00  0.00    -0.300 N 
ATOM      4  N   UNL     1      34.039 -16.209 -24.410  0.00  0.00    -0.233 NA
ATOM      5  C   UNL     1      32.486  -9.493 -22.555  0.00  0.00    -0.042 C 
ATOM      6  C   UNL     1      33.578  -9.842 -23.575  0.00  0.00    +0.002 C 
ATOM      7  C   UNL     1      32.292 -10.655 -21.573  0.00  0.00    +0.002 C 
ATOM      8  C   UNL     1      33.361 -11.197 -24.254  0.00  0.00    +0.090 C 
ATOM      9  C   UNL     1      32.083 -12.005 -22.265  0.00  0.00    +0.090 C 
ATOM     10  C   UNL     1      33.440 -13.564 -23.626  0.00  0.00    +0.116 C 
ATOM     11  C   UNL     1      33.863 -14.496 -22.677  0.00  0.00    +0.131 C 
ATOM     12  C   UNL     1      34.138 -15.776 -23.141  0.00  0.00    +0.117 C 
ATOM     13  C   UNL     1      34.107 -14.500 -21.280  0.00  0.00    +0.004 C 
ATOM     14  C   UNL     1      33.622 -15.221 -25.228  0.00  0.00    +0.252 C 
ATOM     15  C   UNL     1      34.520 -15.769 -20.936  0.00  0.00    +0.059 C 
ATOM     16  H   UNL     1      34.791 -17.485 -22.115  0.00  0.00    +0.153 HD
ENDROOT
BRANCH   5  17
ATOM     17  N   UNL     1      31.199  -9.256 -23.285  0.00  0.00    +0.383 N 
ATOM     18  H   UNL     1      30.460  -9.818 -22.862  0.00  0.00    -0.089 HD
ATOM     19  H   UNL     1      31.309  -9.522 -24.265  0.00  0.00    -0.089 HD
ATOM     20  H   UNL     1      30.951  -8.269 -23.227  0.00  0.00    -0.089 HD
ENDBRANCH   5  17
BRANCH   5  21
ATOM     21  C   UNL     1      32.822  -8.196 -21.813  0.00  0.00    +0.006 C 
BRANCH  21  23
ATOM     22 CL   UNL     1      30.895  -3.364 -24.831  0.00  0.00    -0.082 Cl
ATOM     23  C   UNL     1      32.340  -6.989 -22.569  0.00  0.00    -0.024 C 
ATOM     24  C   UNL     1      31.335  -6.186 -22.029  0.00  0.00    -0.003 C 
ATOM     25  C   UNL     1      32.898  -6.673 -23.807  0.00  0.00    -0.003 C 
ATOM     26  C   UNL     1      30.888  -5.066 -22.730  0.00  0.00    +0.011 C 
ATOM     27  C   UNL     1      32.451  -5.552 -24.507  0.00  0.00    +0.011 C 
ATOM     28  C   UNL     1      31.446  -4.749 -23.969  0.00  0.00    +0.058 C 
ENDBRANCH  21  23
ENDBRANCH   5  21
TORSDOF 3
ENDMDL
MODEL 2
REMARK VINA RESULT:      -9.8      1.456      1.939
REMARK  Name = 42627562
REMARK  3 active torsions:
REMARK  status: ('A' for Active; 'I' for Inactive)
REMARK    1  A    between atoms: C_5  and  N_17
REMARK    2  A    between atoms: C_5  and  C_21
REMARK    3  A    between atoms: C_21  and  C_23
REMARK                            x       y       z     vdW  Elec       q    Type
REMARK                         _______ _______ _______ _____ _____    ______ ____
ROOT
ATOM      1  N   UNL     1      33.164 -13.786 -23.034  0.00  0.00    -0.296 N 
ATOM      2  N   UNL     1      33.579 -15.368 -24.766  0.00  0.00    -0.233 NA
ATOM      3  N   UNL     1      35.427 -17.743 -22.071  0.00  0.00    -0.300 N 
ATOM      4  N   UNL     1      34.752 -17.464 -24.368  0.00  0.00    -0.233 NA
ATOM      5  C   UNL     1      32.025 -11.229 -22.213  0.00  0.00    -0.042 C 
ATOM      6  C   UNL     1      33.107 -11.333 -23.296  0.00  0.00    +0.002 C 
ATOM      7  C   UNL     1      32.113 -12.430 -21.263  0.00  0.00    +0.002 C 
ATOM      8  C   UNL     1      33.121 -12.687 -24.009  0.00  0.00    +0.090 C 
ATOM      9  C   UNL     1      32.135 -13.778 -21.989  0.00  0.00    +0.090 C 
ATOM     10  C   UNL     1      33.694 -15.007 -23.466  0.00  0.00    +0.116 C 
ATOM     11  C   UNL     1      34.340 -15.860 -22.572  0.00  0.00    +0.131 C 
ATOM     12  C   UNL     1      34.834 -17.051 -23.091  0.00  0.00    +0.117 C 
ATOM     13  C   UNL     1      34.655 -15.850 -21.189  0.00  0.00    +0.004 C 
ATOM     14  C   UNL     1      34.107 -16.558 -25.131  0.00  0.00    +0.252 C 
ATOM     15  C   UNL     1      35.325 -17.022 -20.908  0.00  0.00    +0.059 C 
ATOM     16  H   UNL     1      35.861 -18.623 -22.156  0.00  0.00    +0.153 HD
ENDROOT
BRANCH   5  17
ATOM     17  N   UNL     1      30.679 -11.232 -22.872  0.00  0.00    +0.383 N 
ATOM     18  H   UNL     1      29.972 -11.534 -22.201  0.00  0.00    -0.089 HD
ATOM     19  H   UNL     1      30.690 -11.873 -23.666  0.00  0.00    -0.089 HD
ATOM     20  H   UNL     1      30.458 -10.291 -23.199  0.00  0.00    -0.089 HD
ENDBRANCH   5  17
BRANCH   5  21
ATOM     21  C   UNL     1      32.141  -9.910 -21.445  0.00  0.00    +0.006 C 
BRANCH  21  23
ATOM     22 CL   UNL     1      32.711  -5.229 -25.178  0.00  0.00    -0.082 Cl
ATOM     23  C   UNL     1      32.283  -8.740 -22.378  0.00  0.00    -0.024 C 
ATOM     24  C   UNL     1      33.532  -8.148 -22.568  0.00  0.00    -0.003 C 
ATOM     25  C   UNL     1      31.167  -8.247 -23.052  0.00  0.00    -0.003 C 
ATOM     26  C   UNL     1      33.664  -7.062 -23.432  0.00  0.00    +0.011 C 
ATOM     27  C   UNL     1      31.299  -7.161 -23.918  0.00  0.00    +0.011 C 
ATOM     28  C   UNL     1      32.547  -6.568 -24.108  0.00  0.00    +0.058 C 
ENDBRANCH  21  23
ENDBRANCH   5  21
TORSDOF 3
ENDMDL
MODEL 3
REMARK VINA RESULT:      -9.6      5.070      9.796
REMARK  Name = 42627562
REMARK  3 active torsions:
REMARK  status: ('A' for Active; 'I' for Inactive)
REMARK    1  A    between atoms: C_5  and  N_17
REMARK    2  A    between atoms: C_5  and  C_21
REMARK    3  A    between atoms: C_21  and  C_23
REMARK                            x       y       z     vdW  Elec       q    Type
REMARK                         _______ _______ _______ _____ _____    ______ ____
ROOT
ATOM      1  N   UNL     1      33.865 -14.403 -23.290  0.00  0.00    -0.296 N 
ATOM      2  N   UNL     1      34.196 -12.281 -24.319  0.00  0.00    -0.233 NA
ATOM      3  N   UNL     1      31.480 -10.694 -21.784  0.00  0.00    -0.300 N 
ATOM      4  N   UNL     1      33.001 -10.282 -23.608  0.00  0.00    -0.233 NA
ATOM      5  C   UNL     1      34.540 -17.237 -23.146  0.00  0.00    -0.042 C 
ATOM      6  C   UNL     1      33.975 -16.594 -24.420  0.00  0.00    +0.002 C 
ATOM      7  C   UNL     1      34.107 -16.434 -21.914  0.00  0.00    +0.002 C 
ATOM      8  C   UNL     1      34.268 -15.095 -24.522  0.00  0.00    +0.090 C 
ATOM      9  C   UNL     1      34.399 -14.936 -22.032  0.00  0.00    +0.090 C 
ATOM     10  C   UNL     1      33.572 -13.038 -23.387  0.00  0.00    +0.116 C 
ATOM     11  C   UNL     1      32.641 -12.446 -22.533  0.00  0.00    +0.131 C 
ATOM     12  C   UNL     1      32.415 -11.086 -22.704  0.00  0.00    +0.117 C 
ATOM     13  C   UNL     1      31.806 -12.874 -21.470  0.00  0.00    +0.004 C 
ATOM     14  C   UNL     1      33.877 -10.968 -24.371  0.00  0.00    +0.252 C 
ATOM     15  C   UNL     1      31.102 -11.774 -21.027  0.00  0.00    +0.059 C 
ATOM     16  H   UNL     1      31.132  -9.779 -21.681  0.00  0.00    +0.153 HD
ENDROOT
BRANCH   5  17
ATOM     17  N   UNL     1      36.037 -17.232 -23.225  0.00  0.00    +0.383 N 
ATOM     18  H   UNL     1      36.404 -16.453 -22.678  0.00  0.00    -0.089 HD
ATOM     19  H   UNL     1      36.326 -17.130 -24.199  0.00  0.00    -0.089 HD
ATOM     20  H   UNL     1      36.400 -18.110 -22.853  0.00  0.00    -0.089 HD
ENDBRANCH   5  17
BRANCH   5  21
ATOM     21  C   UNL     1      34.106 -18.700 -23.030  0.00  0.00    +0.006 C 
BRANCH  21  23
ATOM     22 CL   UNL     1      36.670 -21.388 -18.301  0.00  0.00    -0.082 Cl
ATOM     23  C   UNL     1      34.746 -19.373 -21.848  0.00  0.00    -0.024 C 
ATOM     24  C   UNL     1      36.109 -19.202 -21.604  0.00  0.00    -0.003 C 
ATOM     25  C   UNL     1      33.978 -20.167 -20.997  0.00  0.00    -0.003 C 
ATOM     26  C   UNL     1      36.703 -19.826 -20.508  0.00  0.00    +0.011 C 
ATOM     27  C   UNL     1      34.573 -20.791 -19.900  0.00  0.00    +0.011 C 
ATOM     28  C   UNL     1      35.936 -20.621 -19.656  0.00  0.00    +0.058 C 
ENDBRANCH  21  23
ENDBRANCH   5  21
TORSDOF 3
ENDMDL
MODEL 4
REMARK VINA RESULT:      -9.0     13.369     15.534
REMARK  Name = 42627562
REMARK  3 active torsions:
REMARK  status: ('A' for Active; 'I' for Inactive)
REMARK    1  A    between atoms: C_5  and  N_17
REMARK    2  A    between atoms: C_5  and  C_21
REMARK    3  A    between atoms: C_21  and  C_23
REMARK                            x       y       z     vdW  Elec       q    Type
REMARK                         _______ _______ _______ _____ _____    ______ ____
ROOT
ATOM      1  N   UNL     1      33.579 -23.561 -14.855  0.00  0.00    -0.296 N 
ATOM      2  N   UNL     1      35.826 -23.422 -14.079  0.00  0.00    -0.233 NA
ATOM      3  N   UNL     1      36.926 -22.002 -17.698  0.00  0.00    -0.300 N 
ATOM      4  N   UNL     1      37.648 -22.622 -15.483  0.00  0.00    -0.233 NA
ATOM      5  C   UNL     1      30.792 -24.232 -14.317  0.00  0.00    -0.042 C 
ATOM      6  C   UNL     1      31.921 -25.264 -14.193  0.00  0.00    +0.002 C 
ATOM      7  C   UNL     1      31.194 -23.127 -15.302  0.00  0.00    +0.002 C 
ATOM      8  C   UNL     1      33.285 -24.636 -13.898  0.00  0.00    +0.090 C 
ATOM      9  C   UNL     1      32.563 -22.513 -15.000  0.00  0.00    +0.090 C 
ATOM     10  C   UNL     1      34.926 -23.247 -15.074  0.00  0.00    +0.116 C 
ATOM     11  C   UNL     1      35.352 -22.754 -16.307  0.00  0.00    +0.131 C 
ATOM     12  C   UNL     1      36.706 -22.470 -16.430  0.00  0.00    +0.117 C 
ATOM     13  C   UNL     1      34.748 -22.441 -17.552  0.00  0.00    +0.004 C 
ATOM     14  C   UNL     1      37.114 -23.102 -14.341  0.00  0.00    +0.252 C 
ATOM     15  C   UNL     1      35.741 -21.980 -18.389  0.00  0.00    +0.059 C 
ATOM     16  H   UNL     1      37.799 -21.724 -18.059  0.00  0.00    +0.153 HD
ENDROOT
BRANCH   5  17
ATOM     17  N   UNL     1      30.550 -23.615 -12.972  0.00  0.00    +0.383 N 
ATOM     18  H   UNL     1      30.601 -22.599 -13.050  0.00  0.00    -0.089 HD
ATOM     19  H   UNL     1      31.259 -23.942 -12.315  0.00  0.00    -0.089 HD
ATOM     20  H   UNL     1      29.626 -23.885 -12.636  0.00  0.00    -0.089 HD
ENDBRANCH   5  17
BRANCH   5  21
ATOM     21  C   UNL     1      29.481 -24.899 -14.743  0.00  0.00    +0.006 C 
BRANCH  21  23
ATOM     22 CL   UNL     1      26.070 -21.177 -18.011  0.00  0.00    -0.082 Cl
ATOM     23  C   UNL     1      28.629 -23.968 -15.559  0.00  0.00    -0.024 C 
ATOM     24  C   UNL     1      28.499 -24.168 -16.934  0.00  0.00    -0.003 C 
ATOM     25  C   UNL     1      27.968 -22.906 -14.942  0.00  0.00    -0.003 C 
ATOM     26  C   UNL     1      27.709 -23.304 -17.691  0.00  0.00    +0.011 C 
ATOM     27  C   UNL     1      27.178 -22.042 -15.700  0.00  0.00    +0.011 C 
ATOM     28  C   UNL     1      27.048 -22.240 -17.075  0.00  0.00    +0.058 C 
ENDBRANCH  21  23
ENDBRANCH   5  21
TORSDOF 3
ENDMDL
MODEL 5
REMARK VINA RESULT:      -8.8      5.080      9.973
REMARK  Name = 42627562
REMARK  3 active torsions:
REMARK  status: ('A' for Active; 'I' for Inactive)
REMARK    1  A    between atoms: C_5  and  N_17
REMARK    2  A    between atoms: C_5  and  C_21
REMARK    3  A    between atoms: C_21  and  C_23
REMARK                            x       y       z     vdW  Elec       q    Type
REMARK                         _______ _______ _______ _____ _____    ______ ____
ROOT
ATOM      1  N   UNL     1      33.247 -14.040 -21.996  0.00  0.00    -0.296 N 
ATOM      2  N   UNL     1      31.740 -12.459 -21.044  0.00  0.00    -0.233 NA
ATOM      3  N   UNL     1      32.820  -9.805 -23.892  0.00  0.00    -0.300 N 
ATOM      4  N   UNL     1      31.443 -10.222 -21.957  0.00  0.00    -0.233 NA
ATOM      5  C   UNL     1      34.427 -16.707 -21.940  0.00  0.00    -0.042 C 
ATOM      6  C   UNL     1      34.541 -15.736 -20.757  0.00  0.00    +0.002 C 
ATOM      7  C   UNL     1      34.228 -15.925 -23.245  0.00  0.00    +0.002 C 
ATOM      8  C   UNL     1      33.402 -14.715 -20.700  0.00  0.00    +0.090 C 
ATOM      9  C   UNL     1      33.092 -14.902 -23.172  0.00  0.00    +0.090 C 
ATOM     10  C   UNL     1      32.655 -12.771 -21.992  0.00  0.00    +0.116 C 
ATOM     11  C   UNL     1      32.996 -11.822 -22.955  0.00  0.00    +0.131 C 
ATOM     12  C   UNL     1      32.357 -10.592 -22.871  0.00  0.00    +0.117 C 
ATOM     13  C   UNL     1      33.871 -11.759 -24.069  0.00  0.00    +0.004 C 
ATOM     14  C   UNL     1      31.199 -11.221 -21.085  0.00  0.00    +0.252 C 
ATOM     15  C   UNL     1      33.742 -10.505 -24.627  0.00  0.00    +0.059 C 
ATOM     16  H   UNL     1      32.535  -8.879 -24.071  0.00  0.00    +0.153 HD
ENDROOT
BRANCH   5  17
ATOM     17  N   UNL     1      33.240 -17.596 -21.724  0.00  0.00    +0.383 N 
ATOM     18  H   UNL     1      33.328 -18.069 -20.824  0.00  0.00    -0.089 HD
ATOM     19  H   UNL     1      33.196 -18.292 -22.470  0.00  0.00    -0.089 HD
ATOM     20  H   UNL     1      32.389 -17.036 -21.732  0.00  0.00    -0.089 HD
ENDBRANCH   5  17
BRANCH   5  21
ATOM     21  C   UNL     1      35.655 -17.616 -22.025  0.00  0.00    +0.006 C 
BRANCH  21  23
ATOM     22 CL   UNL     1      34.962 -22.576 -18.694  0.00  0.00    -0.082 Cl
ATOM     23  C   UNL     1      35.481 -18.856 -21.193  0.00  0.00    -0.024 C 
ATOM     24  C   UNL     1      36.593 -19.467 -20.613  0.00  0.00    -0.003 C 
ATOM     25  C   UNL     1      34.209 -19.395 -21.001  0.00  0.00    -0.003 C 
ATOM     26  C   UNL     1      36.432 -20.618 -19.841  0.00  0.00    +0.011 C 
ATOM     27  C   UNL     1      34.049 -20.545 -20.229  0.00  0.00    +0.011 C 
ATOM     28  C   UNL     1      35.160 -21.157 -19.650  0.00  0.00    +0.058 C 
ENDBRANCH  21  23
ENDBRANCH   5  21
TORSDOF 3
ENDMDL
MODEL 6
REMARK VINA RESULT:      -8.7      3.874      8.636
REMARK  Name = 42627562
REMARK  3 active torsions:
REMARK  status: ('A' for Active; 'I' for Inactive)
REMARK    1  A    between atoms: C_5  and  N_17
REMARK    2  A    between atoms: C_5  and  C_21
REMARK    3  A    between atoms: C_21  and  C_23
REMARK                            x       y       z     vdW  Elec       q    Type
REMARK                         _______ _______ _______ _____ _____    ______ ____
ROOT
ATOM      1  N   UNL     1      32.604 -11.038 -22.793  0.00  0.00    -0.296 N 
ATOM      2  N   UNL     1      30.878  -9.412 -23.009  0.00  0.00    -0.233 NA
ATOM      3  N   UNL     1      33.662  -6.684 -24.069  0.00  0.00    -0.300 N 
ATOM      4  N   UNL     1      31.324  -7.111 -23.669  0.00  0.00    -0.233 NA
ATOM      5  C   UNL     1      33.384 -13.781 -22.177  0.00  0.00    -0.042 C 
ATOM      6  C   UNL     1      32.656 -12.889 -21.162  0.00  0.00    +0.002 C 
ATOM      7  C   UNL     1      34.156 -12.915 -23.180  0.00  0.00    +0.002 C 
ATOM      8  C   UNL     1      31.809 -11.795 -21.817  0.00  0.00    +0.090 C 
ATOM      9  C   UNL     1      33.299 -11.819 -23.822  0.00  0.00    +0.090 C 
ATOM     10  C   UNL     1      32.190  -9.733 -23.085  0.00  0.00    +0.116 C 
ATOM     11  C   UNL     1      33.116  -8.758 -23.456  0.00  0.00    +0.131 C 
ATOM     12  C   UNL     1      32.612  -7.492 -23.728  0.00  0.00    +0.117 C 
ATOM     13  C   UNL     1      34.520  -8.694 -23.646  0.00  0.00    +0.004 C 
ATOM     14  C   UNL     1      30.531  -8.139 -23.302  0.00  0.00    +0.252 C 
ATOM     15  C   UNL     1      34.828  -7.404 -24.023  0.00  0.00    +0.059 C 
ATOM     16  H   UNL     1      33.592  -5.732 -24.311  0.00  0.00    +0.153 HD
ENDROOT
BRANCH   5  17
ATOM     17  N   UNL     1      32.370 -14.595 -22.921  0.00  0.00    +0.383 N 
ATOM     18  H   UNL     1      31.613 -14.857 -22.289  0.00  0.00    -0.089 HD
ATOM     19  H   UNL     1      32.813 -15.438 -23.288  0.00  0.00    -0.089 HD
ATOM     20  H   UNL     1      31.993 -14.046 -23.694  0.00  0.00    -0.089 HD
ENDBRANCH   5  17
BRANCH   5  21
ATOM     21  C   UNL     1      34.317 -14.768 -21.471  0.00  0.00    +0.006 C 
BRANCH  21  23
ATOM     22 CL   UNL     1      34.974 -19.833 -24.646  0.00  0.00    -0.082 Cl
ATOM     23  C   UNL     1      34.482 -16.034 -22.265  0.00  0.00    -0.024 C 
ATOM     24  C   UNL     1      34.291 -17.272 -21.650  0.00  0.00    -0.003 C 
ATOM     25  C   UNL     1      34.824 -15.970 -23.616  0.00  0.00    -0.003 C 
ATOM     26  C   UNL     1      34.445 -18.446 -22.386  0.00  0.00    +0.011 C 
ATOM     27  C   UNL     1      34.977 -17.145 -24.352  0.00  0.00    +0.011 C 
ATOM     28  C   UNL     1      34.788 -18.383 -23.738  0.00  0.00    +0.058 C 
ENDBRANCH  21  23
ENDBRANCH   5  21
TORSDOF 3
ENDMDL
MODEL 7
REMARK VINA RESULT:      -8.4      1.566      2.801
REMARK  Name = 42627562
REMARK  3 active torsions:
REMARK  status: ('A' for Active; 'I' for Inactive)
REMARK    1  A    between atoms: C_5  and  N_17
REMARK    2  A    between atoms: C_5  and  C_21
REMARK    3  A    between atoms: C_21  and  C_23
REMARK                            x       y       z     vdW  Elec       q    Type
REMARK                         _______ _______ _______ _____ _____    ______ ____
ROOT
ATOM      1  N   UNL     1      32.722 -11.776 -23.072  0.00  0.00    -0.296 N 
ATOM      2  N   UNL     1      33.181 -13.900 -22.097  0.00  0.00    -0.233 NA
ATOM      3  N   UNL     1      33.591 -15.447 -25.807  0.00  0.00    -0.300 N 
ATOM      4  N   UNL     1      33.647 -15.880 -23.436  0.00  0.00    -0.233 NA
ATOM      5  C   UNL     1      32.093  -8.950 -22.711  0.00  0.00    -0.042 C 
ATOM      6  C   UNL     1      31.192 -10.066 -22.165  0.00  0.00    +0.002 C 
ATOM      7  C   UNL     1      32.898  -9.464 -23.911  0.00  0.00    +0.002 C 
ATOM      8  C   UNL     1      31.943 -11.372 -21.894  0.00  0.00    +0.090 C 
ATOM      9  C   UNL     1      33.638 -10.775 -23.629  0.00  0.00    +0.090 C 
ATOM     10  C   UNL     1      33.029 -13.135 -23.203  0.00  0.00    +0.116 C 
ATOM     11  C   UNL     1      33.180 -13.713 -24.464  0.00  0.00    +0.131 C 
ATOM     12  C   UNL     1      33.484 -15.068 -24.496  0.00  0.00    +0.117 C 
ATOM     13  C   UNL     1      33.104 -13.274 -25.811  0.00  0.00    +0.004 C 
ATOM     14  C   UNL     1      33.477 -15.206 -22.280  0.00  0.00    +0.252 C 
ATOM     15  C   UNL     1      33.362 -14.363 -26.616  0.00  0.00    +0.059 C 
ATOM     16  H   UNL     1      33.800 -16.356 -26.122  0.00  0.00    +0.153 HD
ENDROOT
BRANCH   5  17
ATOM     17  N   UNL     1      33.046  -8.527 -21.635  0.00  0.00    +0.383 N 
ATOM     18  H   UNL     1      33.265  -7.537 -21.745  0.00  0.00    -0.089 HD
ATOM     19  H   UNL     1      33.904  -9.075 -21.705  0.00  0.00    -0.089 HD
ATOM     20  H   UNL     1      32.619  -8.681 -20.722  0.00  0.00    -0.089 HD
ENDBRANCH   5  17
BRANCH   5  21
ATOM     21  C   UNL     1      31.271  -7.715 -23.089  0.00  0.00    +0.006 C 
BRANCH  21  23
ATOM     22 CL   UNL     1      34.220  -4.205 -26.981  0.00  0.00    -0.082 Cl
ATOM     23  C   UNL     1      32.009  -6.839 -24.062  0.00  0.00    -0.024 C 
ATOM     24  C   UNL     1      31.318  -5.864 -24.783  0.00  0.00    -0.003 C 
ATOM     25  C   UNL     1      33.382  -6.999 -24.243  0.00  0.00    -0.003 C 
ATOM     26  C   UNL     1      32.002  -5.052 -25.687  0.00  0.00    +0.011 C 
ATOM     27  C   UNL     1      34.066  -6.185 -25.145  0.00  0.00    +0.011 C 
ATOM     28  C   UNL     1      33.377  -5.212 -25.868  0.00  0.00    +0.058 C 
ENDBRANCH  21  23
ENDBRANCH   5  21
TORSDOF 3
ENDMDL
MODEL 8
REMARK VINA RESULT:      -8.3     14.744     15.971
REMARK  Name = 42627562
REMARK  3 active torsions:
REMARK  status: ('A' for Active; 'I' for Inactive)
REMARK    1  A    between atoms: C_5  and  N_17
REMARK    2  A    between atoms: C_5  and  C_21
REMARK    3  A    between atoms: C_21  and  C_23
REMARK                            x       y       z     vdW  Elec       q    Type
REMARK                         _______ _______ _______ _____ _____    ______ ____
ROOT
ATOM      1  N   UNL     1      33.578 -23.898 -14.728  0.00  0.00    -0.296 N 
ATOM      2  N   UNL     1      35.637 -23.482 -15.851  0.00  0.00    -0.233 NA
ATOM      3  N   UNL     1      37.490 -23.316 -12.265  0.00  0.00    -0.300 N 
ATOM      4  N   UNL     1      37.735 -23.164 -14.658  0.00  0.00    -0.233 NA
ATOM      5  C   UNL     1      30.710 -24.408 -14.886  0.00  0.00    -0.042 C 
ATOM      6  C   UNL     1      31.348 -23.137 -15.462  0.00  0.00    +0.002 C 
ATOM      7  C   UNL     1      31.581 -24.969 -13.756  0.00  0.00    +0.002 C 
ATOM      8  C   UNL     1      32.819 -23.319 -15.845  0.00  0.00    +0.090 C 
ATOM      9  C   UNL     1      33.052 -25.139 -14.149  0.00  0.00    +0.090 C 
ATOM     10  C   UNL     1      34.956 -23.655 -14.694  0.00  0.00    +0.116 C 
ATOM     11  C   UNL     1      35.638 -23.589 -13.479  0.00  0.00    +0.131 C 
ATOM     12  C   UNL     1      37.004 -23.344 -13.545  0.00  0.00    +0.117 C 
ATOM     13  C   UNL     1      35.304 -23.710 -12.106  0.00  0.00    +0.004 C 
ATOM     14  C   UNL     1      36.966 -23.251 -15.763  0.00  0.00    +0.252 C 
ATOM     15  C   UNL     1      36.464 -23.538 -11.381  0.00  0.00    +0.059 C 
ATOM     16  H   UNL     1      38.430 -23.161 -12.016  0.00  0.00    +0.153 HD
ENDROOT
BRANCH   5  17
ATOM     17  N   UNL     1      30.609 -25.435 -15.974  0.00  0.00    +0.383 N 
ATOM     18  H   UNL     1      31.522 -25.866 -16.120  0.00  0.00    -0.089 HD
ATOM     19  H   UNL     1      30.302 -24.987 -16.838  0.00  0.00    -0.089 HD
ATOM     20  H   UNL     1      29.935 -26.151 -15.704  0.00  0.00    -0.089 HD
ENDBRANCH   5  17
BRANCH   5  21
ATOM     21  C   UNL     1      29.285 -24.136 -14.398  0.00  0.00    +0.006 C 
BRANCH  21  23
ATOM     22 CL   UNL     1      25.967 -21.485 -18.657  0.00  0.00    -0.082 Cl
ATOM     23  C   UNL     1      28.456 -23.472 -15.462  0.00  0.00    -0.024 C 
ATOM     24  C   UNL     1      28.504 -23.940 -16.776  0.00  0.00    -0.003 C 
ATOM     25  C   UNL     1      27.639 -22.390 -15.136  0.00  0.00    -0.003 C 
ATOM     26  C   UNL     1      27.735 -23.325 -17.763  0.00  0.00    +0.011 C 
ATOM     27  C   UNL     1      26.870 -21.775 -16.124  0.00  0.00    +0.011 C 
ATOM     28  C   UNL     1      26.918 -22.242 -17.438  0.00  0.00    +0.058 C 
ENDBRANCH  21  23
ENDBRANCH   5  21
TORSDOF 3
ENDMDL
MODEL 9
REMARK VINA RESULT:      -8.2      1.248      2.590
REMARK  Name = 42627562
REMARK  3 active torsions:
REMARK  status: ('A' for Active; 'I' for Inactive)
REMARK    1  A    between atoms: C_5  and  N_17
REMARK    2  A    between atoms: C_5  and  C_21
REMARK    3  A    between atoms: C_21  and  C_23
REMARK                            x       y       z     vdW  Elec       q    Type
REMARK                         _______ _______ _______ _____ _____    ______ ____
ROOT
ATOM      1  N   UNL     1      32.764 -12.104 -22.910  0.00  0.00    -0.296 N 
ATOM      2  N   UNL     1      33.814 -13.843 -21.666  0.00  0.00    -0.233 NA
ATOM      3  N   UNL     1      34.090 -16.022 -25.057  0.00  0.00    -0.300 N 
ATOM      4  N   UNL     1      34.543 -15.928 -22.691  0.00  0.00    -0.233 NA
ATOM      5  C   UNL     1      31.560  -9.448 -22.956  0.00  0.00    -0.042 C 
ATOM      6  C   UNL     1      31.013 -10.579 -22.075  0.00  0.00    +0.002 C 
ATOM      7  C   UNL     1      32.303 -10.032 -24.164  0.00  0.00    +0.002 C 
ATOM      8  C   UNL     1      32.069 -11.624 -21.708  0.00  0.00    +0.090 C 
ATOM      9  C   UNL     1      33.351 -11.082 -23.783  0.00  0.00    +0.090 C 
ATOM     10  C   UNL     1      33.352 -13.373 -22.848  0.00  0.00    +0.116 C 
ATOM     11  C   UNL     1      33.470 -14.161 -23.993  0.00  0.00    +0.131 C 
ATOM     12  C   UNL     1      34.067 -15.405 -23.835  0.00  0.00    +0.117 C 
ATOM     13  C   UNL     1      33.126 -14.038 -25.364  0.00  0.00    +0.004 C 
ATOM     14  C   UNL     1      34.373 -15.074 -21.661  0.00  0.00    +0.252 C 
ATOM     15  C   UNL     1      33.520 -15.199 -25.995  0.00  0.00    +0.059 C 
ATOM     16  H   UNL     1      34.458 -16.917 -25.236  0.00  0.00    +0.153 HD
ENDROOT
BRANCH   5  17
ATOM     17  N   UNL     1      32.521  -8.628 -22.148  0.00  0.00    +0.383 N 
ATOM     18  H   UNL     1      33.457  -9.028 -22.223  0.00  0.00    -0.089 HD
ATOM     19  H   UNL     1      32.230  -8.626 -21.170  0.00  0.00    -0.089 HD
ATOM     20  H   UNL     1      32.532  -7.671 -22.501  0.00  0.00    -0.089 HD
ENDBRANCH   5  17
BRANCH   5  21
ATOM     21  C   UNL     1      30.439  -8.507 -23.402  0.00  0.00    +0.006 C 
BRANCH  21  23
ATOM     22 CL   UNL     1      32.198  -2.757 -23.271  0.00  0.00    -0.082 Cl
ATOM     23  C   UNL     1      30.879  -7.070 -23.368  0.00  0.00    -0.024 C 
ATOM     24  C   UNL     1      31.559  -6.524 -24.457  0.00  0.00    -0.003 C 
ATOM     25  C   UNL     1      30.606  -6.283 -22.249  0.00  0.00    -0.003 C 
ATOM     26  C   UNL     1      31.968  -5.191 -24.425  0.00  0.00    +0.011 C 
ATOM     27  C   UNL     1      31.014  -4.950 -22.219  0.00  0.00    +0.011 C 
ATOM     28  C   UNL     1      31.696  -4.403 -23.306  0.00  0.00    +0.058 C 
ENDBRANCH  21  23
ENDBRANCH   5  21
TORSDOF 3
ENDMDL
