MODEL 1
REMARK VINA RESULT:      -7.6      0.000      0.000
REMARK  Name = 5289045
REMARK  8 active torsions:
REMARK  status: ('A' for Active; 'I' for Inactive)
REMARK    1  A    between atoms: C_1  and  N_2
REMARK    2  A    between atoms: C_1  and  C_6
REMARK    3  A    between atoms: C_1  and  C_13
REMARK    4  A    between atoms: C_6  and  C_7
REMARK    5  A    between atoms: C_13  and  O_14
REMARK    6  A    between atoms: C_13  and  C_17
REMARK    7  A    between atoms: C_17  and  O_18
REMARK    8  A    between atoms: O_18  and  C_19
REMARK                            x       y       z     vdW  Elec       q    Type
REMARK                         _______ _______ _______ _____ _____    ______ ____
ROOT
ATOM      1  C   UNL     1      34.633 -18.055 -23.578  0.00  0.00    -0.027 C 
ENDROOT
BRANCH   1   2
ATOM      2  N   UNL     1      34.616 -19.074 -24.634  0.00  0.00    +0.384 N 
ATOM      3  H   UNL     1      34.079 -18.730 -25.430  0.00  0.00    -0.089 HD
ATOM      4  H   UNL     1      34.185 -19.927 -24.277  0.00  0.00    -0.089 HD
ATOM      5  H   UNL     1      35.572 -19.274 -24.929  0.00  0.00    -0.089 HD
ENDBRANCH   1   2
BRANCH   1   6
ATOM      6  C   UNL     1      35.646 -18.420 -22.475  0.00  0.00    -0.019 C 
BRANCH   6   7
ATOM      7  C   UNL     1      35.004 -19.058 -21.244  0.00  0.00    -0.002 C 
ATOM      8  C   UNL     1      33.518 -19.345 -21.494  0.00  0.00    -0.000 C 
ATOM      9  C   UNL     1      35.749 -20.340 -20.848  0.00  0.00    -0.000 C 
ATOM     10  C   UNL     1      32.867 -20.032 -20.296  0.00  0.00    -0.000 C 
ATOM     11  C   UNL     1      35.094 -21.025 -19.650  0.00  0.00    -0.000 C 
ATOM     12  C   UNL     1      33.615 -21.301 -19.899  0.00  0.00    -0.000 C 
ENDBRANCH   6   7
ENDBRANCH   1   6
BRANCH   1  13
ATOM     13  C   UNL     1      34.936 -16.693 -24.234  0.00  0.00    +0.189 C 
BRANCH  13  14
ATOM     14  O   UNL     1      34.969 -16.828 -25.649  0.00  0.00    -0.376 OA
ATOM     15  H   UNL     1      34.065 -16.808 -25.997  0.00  0.00    +0.211 HD
ENDBRANCH  13  14
BRANCH  13  17
ATOM     16  O   UNL     1      33.464 -14.806 -24.668  0.00  0.00    -0.247 OA
ATOM     17  C   UNL     1      33.889 -15.647 -23.887  0.00  0.00    +0.342 C 
BRANCH  17  18
ATOM     18  O   UNL     1      33.483 -15.812 -22.594  0.00  0.00    -0.451 OA
BRANCH  18  19
ATOM     19  C   UNL     1      33.862 -14.769 -21.691  0.00  0.00    +0.169 C 
ATOM     20  C   UNL     1      32.624 -13.987 -21.280  0.00  0.00    +0.047 C 
ATOM     21  C   UNL     1      34.571 -15.379 -20.491  0.00  0.00    +0.047 C 
ENDBRANCH  18  19
ENDBRANCH  17  18
ENDBRANCH  13  17
ENDBRANCH   1  13
TORSDOF 8
ENDMDL
MODEL 2
REMARK VINA RESULT:      -7.5      1.801      2.046
REMARK  Name = 5289045
REMARK  8 active torsions:
REMARK  status: ('A' for Active; 'I' for Inactive)
REMARK    1  A    between atoms: C_1  and  N_2
REMARK    2  A    between atoms: C_1  and  C_6
REMARK    3  A    between atoms: C_1  and  C_13
REMARK    4  A    between atoms: C_6  and  C_7
REMARK    5  A    between atoms: C_13  and  O_14
REMARK    6  A    between atoms: C_13  and  C_17
REMARK    7  A    between atoms: C_17  and  O_18
REMARK    8  A    between atoms: O_18  and  C_19
REMARK                            x       y       z     vdW  Elec       q    Type
REMARK                         _______ _______ _______ _____ _____    ______ ____
ROOT
ATOM      1  C   UNL     1      34.678 -17.022 -21.775  0.00  0.00    -0.027 C 
ENDROOT
BRANCH   1   2
ATOM      2  N   UNL     1      33.409 -16.397 -21.384  0.00  0.00    +0.384 N 
ATOM      3  H   UNL     1      33.385 -16.281 -20.372  0.00  0.00    -0.089 HD
ATOM      4  H   UNL     1      32.633 -16.990 -21.677  0.00  0.00    -0.089 HD
ATOM      5  H   UNL     1      33.328 -15.484 -21.833  0.00  0.00    -0.089 HD
ENDBRANCH   1   2
BRANCH   1   6
ATOM      6  C   UNL     1      34.489 -18.526 -22.058  0.00  0.00    -0.019 C 
BRANCH   6   7
ATOM      7  C   UNL     1      34.400 -19.379 -20.793  0.00  0.00    -0.002 C 
ATOM      8  C   UNL     1      33.073 -20.146 -20.747  0.00  0.00    -0.000 C 
ATOM      9  C   UNL     1      35.592 -20.341 -20.705  0.00  0.00    -0.000 C 
ATOM     10  C   UNL     1      32.984 -21.046 -19.517  0.00  0.00    -0.000 C 
ATOM     11  C   UNL     1      35.499 -21.242 -19.474  0.00  0.00    -0.000 C 
ATOM     12  C   UNL     1      34.175 -21.996 -19.427  0.00  0.00    -0.000 C 
ENDBRANCH   6   7
ENDBRANCH   1   6
BRANCH   1  13
ATOM     13  C   UNL     1      35.233 -16.255 -22.992  0.00  0.00    +0.189 C 
BRANCH  13  14
ATOM     14  O   UNL     1      35.681 -17.170 -23.984  0.00  0.00    -0.376 OA
ATOM     15  H   UNL     1      36.588 -17.446 -23.784  0.00  0.00    +0.211 HD
ENDBRANCH  13  14
BRANCH  13  17
ATOM     16  O   UNL     1      33.452 -15.681 -24.545  0.00  0.00    -0.247 OA
ATOM     17  C   UNL     1      34.187 -15.352 -23.623  0.00  0.00    +0.342 C 
BRANCH  17  18
ATOM     18  O   UNL     1      34.179 -14.143 -22.989  0.00  0.00    -0.451 OA
BRANCH  18  19
ATOM     19  C   UNL     1      33.101 -13.269 -23.339  0.00  0.00    +0.169 C 
ATOM     20  C   UNL     1      32.246 -13.009 -22.108  0.00  0.00    +0.047 C 
ATOM     21  C   UNL     1      33.668 -11.982 -23.917  0.00  0.00    +0.047 C 
ENDBRANCH  18  19
ENDBRANCH  17  18
ENDBRANCH  13  17
ENDBRANCH   1  13
TORSDOF 8
ENDMDL
MODEL 3
REMARK VINA RESULT:      -7.4      1.393      1.907
REMARK  Name = 5289045
REMARK  8 active torsions:
REMARK  status: ('A' for Active; 'I' for Inactive)
REMARK    1  A    between atoms: C_1  and  N_2
REMARK    2  A    between atoms: C_1  and  C_6
REMARK    3  A    between atoms: C_1  and  C_13
REMARK    4  A    between atoms: C_6  and  C_7
REMARK    5  A    between atoms: C_13  and  O_14
REMARK    6  A    between atoms: C_13  and  C_17
REMARK    7  A    between atoms: C_17  and  O_18
REMARK    8  A    between atoms: O_18  and  C_19
REMARK                            x       y       z     vdW  Elec       q    Type
REMARK                         _______ _______ _______ _____ _____    ______ ____
ROOT
ATOM      1  C   UNL     1      34.938 -18.126 -22.605  0.00  0.00    -0.027 C 
ENDROOT
BRANCH   1   2
ATOM      2  N   UNL     1      35.068 -18.419 -24.038  0.00  0.00    +0.384 N 
ATOM      3  H   UNL     1      35.930 -18.937 -24.203  0.00  0.00    -0.089 HD
ATOM      4  H   UNL     1      35.091 -17.544 -24.563  0.00  0.00    -0.089 HD
ATOM      5  H   UNL     1      34.271 -18.978 -24.344  0.00  0.00    -0.089 HD
ENDBRANCH   1   2
BRANCH   1   6
ATOM      6  C   UNL     1      35.857 -19.041 -21.770  0.00  0.00    -0.019 C 
BRANCH   6   7
ATOM      7  C   UNL     1      35.143 -19.722 -20.603  0.00  0.00    -0.002 C 
ATOM      8  C   UNL     1      33.661 -19.947 -20.931  0.00  0.00    -0.000 C 
ATOM      9  C   UNL     1      35.831 -21.046 -20.246  0.00  0.00    -0.000 C 
ATOM     10  C   UNL     1      32.938 -20.674 -19.801  0.00  0.00    -0.000 C 
ATOM     11  C   UNL     1      35.104 -21.772 -19.117  0.00  0.00    -0.000 C 
ATOM     12  C   UNL     1      33.630 -21.986 -19.442  0.00  0.00    -0.000 C 
ENDBRANCH   6   7
ENDBRANCH   1   6
BRANCH   1  13
ATOM     13  C   UNL     1      35.241 -16.629 -22.394  0.00  0.00    +0.189 C 
BRANCH  13  14
ATOM     14  O   UNL     1      35.585 -16.020 -23.632  0.00  0.00    -0.376 OA
ATOM     15  H   UNL     1      35.961 -16.687 -24.227  0.00  0.00    +0.211 HD
ENDBRANCH  13  14
BRANCH  13  17
ATOM     16  O   UNL     1      33.244 -16.361 -21.031  0.00  0.00    -0.247 OA
ATOM     17  C   UNL     1      34.049 -15.882 -21.819  0.00  0.00    +0.342 C 
BRANCH  17  18
ATOM     18  O   UNL     1      34.035 -14.602 -22.292  0.00  0.00    -0.451 OA
BRANCH  18  19
ATOM     19  C   UNL     1      32.786 -14.153 -22.825  0.00  0.00    +0.169 C 
ATOM     20  C   UNL     1      32.210 -13.078 -21.916  0.00  0.00    +0.047 C 
ATOM     21  C   UNL     1      33.000 -13.642 -24.241  0.00  0.00    +0.047 C 
ENDBRANCH  18  19
ENDBRANCH  17  18
ENDBRANCH  13  17
ENDBRANCH   1  13
TORSDOF 8
ENDMDL
MODEL 4
REMARK VINA RESULT:      -7.3      1.416      2.412
REMARK  Name = 5289045
REMARK  8 active torsions:
REMARK  status: ('A' for Active; 'I' for Inactive)
REMARK    1  A    between atoms: C_1  and  N_2
REMARK    2  A    between atoms: C_1  and  C_6
REMARK    3  A    between atoms: C_1  and  C_13
REMARK    4  A    between atoms: C_6  and  C_7
REMARK    5  A    between atoms: C_13  and  O_14
REMARK    6  A    between atoms: C_13  and  C_17
REMARK    7  A    between atoms: C_17  and  O_18
REMARK    8  A    between atoms: O_18  and  C_19
REMARK                            x       y       z     vdW  Elec       q    Type
REMARK                         _______ _______ _______ _____ _____    ______ ____
ROOT
ATOM      1  C   UNL     1      34.425 -18.048 -22.583  0.00  0.00    -0.027 C 
ENDROOT
BRANCH   1   2
ATOM      2  N   UNL     1      35.221 -19.081 -23.258  0.00  0.00    +0.384 N 
ATOM      3  H   UNL     1      34.602 -19.811 -23.607  0.00  0.00    -0.089 HD
ATOM      4  H   UNL     1      35.884 -19.485 -22.596  0.00  0.00    -0.089 HD
ATOM      5  H   UNL     1      35.729 -18.663 -24.037  0.00  0.00    -0.089 HD
ENDBRANCH   1   2
BRANCH   1   6
ATOM      6  C   UNL     1      33.848 -18.575 -21.254  0.00  0.00    -0.019 C 
BRANCH   6   7
ATOM      7  C   UNL     1      34.298 -19.995 -20.914  0.00  0.00    -0.002 C 
ATOM      8  C   UNL     1      35.717 -19.990 -20.331  0.00  0.00    -0.000 C 
ATOM      9  C   UNL     1      33.311 -20.658 -19.944  0.00  0.00    -0.000 C 
ATOM     10  C   UNL     1      36.168 -21.393 -19.934  0.00  0.00    -0.000 C 
ATOM     11  C   UNL     1      33.766 -22.061 -19.548  0.00  0.00    -0.000 C 
ATOM     12  C   UNL     1      35.180 -22.053 -18.977  0.00  0.00    -0.000 C 
ENDBRANCH   6   7
ENDBRANCH   1   6
BRANCH   1  13
ATOM     13  C   UNL     1      35.319 -16.806 -22.391  0.00  0.00    +0.189 C 
BRANCH  13  14
ATOM     14  O   UNL     1      35.734 -16.302 -23.654  0.00  0.00    -0.376 OA
ATOM     15  H   UNL     1      35.502 -15.363 -23.719  0.00  0.00    +0.211 HD
ENDBRANCH  13  14
BRANCH  13  17
ATOM     16  O   UNL     1      34.887 -15.297 -20.534  0.00  0.00    -0.247 OA
ATOM     17  C   UNL     1      34.595 -15.690 -21.656  0.00  0.00    +0.342 C 
BRANCH  17  18
ATOM     18  O   UNL     1      33.602 -15.186 -22.445  0.00  0.00    -0.451 OA
BRANCH  18  19
ATOM     19  C   UNL     1      33.539 -13.759 -22.522  0.00  0.00    +0.169 C 
ATOM     20  C   UNL     1      33.696 -13.327 -23.972  0.00  0.00    +0.047 C 
ATOM     21  C   UNL     1      32.221 -13.284 -21.929  0.00  0.00    +0.047 C 
ENDBRANCH  18  19
ENDBRANCH  17  18
ENDBRANCH  13  17
ENDBRANCH   1  13
TORSDOF 8
ENDMDL
MODEL 5
REMARK VINA RESULT:      -7.3      4.014      6.902
REMARK  Name = 5289045
REMARK  8 active torsions:
REMARK  status: ('A' for Active; 'I' for Inactive)
REMARK    1  A    between atoms: C_1  and  N_2
REMARK    2  A    between atoms: C_1  and  C_6
REMARK    3  A    between atoms: C_1  and  C_13
REMARK    4  A    between atoms: C_6  and  C_7
REMARK    5  A    between atoms: C_13  and  O_14
REMARK    6  A    between atoms: C_13  and  C_17
REMARK    7  A    between atoms: C_17  and  O_18
REMARK    8  A    between atoms: O_18  and  C_19
REMARK                            x       y       z     vdW  Elec       q    Type
REMARK                         _______ _______ _______ _____ _____    ______ ____
ROOT
ATOM      1  C   UNL     1      34.290 -20.693 -20.662  0.00  0.00    -0.027 C 
ENDROOT
BRANCH   1   2
ATOM      2  N   UNL     1      33.024 -20.577 -19.928  0.00  0.00    +0.384 N 
ATOM      3  H   UNL     1      32.348 -20.067 -20.495  0.00  0.00    -0.089 HD
ATOM      4  H   UNL     1      33.182 -20.076 -19.054  0.00  0.00    -0.089 HD
ATOM      5  H   UNL     1      32.663 -21.510 -19.725  0.00  0.00    -0.089 HD
ENDBRANCH   1   2
BRANCH   1   6
ATOM      6  C   UNL     1      34.940 -19.308 -20.863  0.00  0.00    -0.019 C 
BRANCH   6   7
ATOM      7  C   UNL     1      34.448 -18.580 -22.113  0.00  0.00    -0.002 C 
ATOM      8  C   UNL     1      34.967 -17.136 -22.139  0.00  0.00    -0.000 C 
ATOM      9  C   UNL     1      34.870 -19.334 -23.381  0.00  0.00    -0.000 C 
ATOM     10  C   UNL     1      34.533 -16.403 -23.405  0.00  0.00    -0.000 C 
ATOM     11  C   UNL     1      34.435 -18.597 -24.646  0.00  0.00    -0.000 C 
ATOM     12  C   UNL     1      34.945 -17.161 -24.664  0.00  0.00    -0.000 C 
ENDBRANCH   6   7
ENDBRANCH   1   6
BRANCH   1  13
ATOM     13  C   UNL     1      35.201 -21.669 -19.892  0.00  0.00    +0.189 C 
BRANCH  13  14
ATOM     14  O   UNL     1      35.983 -20.961 -18.939  0.00  0.00    -0.376 OA
ATOM     15  H   UNL     1      36.851 -21.386 -18.855  0.00  0.00    +0.211 HD
ENDBRANCH  13  14
BRANCH  13  17
ATOM     16  O   UNL     1      33.933 -23.733 -19.669  0.00  0.00    -0.247 OA
ATOM     17  C   UNL     1      34.404 -22.729 -19.150  0.00  0.00    +0.342 C 
BRANCH  17  18
ATOM     18  O   UNL     1      34.321 -22.402 -17.828  0.00  0.00    -0.451 OA
BRANCH  18  19
ATOM     19  C   UNL     1      33.673 -23.365 -16.992  0.00  0.00    +0.169 C 
ATOM     20  C   UNL     1      34.376 -23.415 -15.645  0.00  0.00    +0.047 C 
ATOM     21  C   UNL     1      32.204 -22.998 -16.851  0.00  0.00    +0.047 C 
ENDBRANCH  18  19
ENDBRANCH  17  18
ENDBRANCH  13  17
ENDBRANCH   1  13
TORSDOF 8
ENDMDL
MODEL 6
REMARK VINA RESULT:      -7.1      9.858     12.138
REMARK  Name = 5289045
REMARK  8 active torsions:
REMARK  status: ('A' for Active; 'I' for Inactive)
REMARK    1  A    between atoms: C_1  and  N_2
REMARK    2  A    between atoms: C_1  and  C_6
REMARK    3  A    between atoms: C_1  and  C_13
REMARK    4  A    between atoms: C_6  and  C_7
REMARK    5  A    between atoms: C_13  and  O_14
REMARK    6  A    between atoms: C_13  and  C_17
REMARK    7  A    between atoms: C_17  and  O_18
REMARK    8  A    between atoms: O_18  and  C_19
REMARK                            x       y       z     vdW  Elec       q    Type
REMARK                         _______ _______ _______ _____ _____    ______ ____
ROOT
ATOM      1  C   UNL     1      35.711 -23.547 -12.532  0.00  0.00    -0.027 C 
ENDROOT
BRANCH   1   2
ATOM      2  N   UNL     1      36.594 -22.774 -13.415  0.00  0.00    +0.384 N 
ATOM      3  H   UNL     1      36.074 -22.478 -14.240  0.00  0.00    -0.089 HD
ATOM      4  H   UNL     1      37.383 -23.354 -13.700  0.00  0.00    -0.089 HD
ATOM      5  H   UNL     1      36.938 -21.953 -12.916  0.00  0.00    -0.089 HD
ENDBRANCH   1   2
BRANCH   1   6
ATOM      6  C   UNL     1      34.713 -24.391 -13.351  0.00  0.00    -0.019 C 
BRANCH   6   7
ATOM      7  C   UNL     1      33.873 -23.567 -14.325  0.00  0.00    -0.002 C 
ATOM      8  C   UNL     1      34.174 -23.967 -15.776  0.00  0.00    -0.000 C 
ATOM      9  C   UNL     1      32.378 -23.722 -14.015  0.00  0.00    -0.000 C 
ATOM     10  C   UNL     1      33.307 -23.194 -16.766  0.00  0.00    -0.000 C 
ATOM     11  C   UNL     1      31.513 -22.949 -15.009  0.00  0.00    -0.000 C 
ATOM     12  C   UNL     1      31.822 -23.343 -16.449  0.00  0.00    -0.000 C 
ENDBRANCH   6   7
ENDBRANCH   1   6
BRANCH   1  13
ATOM     13  C   UNL     1      36.595 -24.406 -11.606  0.00  0.00    +0.189 C 
BRANCH  13  14
ATOM     14  O   UNL     1      36.211 -25.772 -11.693  0.00  0.00    -0.376 OA
ATOM     15  H   UNL     1      36.190 -26.043 -12.623  0.00  0.00    +0.211 HD
ENDBRANCH  13  14
BRANCH  13  17
ATOM     16  O   UNL     1      38.790 -23.362 -11.687  0.00  0.00    -0.247 OA
ATOM     17  C   UNL     1      38.067 -24.308 -11.970  0.00  0.00    +0.342 C 
BRANCH  17  18
ATOM     18  O   UNL     1      38.455 -25.439 -12.628  0.00  0.00    -0.451 OA
BRANCH  18  19
ATOM     19  C   UNL     1      38.812 -25.263 -14.002  0.00  0.00    +0.169 C 
ATOM     20  C   UNL     1      40.245 -25.729 -14.213  0.00  0.00    +0.047 C 
ATOM     21  C   UNL     1      37.832 -26.030 -14.877  0.00  0.00    +0.047 C 
ENDBRANCH  18  19
ENDBRANCH  17  18
ENDBRANCH  13  17
ENDBRANCH   1  13
TORSDOF 8
ENDMDL
MODEL 7
REMARK VINA RESULT:      -7.1      2.577      5.891
REMARK  Name = 5289045
REMARK  8 active torsions:
REMARK  status: ('A' for Active; 'I' for Inactive)
REMARK    1  A    between atoms: C_1  and  N_2
REMARK    2  A    between atoms: C_1  and  C_6
REMARK    3  A    between atoms: C_1  and  C_13
REMARK    4  A    between atoms: C_6  and  C_7
REMARK    5  A    between atoms: C_13  and  O_14
REMARK    6  A    between atoms: C_13  and  C_17
REMARK    7  A    between atoms: C_17  and  O_18
REMARK    8  A    between atoms: O_18  and  C_19
REMARK                            x       y       z     vdW  Elec       q    Type
REMARK                         _______ _______ _______ _____ _____    ______ ____
ROOT
ATOM      1  C   UNL     1      34.800 -17.863 -21.221  0.00  0.00    -0.027 C 
ENDROOT
BRANCH   1   2
ATOM      2  N   UNL     1      36.023 -18.390 -20.602  0.00  0.00    +0.384 N 
ATOM      3  H   UNL     1      36.000 -19.409 -20.617  0.00  0.00    -0.089 HD
ATOM      4  H   UNL     1      36.083 -18.065 -19.637  0.00  0.00    -0.089 HD
ATOM      5  H   UNL     1      36.836 -18.060 -21.124  0.00  0.00    -0.089 HD
ENDBRANCH   1   2
BRANCH   1   6
ATOM      6  C   UNL     1      35.135 -16.812 -22.299  0.00  0.00    -0.019 C 
BRANCH   6   7
ATOM      7  C   UNL     1      34.548 -15.432 -22.008  0.00  0.00    -0.002 C 
ATOM      8  C   UNL     1      34.090 -14.753 -23.305  0.00  0.00    -0.000 C 
ATOM      9  C   UNL     1      33.389 -15.537 -21.007  0.00  0.00    -0.000 C 
ATOM     10  C   UNL     1      33.450 -13.394 -23.035  0.00  0.00    -0.000 C 
ATOM     11  C   UNL     1      32.751 -14.175 -20.740  0.00  0.00    -0.000 C 
ATOM     12  C   UNL     1      32.305 -13.500 -22.032  0.00  0.00    -0.000 C 
ENDBRANCH   6   7
ENDBRANCH   1   6
BRANCH   1  13
ATOM     13  C   UNL     1      33.999 -19.055 -21.783  0.00  0.00    +0.189 C 
BRANCH  13  14
ATOM     14  O   UNL     1      34.755 -19.726 -22.781  0.00  0.00    -0.376 OA
ATOM     15  H   UNL     1      34.846 -20.662 -22.543  0.00  0.00    +0.211 HD
ENDBRANCH  13  14
BRANCH  13  17
ATOM     16  O   UNL     1      32.571 -20.107 -20.119  0.00  0.00    -0.247 OA
ATOM     17  C   UNL     1      33.645 -20.064 -20.703  0.00  0.00    +0.342 C 
BRANCH  17  18
ATOM     18  O   UNL     1      34.691 -20.920 -20.512  0.00  0.00    -0.451 OA
BRANCH  18  19
ATOM     19  C   UNL     1      34.771 -21.518 -19.215  0.00  0.00    +0.169 C 
ATOM     20  C   UNL     1      34.123 -22.893 -19.255  0.00  0.00    +0.047 C 
ATOM     21  C   UNL     1      36.229 -21.592 -18.787  0.00  0.00    +0.047 C 
ENDBRANCH  18  19
ENDBRANCH  17  18
ENDBRANCH  13  17
ENDBRANCH   1  13
TORSDOF 8
ENDMDL
MODEL 8
REMARK VINA RESULT:      -7.1      2.650      6.321
REMARK  Name = 5289045
REMARK  8 active torsions:
REMARK  status: ('A' for Active; 'I' for Inactive)
REMARK    1  A    between atoms: C_1  and  N_2
REMARK    2  A    between atoms: C_1  and  C_6
REMARK    3  A    between atoms: C_1  and  C_13
REMARK    4  A    between atoms: C_6  and  C_7
REMARK    5  A    between atoms: C_13  and  O_14
REMARK    6  A    between atoms: C_13  and  C_17
REMARK    7  A    between atoms: C_17  and  O_18
REMARK    8  A    between atoms: O_18  and  C_19
REMARK                            x       y       z     vdW  Elec       q    Type
REMARK                         _______ _______ _______ _____ _____    ______ ____
ROOT
ATOM      1  C   UNL     1      33.627 -15.556 -22.098  0.00  0.00    -0.027 C 
ENDROOT
BRANCH   1   2
ATOM      2  N   UNL     1      32.654 -15.448 -21.004  0.00  0.00    +0.384 N 
ATOM      3  H   UNL     1      32.259 -16.367 -20.809  0.00  0.00    -0.089 HD
ATOM      4  H   UNL     1      31.907 -14.808 -21.276  0.00  0.00    -0.089 HD
ATOM      5  H   UNL     1      33.120 -15.092 -20.169  0.00  0.00    -0.089 HD
ENDBRANCH   1   2
BRANCH   1   6
ATOM      6  C   UNL     1      33.996 -14.164 -22.649  0.00  0.00    -0.019 C 
BRANCH   6   7
ATOM      7  C   UNL     1      33.334 -13.844 -23.989  0.00  0.00    -0.002 C 
ATOM      8  C   UNL     1      33.932 -12.569 -24.598  0.00  0.00    -0.000 C 
ATOM      9  C   UNL     1      33.469 -15.027 -24.956  0.00  0.00    -0.000 C 
ATOM     10  C   UNL     1      33.324 -12.258 -25.963  0.00  0.00    -0.000 C 
ATOM     11  C   UNL     1      32.861 -14.712 -26.321  0.00  0.00    -0.000 C 
ATOM     12  C   UNL     1      33.451 -13.440 -26.920  0.00  0.00    -0.000 C 
ENDBRANCH   6   7
ENDBRANCH   1   6
BRANCH   1  13
ATOM     13  C   UNL     1      34.853 -16.329 -21.571  0.00  0.00    +0.189 C 
BRANCH  13  14
ATOM     14  O   UNL     1      34.925 -16.226 -20.155  0.00  0.00    -0.376 OA
ATOM     15  H   UNL     1      34.639 -17.061 -19.755  0.00  0.00    +0.211 HD
ENDBRANCH  13  14
BRANCH  13  17
ATOM     16  O   UNL     1      34.676 -18.236 -23.070  0.00  0.00    -0.247 OA
ATOM     17  C   UNL     1      34.796 -17.805 -21.931  0.00  0.00    +0.342 C 
BRANCH  17  18
ATOM     18  O   UNL     1      34.925 -18.560 -20.802  0.00  0.00    -0.451 OA
BRANCH  18  19
ATOM     19  C   UNL     1      34.451 -19.906 -20.901  0.00  0.00    +0.169 C 
ATOM     20  C   UNL     1      35.339 -20.815 -20.066  0.00  0.00    +0.047 C 
ATOM     21  C   UNL     1      33.000 -19.960 -20.448  0.00  0.00    +0.047 C 
ENDBRANCH  18  19
ENDBRANCH  17  18
ENDBRANCH  13  17
ENDBRANCH   1  13
TORSDOF 8
ENDMDL
MODEL 9
REMARK VINA RESULT:      -7.0     10.371     12.228
REMARK  Name = 5289045
REMARK  8 active torsions:
REMARK  status: ('A' for Active; 'I' for Inactive)
REMARK    1  A    between atoms: C_1  and  N_2
REMARK    2  A    between atoms: C_1  and  C_6
REMARK    3  A    between atoms: C_1  and  C_13
REMARK    4  A    between atoms: C_6  and  C_7
REMARK    5  A    between atoms: C_13  and  O_14
REMARK    6  A    between atoms: C_13  and  C_17
REMARK    7  A    between atoms: C_17  and  O_18
REMARK    8  A    between atoms: O_18  and  C_19
REMARK                            x       y       z     vdW  Elec       q    Type
REMARK                         _______ _______ _______ _____ _____    ______ ____
ROOT
ATOM      1  C   UNL     1      34.999 -24.212 -13.387  0.00  0.00    -0.027 C 
ENDROOT
BRANCH   1   2
ATOM      2  N   UNL     1      35.160 -25.394 -14.244  0.00  0.00    +0.384 N 
ATOM      3  H   UNL     1      36.143 -25.660 -14.274  0.00  0.00    -0.089 HD
ATOM      4  H   UNL     1      34.837 -25.176 -15.187  0.00  0.00    -0.089 HD
ATOM      5  H   UNL     1      34.609 -26.165 -13.865  0.00  0.00    -0.089 HD
ENDBRANCH   1   2
BRANCH   1   6
ATOM      6  C   UNL     1      33.512 -23.964 -13.062  0.00  0.00    -0.019 C 
BRANCH   6   7
ATOM      7  C   UNL     1      32.569 -24.319 -14.211  0.00  0.00    -0.002 C 
ATOM      8  C   UNL     1      31.295 -24.989 -13.681  0.00  0.00    -0.000 C 
ATOM      9  C   UNL     1      32.227 -23.070 -15.036  0.00  0.00    -0.000 C 
ATOM     10  C   UNL     1      30.313 -25.305 -14.806  0.00  0.00    -0.000 C 
ATOM     11  C   UNL     1      31.243 -23.389 -16.159  0.00  0.00    -0.000 C 
ATOM     12  C   UNL     1      29.982 -24.063 -15.629  0.00  0.00    -0.000 C 
ENDBRANCH   6   7
ENDBRANCH   1   6
BRANCH   1  13
ATOM     13  C   UNL     1      35.856 -24.419 -12.123  0.00  0.00    +0.189 C 
BRANCH  13  14
ATOM     14  O   UNL     1      35.066 -24.979 -11.082  0.00  0.00    -0.376 OA
ATOM     15  H   UNL     1      35.634 -25.484 -10.481  0.00  0.00    +0.211 HD
ENDBRANCH  13  14
BRANCH  13  17
ATOM     16  O   UNL     1      37.026 -26.552 -12.130  0.00  0.00    -0.247 OA
ATOM     17  C   UNL     1      37.029 -25.353 -12.375  0.00  0.00    +0.342 C 
BRANCH  17  18
ATOM     18  O   UNL     1      38.061 -24.656 -12.934  0.00  0.00    -0.451 OA
BRANCH  18  19
ATOM     19  C   UNL     1      38.557 -25.174 -14.172  0.00  0.00    +0.169 C 
ATOM     20  C   UNL     1      38.371 -24.131 -15.264  0.00  0.00    +0.047 C 
ATOM     21  C   UNL     1      40.017 -25.563 -14.002  0.00  0.00    +0.047 C 
ENDBRANCH  18  19
ENDBRANCH  17  18
ENDBRANCH  13  17
ENDBRANCH   1  13
TORSDOF 8
ENDMDL
