MODEL 1
REMARK VINA RESULT:      -5.7      0.000      0.000
REMARK  Name = 20140
REMARK  4 active torsions:
REMARK  status: ('A' for Active; 'I' for Inactive)
REMARK    1  A    between atoms: C_1  and  C_4
REMARK    2  A    between atoms: C_1  and  C_7
REMARK    3  A    between atoms: C_1  and  C_11
REMARK    4  A    between atoms: C_7  and  C_9
REMARK                            x       y       z     vdW  Elec       q    Type
REMARK                         _______ _______ _______ _____ _____    ______ ____
ROOT
ATOM      1  C   UNL     1      34.431 -18.336 -22.025  0.00  0.00    +0.076 C 
ENDROOT
BRANCH   1   4
ATOM      2  O   UNL     1      34.954 -19.502 -24.101  0.00  0.00    -0.275 OA
ATOM      3  N   UNL     1      35.485 -17.275 -23.942  0.00  0.00    -0.329 N 
ATOM      4  C   UNL     1      34.978 -18.459 -23.451  0.00  0.00    +0.219 C 
ATOM      5  H   UNL     1      35.864 -17.240 -24.851  0.00  0.00    +0.145 HD
ATOM      6  H   UNL     1      35.470 -16.463 -23.384  0.00  0.00    +0.145 HD
ENDBRANCH   1   4
BRANCH   1   7
ATOM      7  C   UNL     1      34.232 -19.760 -21.421  0.00  0.00    +0.009 C 
ATOM      8  C   UNL     1      32.898 -19.846 -20.665  0.00  0.00    +0.000 C 
BRANCH   7   9
ATOM      9  C   UNL     1      35.414 -20.201 -20.529  0.00  0.00    +0.000 C 
ATOM     10  C   UNL     1      35.073 -21.359 -19.600  0.00  0.00    +0.000 C 
ENDBRANCH   7   9
ENDBRANCH   1   7
BRANCH   1  11
ATOM     11  C   UNL     1      35.315 -17.415 -21.161  0.00  0.00    +0.009 C 
ATOM     12  C   UNL     1      34.597 -16.128 -20.764  0.00  0.00    +0.001 C 
ENDBRANCH   1  11
TORSDOF 4
ENDMDL
MODEL 2
REMARK VINA RESULT:      -5.5      2.455      3.928
REMARK  Name = 20140
REMARK  4 active torsions:
REMARK  status: ('A' for Active; 'I' for Inactive)
REMARK    1  A    between atoms: C_1  and  C_4
REMARK    2  A    between atoms: C_1  and  C_7
REMARK    3  A    between atoms: C_1  and  C_11
REMARK    4  A    between atoms: C_7  and  C_9
REMARK                            x       y       z     vdW  Elec       q    Type
REMARK                         _______ _______ _______ _____ _____    ______ ____
ROOT
ATOM      1  C   UNL     1      35.275 -18.988 -21.137  0.00  0.00    +0.076 C 
ENDROOT
BRANCH   1   4
ATOM      2  O   UNL     1      37.707 -19.150 -21.147  0.00  0.00    -0.275 OA
ATOM      3  N   UNL     1      36.547 -20.325 -19.554  0.00  0.00    -0.329 N 
ATOM      4  C   UNL     1      36.638 -19.482 -20.641  0.00  0.00    +0.219 C 
ATOM      5  H   UNL     1      37.364 -20.703 -19.153  0.00  0.00    +0.145 HD
ATOM      6  H   UNL     1      35.665 -20.551 -19.177  0.00  0.00    +0.145 HD
ENDBRANCH   1   4
BRANCH   1   7
ATOM      7  C   UNL     1      35.451 -18.274 -22.512  0.00  0.00    +0.009 C 
ATOM      8  C   UNL     1      34.850 -16.861 -22.468  0.00  0.00    +0.000 C 
BRANCH   7   9
ATOM      9  C   UNL     1      34.877 -19.094 -23.688  0.00  0.00    +0.000 C 
ATOM     10  C   UNL     1      34.489 -18.240 -24.889  0.00  0.00    +0.000 C 
ENDBRANCH   7   9
ENDBRANCH   1   7
BRANCH   1  11
ATOM     11  C   UNL     1      34.238 -20.129 -21.160  0.00  0.00    +0.009 C 
ATOM     12  C   UNL     1      32.876 -19.685 -20.634  0.00  0.00    +0.001 C 
ENDBRANCH   1  11
TORSDOF 4
ENDMDL
MODEL 3
REMARK VINA RESULT:      -5.5      1.607      1.733
REMARK  Name = 20140
REMARK  4 active torsions:
REMARK  status: ('A' for Active; 'I' for Inactive)
REMARK    1  A    between atoms: C_1  and  C_4
REMARK    2  A    between atoms: C_1  and  C_7
REMARK    3  A    between atoms: C_1  and  C_11
REMARK    4  A    between atoms: C_7  and  C_9
REMARK                            x       y       z     vdW  Elec       q    Type
REMARK                         _______ _______ _______ _____ _____    ______ ____
ROOT
ATOM      1  C   UNL     1      34.452 -17.311 -21.946  0.00  0.00    +0.076 C 
ENDROOT
BRANCH   1   4
ATOM      2  O   UNL     1      35.310 -15.638 -23.499  0.00  0.00    -0.275 OA
ATOM      3  N   UNL     1      35.305 -17.834 -24.162  0.00  0.00    -0.329 N 
ATOM      4  C   UNL     1      35.056 -16.818 -23.265  0.00  0.00    +0.219 C 
ATOM      5  H   UNL     1      35.693 -17.630 -25.044  0.00  0.00    +0.145 HD
ATOM      6  H   UNL     1      35.095 -18.767 -23.921  0.00  0.00    +0.145 HD
ENDBRANCH   1   4
BRANCH   1   7
ATOM      7  C   UNL     1      34.841 -18.805 -21.723  0.00  0.00    +0.009 C 
ATOM      8  C   UNL     1      33.705 -19.560 -21.018  0.00  0.00    +0.000 C 
BRANCH   7   9
ATOM      9  C   UNL     1      36.179 -18.967 -20.969  0.00  0.00    +0.000 C 
ATOM     10  C   UNL     1      36.313 -20.307 -20.257  0.00  0.00    +0.000 C 
ENDBRANCH   7   9
ENDBRANCH   1   7
BRANCH   1  11
ATOM     11  C   UNL     1      34.837 -16.389 -20.772  0.00  0.00    +0.009 C 
ATOM     12  C   UNL     1      33.788 -15.313 -20.511  0.00  0.00    +0.001 C 
ENDBRANCH   1  11
TORSDOF 4
ENDMDL
MODEL 4
REMARK VINA RESULT:      -5.4      1.817      2.840
REMARK  Name = 20140
REMARK  4 active torsions:
REMARK  status: ('A' for Active; 'I' for Inactive)
REMARK    1  A    between atoms: C_1  and  C_4
REMARK    2  A    between atoms: C_1  and  C_7
REMARK    3  A    between atoms: C_1  and  C_11
REMARK    4  A    between atoms: C_7  and  C_9
REMARK                            x       y       z     vdW  Elec       q    Type
REMARK                         _______ _______ _______ _____ _____    ______ ____
ROOT
ATOM      1  C   UNL     1      35.159 -18.449 -22.329  0.00  0.00    +0.076 C 
ENDROOT
BRANCH   1   4
ATOM      2  O   UNL     1      35.430 -16.146 -23.080  0.00  0.00    -0.275 OA
ATOM      3  N   UNL     1      34.941 -16.516 -20.869  0.00  0.00    -0.329 N 
ATOM      4  C   UNL     1      35.202 -16.927 -22.159  0.00  0.00    +0.219 C 
ATOM      5  H   UNL     1      34.944 -15.557 -20.647  0.00  0.00    +0.145 HD
ATOM      6  H   UNL     1      34.752 -17.183 -20.169  0.00  0.00    +0.145 HD
ENDBRANCH   1   4
BRANCH   1   7
ATOM      7  C   UNL     1      34.809 -19.114 -20.962  0.00  0.00    +0.009 C 
ATOM      8  C   UNL     1      35.889 -20.132 -20.565  0.00  0.00    +0.000 C 
BRANCH   7   9
ATOM      9  C   UNL     1      33.402 -19.751 -20.951  0.00  0.00    +0.000 C 
ATOM     10  C   UNL     1      33.243 -20.846 -19.903  0.00  0.00    +0.000 C 
ENDBRANCH   7   9
ENDBRANCH   1   7
BRANCH   1  11
ATOM     11  C   UNL     1      34.215 -18.860 -23.477  0.00  0.00    +0.009 C 
ATOM     12  C   UNL     1      34.971 -19.430 -24.673  0.00  0.00    +0.001 C 
ENDBRANCH   1  11
TORSDOF 4
ENDMDL
MODEL 5
REMARK VINA RESULT:      -5.3      2.526      4.071
REMARK  Name = 20140
REMARK  4 active torsions:
REMARK  status: ('A' for Active; 'I' for Inactive)
REMARK    1  A    between atoms: C_1  and  C_4
REMARK    2  A    between atoms: C_1  and  C_7
REMARK    3  A    between atoms: C_1  and  C_11
REMARK    4  A    between atoms: C_7  and  C_9
REMARK                            x       y       z     vdW  Elec       q    Type
REMARK                         _______ _______ _______ _____ _____    ______ ____
ROOT
ATOM      1  C   UNL     1      34.533 -20.085 -21.198  0.00  0.00    +0.076 C 
ENDROOT
BRANCH   1   4
ATOM      2  O   UNL     1      32.337 -19.266 -20.529  0.00  0.00    -0.275 OA
ATOM      3  N   UNL     1      32.981 -21.351 -19.819  0.00  0.00    -0.329 N 
ATOM      4  C   UNL     1      33.176 -20.163 -20.491  0.00  0.00    +0.219 C 
ATOM      5  H   UNL     1      32.141 -21.507 -19.328  0.00  0.00    +0.145 HD
ATOM      6  H   UNL     1      33.681 -22.044 -19.829  0.00  0.00    +0.145 HD
ENDBRANCH   1   4
BRANCH   1   7
ATOM      7  C   UNL     1      34.561 -18.837 -22.132  0.00  0.00    +0.009 C 
ATOM      8  C   UNL     1      34.897 -19.248 -23.573  0.00  0.00    +0.000 C 
BRANCH   7   9
ATOM      9  C   UNL     1      35.514 -17.732 -21.624  0.00  0.00    +0.000 C 
ATOM     10  C   UNL     1      34.787 -16.548 -21.000  0.00  0.00    +0.000 C 
ENDBRANCH   7   9
ENDBRANCH   1   7
BRANCH   1  11
ATOM     11  C   UNL     1      35.697 -20.129 -20.188  0.00  0.00    +0.009 C 
ATOM     12  C   UNL     1      36.389 -21.488 -20.159  0.00  0.00    +0.001 C 
ENDBRANCH   1  11
TORSDOF 4
ENDMDL
MODEL 6
REMARK VINA RESULT:      -5.3      2.449      3.992
REMARK  Name = 20140
REMARK  4 active torsions:
REMARK  status: ('A' for Active; 'I' for Inactive)
REMARK    1  A    between atoms: C_1  and  C_4
REMARK    2  A    between atoms: C_1  and  C_7
REMARK    3  A    between atoms: C_1  and  C_11
REMARK    4  A    between atoms: C_7  and  C_9
REMARK                            x       y       z     vdW  Elec       q    Type
REMARK                         _______ _______ _______ _____ _____    ______ ____
ROOT
ATOM      1  C   UNL     1      34.208 -17.660 -21.776  0.00  0.00    +0.076 C 
ENDROOT
BRANCH   1   4
ATOM      2  O   UNL     1      35.091 -16.067 -20.156  0.00  0.00    -0.275 OA
ATOM      3  N   UNL     1      32.925 -15.805 -20.868  0.00  0.00    -0.329 N 
ATOM      4  C   UNL     1      34.146 -16.446 -20.844  0.00  0.00    +0.219 C 
ATOM      5  H   UNL     1      32.774 -15.011 -20.305  0.00  0.00    +0.145 HD
ATOM      6  H   UNL     1      32.203 -16.142 -21.447  0.00  0.00    +0.145 HD
ENDBRANCH   1   4
BRANCH   1   7
ATOM      7  C   UNL     1      35.285 -17.415 -22.878  0.00  0.00    +0.009 C 
ATOM      8  C   UNL     1      34.953 -16.152 -23.686  0.00  0.00    +0.000 C 
BRANCH   7   9
ATOM      9  C   UNL     1      35.485 -18.638 -23.800  0.00  0.00    +0.000 C 
ATOM     10  C   UNL     1      34.370 -18.812 -24.824  0.00  0.00    +0.000 C 
ENDBRANCH   7   9
ENDBRANCH   1   7
BRANCH   1  11
ATOM     11  C   UNL     1      34.419 -18.966 -20.984  0.00  0.00    +0.009 C 
ATOM     12  C   UNL     1      33.124 -19.753 -20.808  0.00  0.00    +0.001 C 
ENDBRANCH   1  11
TORSDOF 4
ENDMDL
MODEL 7
REMARK VINA RESULT:      -5.3      9.343     11.041
REMARK  Name = 20140
REMARK  4 active torsions:
REMARK  status: ('A' for Active; 'I' for Inactive)
REMARK    1  A    between atoms: C_1  and  C_4
REMARK    2  A    between atoms: C_1  and  C_7
REMARK    3  A    between atoms: C_1  and  C_11
REMARK    4  A    between atoms: C_7  and  C_9
REMARK                            x       y       z     vdW  Elec       q    Type
REMARK                         _______ _______ _______ _____ _____    ______ ____
ROOT
ATOM      1  C   UNL     1      31.817  -8.958 -21.411  0.00  0.00    +0.076 C 
ENDROOT
BRANCH   1   4
ATOM      2  O   UNL     1      32.387  -9.620 -19.135  0.00  0.00    -0.275 OA
ATOM      3  N   UNL     1      32.940  -7.501 -19.820  0.00  0.00    -0.329 N 
ATOM      4  C   UNL     1      32.394  -8.753 -20.006  0.00  0.00    +0.219 C 
ATOM      5  H   UNL     1      33.339  -7.262 -18.952  0.00  0.00    +0.145 HD
ATOM      6  H   UNL     1      32.931  -6.846 -20.555  0.00  0.00    +0.145 HD
ENDBRANCH   1   4
BRANCH   1   7
ATOM      7  C   UNL     1      32.445  -7.916 -22.386  0.00  0.00    +0.009 C 
ATOM      8  C   UNL     1      31.359  -7.264 -23.254  0.00  0.00    +0.000 C 
BRANCH   7   9
ATOM      9  C   UNL     1      33.575  -8.515 -23.253  0.00  0.00    +0.000 C 
ATOM     10  C   UNL     1      34.771  -7.585 -23.414  0.00  0.00    +0.000 C 
ENDBRANCH   7   9
ENDBRANCH   1   7
BRANCH   1  11
ATOM     11  C   UNL     1      31.977 -10.418 -21.877  0.00  0.00    +0.009 C 
ATOM     12  C   UNL     1      30.750 -11.267 -21.560  0.00  0.00    +0.001 C 
ENDBRANCH   1  11
TORSDOF 4
ENDMDL
MODEL 8
REMARK VINA RESULT:      -5.3      8.895     10.615
REMARK  Name = 20140
REMARK  4 active torsions:
REMARK  status: ('A' for Active; 'I' for Inactive)
REMARK    1  A    between atoms: C_1  and  C_4
REMARK    2  A    between atoms: C_1  and  C_7
REMARK    3  A    between atoms: C_1  and  C_11
REMARK    4  A    between atoms: C_7  and  C_9
REMARK                            x       y       z     vdW  Elec       q    Type
REMARK                         _______ _______ _______ _____ _____    ______ ____
ROOT
ATOM      1  C   UNL     1      37.953 -25.234 -14.873  0.00  0.00    +0.076 C 
ENDROOT
BRANCH   1   4
ATOM      2  O   UNL     1      36.407 -26.852 -15.839  0.00  0.00    -0.275 OA
ATOM      3  N   UNL     1      37.002 -27.099 -13.637  0.00  0.00    -0.329 N 
ATOM      4  C   UNL     1      37.037 -26.462 -14.859  0.00  0.00    +0.219 C 
ATOM      5  H   UNL     1      36.444 -27.901 -13.515  0.00  0.00    +0.145 HD
ATOM      6  H   UNL     1      37.536 -26.752 -12.885  0.00  0.00    +0.145 HD
ENDBRANCH   1   4
BRANCH   1   7
ATOM      7  C   UNL     1      37.090 -23.941 -14.750  0.00  0.00    +0.009 C 
ATOM      8  C   UNL     1      37.532 -22.895 -15.784  0.00  0.00    +0.000 C 
BRANCH   7   9
ATOM      9  C   UNL     1      37.093 -23.356 -13.320  0.00  0.00    +0.000 C 
ATOM     10  C   UNL     1      35.827 -23.675 -12.534  0.00  0.00    +0.000 C 
ENDBRANCH   7   9
ENDBRANCH   1   7
BRANCH   1  11
ATOM     11  C   UNL     1      39.059 -25.345 -13.805  0.00  0.00    +0.009 C 
ATOM     12  C   UNL     1      40.389 -25.808 -14.393  0.00  0.00    +0.001 C 
ENDBRANCH   1  11
TORSDOF 4
ENDMDL
MODEL 9
REMARK VINA RESULT:      -5.3      2.340      4.363
REMARK  Name = 20140
REMARK  4 active torsions:
REMARK  status: ('A' for Active; 'I' for Inactive)
REMARK    1  A    between atoms: C_1  and  C_4
REMARK    2  A    between atoms: C_1  and  C_7
REMARK    3  A    between atoms: C_1  and  C_11
REMARK    4  A    between atoms: C_7  and  C_9
REMARK                            x       y       z     vdW  Elec       q    Type
REMARK                         _______ _______ _______ _____ _____    ______ ____
ROOT
ATOM      1  C   UNL     1      34.673 -17.973 -22.379  0.00  0.00    +0.076 C 
ENDROOT
BRANCH   1   4
ATOM      2  O   UNL     1      36.107 -18.741 -20.563  0.00  0.00    -0.275 OA
ATOM      3  N   UNL     1      34.010 -19.653 -20.750  0.00  0.00    -0.329 N 
ATOM      4  C   UNL     1      35.029 -18.815 -21.148  0.00  0.00    +0.219 C 
ATOM      5  H   UNL     1      34.132 -20.241 -19.969  0.00  0.00    +0.145 HD
ATOM      6  H   UNL     1      33.160 -19.666 -21.247  0.00  0.00    +0.145 HD
ENDBRANCH   1   4
BRANCH   1   7
ATOM      7  C   UNL     1      34.925 -16.466 -22.067  0.00  0.00    +0.009 C 
ATOM      8  C   UNL     1      33.983 -15.978 -20.957  0.00  0.00    +0.000 C 
BRANCH   7   9
ATOM      9  C   UNL     1      34.826 -15.572 -23.323  0.00  0.00    +0.000 C 
ATOM     10  C   UNL     1      34.192 -14.214 -23.050  0.00  0.00    +0.000 C 
ENDBRANCH   7   9
ENDBRANCH   1   7
BRANCH   1  11
ATOM     11  C   UNL     1      35.408 -18.477 -23.636  0.00  0.00    +0.009 C 
ATOM     12  C   UNL     1      34.445 -18.958 -24.717  0.00  0.00    +0.001 C 
ENDBRANCH   1  11
TORSDOF 4
ENDMDL
