MODEL 1
REMARK VINA RESULT:     -11.4      0.000      0.000
REMARK  Name = 1633
REMARK  3 active torsions:
REMARK  status: ('A' for Active; 'I' for Inactive)
REMARK    1  A    between atoms: C_1  and  N_8
REMARK    2  A    between atoms: C_2  and  C_15
REMARK    3  A    between atoms: C_15  and  C_18
REMARK                            x       y       z     vdW  Elec       q    Type
REMARK                         _______ _______ _______ _____ _____    ______ ____
ROOT
ATOM      1  C   UNL     1      35.322 -21.729 -18.383  0.00  0.00    +0.048 C 
ATOM      2  C   UNL     1      34.403 -20.400 -20.638  0.00  0.00    -0.021 C 
ATOM      3  C   UNL     1      36.215 -21.023 -19.190  0.00  0.00    +0.014 C 
ATOM      4  C   UNL     1      33.967 -21.767 -18.711  0.00  0.00    +0.014 C 
ATOM      5  C   UNL     1      35.753 -20.355 -20.323  0.00  0.00    -0.003 C 
ATOM      6  C   UNL     1      33.504 -21.099 -19.846  0.00  0.00    -0.003 C 
ENDROOT
BRANCH   1   8
ATOM      7  O   UNL     1      38.145 -24.130 -13.074  0.00  0.00    -0.265 OA
ATOM      8  N   UNL     1      35.783 -22.396 -17.250  0.00  0.00    -0.304 N 
ATOM      9  N   UNL     1      36.737 -23.778 -14.911  0.00  0.00    -0.269 N 
ATOM     10  C   UNL     1      37.208 -22.387 -16.902  0.00  0.00    +0.112 C 
ATOM     11  C   UNL     1      34.856 -23.126 -16.380  0.00  0.00    +0.112 C 
ATOM     12  C   UNL     1      37.398 -22.575 -15.398  0.00  0.00    +0.115 C 
ATOM     13  C   UNL     1      35.577 -24.258 -15.648  0.00  0.00    +0.115 C 
ATOM     14  C   UNL     1      37.191 -24.437 -13.780  0.00  0.00    +0.303 C 
ENDBRANCH   1   8
BRANCH   2  15
ATOM     15  C   UNL     1      33.904 -19.677 -21.863  0.00  0.00    +0.040 C 
BRANCH  15  18
ATOM     16  O   UNL     1      34.979 -19.786 -24.715  0.00  0.00    -0.274 OA
ATOM     17  N   UNL     1      34.717 -17.470 -24.422  0.00  0.00    -0.284 N 
ATOM     18  C   UNL     1      34.971 -18.781 -22.466  0.00  0.00    +0.105 C 
ATOM     19  C   UNL     1      34.781 -17.325 -22.151  0.00  0.00    -0.000 C 
ATOM     20  C   UNL     1      34.896 -18.794 -24.006  0.00  0.00    +0.230 C 
ATOM     21  C   UNL     1      34.649 -16.606 -23.336  0.00  0.00    +0.047 C 
ATOM     22  C   UNL     1      34.746 -16.676 -20.931  0.00  0.00    -0.003 C 
ATOM     23  C   UNL     1      34.471 -15.237 -23.361  0.00  0.00    +0.014 C 
ATOM     24  C   UNL     1      34.567 -15.289 -20.927  0.00  0.00    -0.000 C 
ATOM     25  C   UNL     1      34.430 -14.576 -22.132  0.00  0.00    +0.001 C 
ATOM     26  H   UNL     1      34.650 -17.188 -25.362  0.00  0.00    +0.155 HD
ENDBRANCH  15  18
ENDBRANCH   2  15
TORSDOF 3
ENDMDL
MODEL 2
REMARK VINA RESULT:     -11.1      6.117     12.043
REMARK  Name = 1633
REMARK  3 active torsions:
REMARK  status: ('A' for Active; 'I' for Inactive)
REMARK    1  A    between atoms: C_1  and  N_8
REMARK    2  A    between atoms: C_2  and  C_15
REMARK    3  A    between atoms: C_15  and  C_18
REMARK                            x       y       z     vdW  Elec       q    Type
REMARK                         _______ _______ _______ _____ _____    ______ ____
ROOT
ATOM      1  C   UNL     1      32.107 -10.619 -22.148  0.00  0.00    +0.048 C 
ATOM      2  C   UNL     1      32.507 -13.351 -21.893  0.00  0.00    -0.021 C 
ATOM      3  C   UNL     1      31.698 -11.279 -20.989  0.00  0.00    +0.014 C 
ATOM      4  C   UNL     1      32.716 -11.334 -23.180  0.00  0.00    +0.014 C 
ATOM      5  C   UNL     1      31.900 -12.652 -20.861  0.00  0.00    -0.003 C 
ATOM      6  C   UNL     1      32.917 -12.709 -23.051  0.00  0.00    -0.003 C 
ENDROOT
BRANCH   1   8
ATOM      7  O   UNL     1      30.586  -4.471 -23.497  0.00  0.00    -0.265 OA
ATOM      8  N   UNL     1      31.906  -9.246 -22.278  0.00  0.00    -0.304 N 
ATOM      9  N   UNL     1      31.494  -6.409 -22.547  0.00  0.00    -0.269 N 
ATOM     10  C   UNL     1      31.651  -8.646 -23.592  0.00  0.00    +0.112 C 
ATOM     11  C   UNL     1      31.947  -8.367 -21.105  0.00  0.00    +0.112 C 
ATOM     12  C   UNL     1      30.849  -7.353 -23.449  0.00  0.00    +0.115 C 
ATOM     13  C   UNL     1      32.354  -6.949 -21.504  0.00  0.00    +0.115 C 
ATOM     14  C   UNL     1      31.288  -5.045 -22.671  0.00  0.00    +0.303 C 
ENDBRANCH   1   8
BRANCH   2  15
ATOM     15  C   UNL     1      32.726 -14.836 -21.753  0.00  0.00    +0.040 C 
BRANCH  15  18
ATOM     16  O   UNL     1      34.865 -15.741 -19.776  0.00  0.00    -0.274 OA
ATOM     17  N   UNL     1      35.172 -17.294 -21.511  0.00  0.00    -0.284 N 
ATOM     18  C   UNL     1      34.155 -15.232 -22.079  0.00  0.00    +0.105 C 
ATOM     19  C   UNL     1      34.269 -16.151 -23.261  0.00  0.00    -0.000 C 
ATOM     20  C   UNL     1      34.764 -16.081 -20.946  0.00  0.00    +0.230 C 
ATOM     21  C   UNL     1      34.883 -17.338 -22.870  0.00  0.00    +0.047 C 
ATOM     22  C   UNL     1      33.888 -15.961 -24.577  0.00  0.00    -0.003 C 
ATOM     23  C   UNL     1      35.132 -18.373 -23.749  0.00  0.00    +0.014 C 
ATOM     24  C   UNL     1      34.128 -16.994 -25.488  0.00  0.00    -0.000 C 
ATOM     25  C   UNL     1      34.745 -18.190 -25.078  0.00  0.00    +0.001 C 
ATOM     26  H   UNL     1      35.608 -18.021 -21.012  0.00  0.00    +0.155 HD
ENDBRANCH  15  18
ENDBRANCH   2  15
TORSDOF 3
ENDMDL
MODEL 3
REMARK VINA RESULT:     -11.1      2.534      9.057
REMARK  Name = 1633
REMARK  3 active torsions:
REMARK  status: ('A' for Active; 'I' for Inactive)
REMARK    1  A    between atoms: C_1  and  N_8
REMARK    2  A    between atoms: C_2  and  C_15
REMARK    3  A    between atoms: C_15  and  C_18
REMARK                            x       y       z     vdW  Elec       q    Type
REMARK                         _______ _______ _______ _____ _____    ______ ____
ROOT
ATOM      1  C   UNL     1      34.618 -18.433 -21.418  0.00  0.00    +0.048 C 
ATOM      2  C   UNL     1      34.958 -20.831 -20.066  0.00  0.00    -0.021 C 
ATOM      3  C   UNL     1      35.903 -18.903 -21.141  0.00  0.00    +0.014 C 
ATOM      4  C   UNL     1      33.505 -19.170 -21.013  0.00  0.00    +0.014 C 
ATOM      5  C   UNL     1      36.073 -20.109 -20.462  0.00  0.00    -0.003 C 
ATOM      6  C   UNL     1      33.676 -20.376 -20.333  0.00  0.00    -0.003 C 
ENDROOT
BRANCH   1   8
ATOM      7  O   UNL     1      33.871 -12.416 -23.689  0.00  0.00    -0.265 OA
ATOM      8  N   UNL     1      34.447 -17.228 -22.096  0.00  0.00    -0.304 N 
ATOM      9  N   UNL     1      34.088 -14.739 -23.499  0.00  0.00    -0.269 N 
ATOM     10  C   UNL     1      33.747 -16.104 -21.464  0.00  0.00    +0.112 C 
ATOM     11  C   UNL     1      34.958 -17.055 -23.460  0.00  0.00    +0.112 C 
ATOM     12  C   UNL     1      34.221 -14.775 -22.049  0.00  0.00    +0.115 C 
ATOM     13  C   UNL     1      34.143 -16.006 -24.215  0.00  0.00    +0.115 C 
ATOM     14  C   UNL     1      33.925 -13.541 -24.174  0.00  0.00    +0.303 C 
ENDBRANCH   1   8
BRANCH   2  15
ATOM     15  C   UNL     1      35.143 -22.135 -19.333  0.00  0.00    +0.040 C 
BRANCH  15  18
ATOM     16  O   UNL     1      32.431 -22.826 -18.120  0.00  0.00    -0.274 OA
ATOM     17  N   UNL     1      33.885 -23.788 -16.545  0.00  0.00    -0.284 N 
ATOM     18  C   UNL     1      34.746 -22.025 -17.871  0.00  0.00    +0.105 C 
ATOM     19  C   UNL     1      35.775 -22.577 -16.926  0.00  0.00    -0.000 C 
ATOM     20  C   UNL     1      33.517 -22.903 -17.566  0.00  0.00    +0.230 C 
ATOM     21  C   UNL     1      35.209 -23.599 -16.168  0.00  0.00    +0.047 C 
ATOM     22  C   UNL     1      37.092 -22.206 -16.728  0.00  0.00    -0.003 C 
ATOM     23  C   UNL     1      35.916 -24.291 -15.205  0.00  0.00    +0.014 C 
ATOM     24  C   UNL     1      37.831 -22.891 -15.758  0.00  0.00    -0.000 C 
ATOM     25  C   UNL     1      37.247 -23.924 -15.002  0.00  0.00    +0.001 C 
ATOM     26  H   UNL     1      33.283 -24.456 -16.146  0.00  0.00    +0.155 HD
ENDBRANCH  15  18
ENDBRANCH   2  15
TORSDOF 3
ENDMDL
MODEL 4
REMARK VINA RESULT:     -10.9      2.123      9.071
REMARK  Name = 1633
REMARK  3 active torsions:
REMARK  status: ('A' for Active; 'I' for Inactive)
REMARK    1  A    between atoms: C_1  and  N_8
REMARK    2  A    between atoms: C_2  and  C_15
REMARK    3  A    between atoms: C_15  and  C_18
REMARK                            x       y       z     vdW  Elec       q    Type
REMARK                         _______ _______ _______ _____ _____    ______ ____
ROOT
ATOM      1  C   UNL     1      34.339 -20.215 -20.757  0.00  0.00    +0.048 C 
ATOM      2  C   UNL     1      34.068 -22.226 -18.866  0.00  0.00    -0.021 C 
ATOM      3  C   UNL     1      35.463 -20.910 -20.311  0.00  0.00    +0.014 C 
ATOM      4  C   UNL     1      33.078 -20.531 -20.251  0.00  0.00    +0.014 C 
ATOM      5  C   UNL     1      35.327 -21.921 -19.361  0.00  0.00    -0.003 C 
ATOM      6  C   UNL     1      32.942 -21.543 -19.299  0.00  0.00    -0.003 C 
ENDROOT
BRANCH   1   8
ATOM      7  O   UNL     1      34.739 -16.210 -25.829  0.00  0.00    -0.265 OA
ATOM      8  N   UNL     1      34.473 -19.205 -21.707  0.00  0.00    -0.304 N 
ATOM      9  N   UNL     1      34.755 -17.118 -23.671  0.00  0.00    -0.269 N 
ATOM     10  C   UNL     1      34.944 -19.508 -23.063  0.00  0.00    +0.112 C 
ATOM     11  C   UNL     1      34.151 -17.813 -21.375  0.00  0.00    +0.112 C 
ATOM     12  C   UNL     1      34.416 -18.480 -24.062  0.00  0.00    +0.115 C 
ATOM     13  C   UNL     1      34.946 -16.849 -22.253  0.00  0.00    +0.115 C 
ATOM     14  C   UNL     1      34.881 -16.112 -24.615  0.00  0.00    +0.303 C 
ENDBRANCH   1   8
BRANCH   2  15
ATOM     15  C   UNL     1      33.921 -23.319 -17.839  0.00  0.00    +0.040 C 
BRANCH  15  18
ATOM     16  O   UNL     1      31.804 -23.483 -15.649  0.00  0.00    -0.274 OA
ATOM     17  N   UNL     1      33.739 -24.057 -14.447  0.00  0.00    -0.284 N 
ATOM     18  C   UNL     1      34.036 -22.785 -16.422  0.00  0.00    +0.105 C 
ATOM     19  C   UNL     1      35.343 -23.116 -15.760  0.00  0.00    -0.000 C 
ATOM     20  C   UNL     1      33.016 -23.469 -15.491  0.00  0.00    +0.230 C 
ATOM     21  C   UNL     1      35.105 -23.853 -14.602  0.00  0.00    +0.047 C 
ATOM     22  C   UNL     1      36.635 -22.785 -16.125  0.00  0.00    -0.003 C 
ATOM     23  C   UNL     1      36.120 -24.292 -13.776  0.00  0.00    +0.014 C 
ATOM     24  C   UNL     1      37.683 -23.218 -15.306  0.00  0.00    -0.000 C 
ATOM     25  C   UNL     1      37.427 -23.966 -14.141  0.00  0.00    +0.001 C 
ATOM     26  H   UNL     1      33.332 -24.552 -13.699  0.00  0.00    +0.155 HD
ENDBRANCH  15  18
ENDBRANCH   2  15
TORSDOF 3
ENDMDL
MODEL 5
REMARK VINA RESULT:     -10.6      6.160     12.108
REMARK  Name = 1633
REMARK  3 active torsions:
REMARK  status: ('A' for Active; 'I' for Inactive)
REMARK    1  A    between atoms: C_1  and  N_8
REMARK    2  A    between atoms: C_2  and  C_15
REMARK    3  A    between atoms: C_15  and  C_18
REMARK                            x       y       z     vdW  Elec       q    Type
REMARK                         _______ _______ _______ _____ _____    ______ ____
ROOT
ATOM      1  C   UNL     1      32.110 -10.564 -22.520  0.00  0.00    +0.048 C 
ATOM      2  C   UNL     1      32.514 -13.283 -22.152  0.00  0.00    -0.021 C 
ATOM      3  C   UNL     1      32.897 -11.281 -23.421  0.00  0.00    +0.014 C 
ATOM      4  C   UNL     1      31.526 -11.215 -21.432  0.00  0.00    +0.014 C 
ATOM      5  C   UNL     1      33.100 -12.648 -23.236  0.00  0.00    -0.003 C 
ATOM      6  C   UNL     1      31.730 -12.583 -21.247  0.00  0.00    -0.003 C 
ENDROOT
BRANCH   1   8
ATOM      7  O   UNL     1      31.704  -4.102 -22.567  0.00  0.00    -0.265 OA
ATOM      8  N   UNL     1      31.906  -9.198 -22.704  0.00  0.00    -0.304 N 
ATOM      9  N   UNL     1      31.482  -6.375 -23.083  0.00  0.00    -0.269 N 
ATOM     10  C   UNL     1      31.835  -8.289 -21.555  0.00  0.00    +0.112 C 
ATOM     11  C   UNL     1      31.755  -8.635 -24.050  0.00  0.00    +0.112 C 
ATOM     12  C   UNL     1      32.257  -6.877 -21.956  0.00  0.00    +0.115 C 
ATOM     13  C   UNL     1      30.929  -7.351 -24.010  0.00  0.00    +0.115 C 
ATOM     14  C   UNL     1      31.287  -5.016 -23.269  0.00  0.00    +0.303 C 
ENDBRANCH   1   8
BRANCH   2  15
ATOM     15  C   UNL     1      32.733 -14.761 -21.952  0.00  0.00    +0.040 C 
BRANCH  15  18
ATOM     16  O   UNL     1      34.866 -15.493 -19.899  0.00  0.00    -0.274 OA
ATOM     17  N   UNL     1      35.202 -17.168 -21.511  0.00  0.00    -0.284 N 
ATOM     18  C   UNL     1      34.168 -15.165 -22.237  0.00  0.00    +0.105 C 
ATOM     19  C   UNL     1      34.301 -16.168 -23.347  0.00  0.00    -0.000 C 
ATOM     20  C   UNL     1      34.777 -15.920 -21.040  0.00  0.00    +0.230 C 
ATOM     21  C   UNL     1      34.923 -17.317 -22.864  0.00  0.00    +0.047 C 
ATOM     22  C   UNL     1      33.927 -16.081 -24.676  0.00  0.00    -0.003 C 
ATOM     23  C   UNL     1      35.189 -18.412 -23.662  0.00  0.00    +0.014 C 
ATOM     24  C   UNL     1      34.185 -17.177 -25.506  0.00  0.00    -0.000 C 
ATOM     25  C   UNL     1      34.811 -18.332 -25.003  0.00  0.00    +0.001 C 
ATOM     26  H   UNL     1      35.641 -17.851 -20.955  0.00  0.00    +0.155 HD
ENDBRANCH  15  18
ENDBRANCH   2  15
TORSDOF 3
ENDMDL
MODEL 6
REMARK VINA RESULT:     -10.5      1.350      1.817
REMARK  Name = 1633
REMARK  3 active torsions:
REMARK  status: ('A' for Active; 'I' for Inactive)
REMARK    1  A    between atoms: C_1  and  N_8
REMARK    2  A    between atoms: C_2  and  C_15
REMARK    3  A    between atoms: C_15  and  C_18
REMARK                            x       y       z     vdW  Elec       q    Type
REMARK                         _______ _______ _______ _____ _____    ______ ____
ROOT
ATOM      1  C   UNL     1      35.026 -20.833 -19.762  0.00  0.00    +0.048 C 
ATOM      2  C   UNL     1      34.436 -19.390 -22.055  0.00  0.00    -0.021 C 
ATOM      3  C   UNL     1      36.056 -20.275 -20.519  0.00  0.00    +0.014 C 
ATOM      4  C   UNL     1      33.699 -20.667 -20.159  0.00  0.00    +0.014 C 
ATOM      5  C   UNL     1      35.759 -19.549 -21.672  0.00  0.00    -0.003 C 
ATOM      6  C   UNL     1      33.402 -19.941 -21.313  0.00  0.00    -0.003 C 
ENDROOT
BRANCH   1   8
ATOM      7  O   UNL     1      37.126 -23.561 -14.278  0.00  0.00    -0.265 OA
ATOM      8  N   UNL     1      35.322 -21.559 -18.609  0.00  0.00    -0.304 N 
ATOM      9  N   UNL     1      35.934 -23.059 -16.229  0.00  0.00    -0.269 N 
ATOM     10  C   UNL     1      36.703 -21.671 -18.127  0.00  0.00    +0.112 C 
ATOM     11  C   UNL     1      34.261 -22.230 -17.851  0.00  0.00    +0.112 C 
ATOM     12  C   UNL     1      36.731 -21.904 -16.618  0.00  0.00    +0.115 C 
ATOM     13  C   UNL     1      34.817 -23.430 -17.087  0.00  0.00    +0.115 C 
ATOM     14  C   UNL     1      36.223 -23.775 -15.079  0.00  0.00    +0.303 C 
ENDBRANCH   1   8
BRANCH   2  15
ATOM     15  C   UNL     1      34.116 -18.604 -23.302  0.00  0.00    +0.040 C 
BRANCH  15  18
ATOM     16  O   UNL     1      35.048 -16.996 -25.720  0.00  0.00    -0.274 OA
ATOM     17  N   UNL     1      33.969 -15.331 -24.462  0.00  0.00    -0.284 N 
ATOM     18  C   UNL     1      34.758 -17.229 -23.285  0.00  0.00    +0.105 C 
ATOM     19  C   UNL     1      34.062 -16.252 -22.381  0.00  0.00    -0.000 C 
ATOM     20  C   UNL     1      34.634 -16.546 -24.661  0.00  0.00    +0.230 C 
ATOM     21  C   UNL     1      33.632 -15.156 -23.125  0.00  0.00    +0.047 C 
ATOM     22  C   UNL     1      33.838 -16.303 -21.018  0.00  0.00    -0.003 C 
ATOM     23  C   UNL     1      32.965 -14.087 -22.559  0.00  0.00    +0.014 C 
ATOM     24  C   UNL     1      33.165 -15.233 -20.419  0.00  0.00    -0.000 C 
ATOM     25  C   UNL     1      32.733 -14.134 -21.184  0.00  0.00    +0.001 C 
ATOM     26  H   UNL     1      33.768 -14.684 -25.175  0.00  0.00    +0.155 HD
ENDBRANCH  15  18
ENDBRANCH   2  15
TORSDOF 3
ENDMDL
MODEL 7
REMARK VINA RESULT:     -10.1      2.475      3.930
REMARK  Name = 1633
REMARK  3 active torsions:
REMARK  status: ('A' for Active; 'I' for Inactive)
REMARK    1  A    between atoms: C_1  and  N_8
REMARK    2  A    between atoms: C_2  and  C_15
REMARK    3  A    between atoms: C_15  and  C_18
REMARK                            x       y       z     vdW  Elec       q    Type
REMARK                         _______ _______ _______ _____ _____    ______ ____
ROOT
ATOM      1  C   UNL     1      34.864 -19.807 -20.610  0.00  0.00    +0.048 C 
ATOM      2  C   UNL     1      35.022 -17.780 -22.497  0.00  0.00    -0.021 C 
ATOM      3  C   UNL     1      36.110 -19.341 -21.032  0.00  0.00    +0.014 C 
ATOM      4  C   UNL     1      33.697 -19.254 -21.139  0.00  0.00    +0.014 C 
ATOM      5  C   UNL     1      36.189 -18.322 -21.980  0.00  0.00    -0.003 C 
ATOM      6  C   UNL     1      33.777 -18.235 -22.089  0.00  0.00    -0.003 C 
ENDROOT
BRANCH   1   8
ATOM      7  O   UNL     1      35.315 -24.157 -15.836  0.00  0.00    -0.265 OA
ATOM      8  N   UNL     1      34.784 -20.825 -19.662  0.00  0.00    -0.304 N 
ATOM      9  N   UNL     1      34.620 -22.931 -17.705  0.00  0.00    -0.269 N 
ATOM     10  C   UNL     1      35.999 -21.406 -19.081  0.00  0.00    +0.112 C 
ATOM     11  C   UNL     1      33.484 -21.343 -19.224  0.00  0.00    +0.112 C 
ATOM     12  C   UNL     1      35.716 -21.972 -17.691  0.00  0.00    +0.115 C 
ATOM     13  C   UNL     1      33.611 -22.788 -18.745  0.00  0.00    +0.115 C 
ATOM     14  C   UNL     1      34.537 -23.938 -16.758  0.00  0.00    +0.303 C 
ENDBRANCH   1   8
BRANCH   2  15
ATOM     15  C   UNL     1      35.108 -16.678 -23.522  0.00  0.00    +0.040 C 
BRANCH  15  18
ATOM     16  O   UNL     1      34.641 -14.744 -21.210  0.00  0.00    -0.274 OA
ATOM     17  N   UNL     1      34.209 -13.353 -23.053  0.00  0.00    -0.284 N 
ATOM     18  C   UNL     1      33.967 -15.685 -23.384  0.00  0.00    +0.105 C 
ATOM     19  C   UNL     1      33.695 -14.905 -24.638  0.00  0.00    -0.000 C 
ATOM     20  C   UNL     1      34.323 -14.573 -22.378  0.00  0.00    +0.230 C 
ATOM     21  C   UNL     1      33.841 -13.544 -24.380  0.00  0.00    +0.047 C 
ATOM     22  C   UNL     1      33.330 -15.343 -25.898  0.00  0.00    -0.003 C 
ATOM     23  C   UNL     1      33.644 -12.577 -25.345  0.00  0.00    +0.014 C 
ATOM     24  C   UNL     1      33.123 -14.384 -26.895  0.00  0.00    -0.000 C 
ATOM     25  C   UNL     1      33.279 -13.013 -26.620  0.00  0.00    +0.001 C 
ATOM     26  H   UNL     1      34.368 -12.473 -22.642  0.00  0.00    +0.155 HD
ENDBRANCH  15  18
ENDBRANCH   2  15
TORSDOF 3
ENDMDL
MODEL 8
REMARK VINA RESULT:      -9.9      7.809     12.338
REMARK  Name = 1633
REMARK  3 active torsions:
REMARK  status: ('A' for Active; 'I' for Inactive)
REMARK    1  A    between atoms: C_1  and  N_8
REMARK    2  A    between atoms: C_2  and  C_15
REMARK    3  A    between atoms: C_15  and  C_18
REMARK                            x       y       z     vdW  Elec       q    Type
REMARK                         _______ _______ _______ _____ _____    ______ ____
ROOT
ATOM      1  C   UNL     1      33.696 -11.829 -24.041  0.00  0.00    +0.048 C 
ATOM      2  C   UNL     1      33.627  -9.143 -23.356  0.00  0.00    -0.021 C 
ATOM      3  C   UNL     1      32.744 -11.365 -23.133  0.00  0.00    +0.014 C 
ATOM      4  C   UNL     1      34.614 -10.942 -24.604  0.00  0.00    +0.014 C 
ATOM      5  C   UNL     1      32.709 -10.014 -22.789  0.00  0.00    -0.003 C 
ATOM      6  C   UNL     1      34.579  -9.591 -24.259  0.00  0.00    -0.003 C 
ENDROOT
BRANCH   1   8
ATOM      7  O   UNL     1      33.908 -18.269 -24.680  0.00  0.00    -0.265 OA
ATOM      8  N   UNL     1      33.731 -13.179 -24.386  0.00  0.00    -0.304 N 
ATOM      9  N   UNL     1      33.808 -15.968 -25.098  0.00  0.00    -0.269 N 
ATOM     10  C   UNL     1      34.463 -14.145 -23.559  0.00  0.00    +0.112 C 
ATOM     11  C   UNL     1      33.041 -13.667 -25.584  0.00  0.00    +0.112 C 
ATOM     12  C   UNL     1      33.866 -15.544 -23.706  0.00  0.00    +0.115 C 
ATOM     13  C   UNL     1      33.709 -14.933 -26.117  0.00  0.00    +0.115 C 
ATOM     14  C   UNL     1      33.835 -17.310 -25.440  0.00  0.00    +0.303 C 
ENDBRANCH   1   8
BRANCH   2  15
ATOM     15  C   UNL     1      33.589  -7.682 -22.985  0.00  0.00    +0.040 C 
BRANCH  15  18
ATOM     16  O   UNL     1      31.976  -7.434 -20.408  0.00  0.00    -0.274 OA
ATOM     17  N   UNL     1      31.477  -5.388 -21.448  0.00  0.00    -0.284 N 
ATOM     18  C   UNL     1      32.166  -7.169 -22.848  0.00  0.00    +0.105 C 
ATOM     19  C   UNL     1      31.906  -5.909 -23.623  0.00  0.00    -0.000 C 
ATOM     20  C   UNL     1      31.875  -6.729 -21.401  0.00  0.00    +0.230 C 
ATOM     21  C   UNL     1      31.495  -4.904 -22.751  0.00  0.00    +0.047 C 
ATOM     22  C   UNL     1      32.000  -5.662 -24.980  0.00  0.00    -0.003 C 
ATOM     23  C   UNL     1      31.173  -3.631 -23.179  0.00  0.00    +0.014 C 
ATOM     24  C   UNL     1      31.680  -4.380 -25.441  0.00  0.00    -0.000 C 
ATOM     25  C   UNL     1      31.271  -3.374 -24.547  0.00  0.00    +0.001 C 
ATOM     26  H   UNL     1      31.217  -4.857 -20.661  0.00  0.00    +0.155 HD
ENDBRANCH  15  18
ENDBRANCH   2  15
TORSDOF 3
ENDMDL
MODEL 9
REMARK VINA RESULT:      -9.8      7.733     12.564
REMARK  Name = 1633
REMARK  3 active torsions:
REMARK  status: ('A' for Active; 'I' for Inactive)
REMARK    1  A    between atoms: C_1  and  N_8
REMARK    2  A    between atoms: C_2  and  C_15
REMARK    3  A    between atoms: C_15  and  C_18
REMARK                            x       y       z     vdW  Elec       q    Type
REMARK                         _______ _______ _______ _____ _____    ______ ____
ROOT
ATOM      1  C   UNL     1      33.732 -11.502 -23.879  0.00  0.00    +0.048 C 
ATOM      2  C   UNL     1      33.649  -8.764 -23.440  0.00  0.00    -0.021 C 
ATOM      3  C   UNL     1      34.678 -10.670 -24.478  0.00  0.00    +0.014 C 
ATOM      4  C   UNL     1      32.743 -10.956 -23.060  0.00  0.00    +0.014 C 
ATOM      5  C   UNL     1      34.637  -9.294 -24.256  0.00  0.00    -0.003 C 
ATOM      6  C   UNL     1      32.701  -9.579 -22.839  0.00  0.00    -0.003 C 
ENDROOT
BRANCH   1   8
ATOM      7  O   UNL     1      34.047 -17.663 -25.844  0.00  0.00    -0.265 OA
ATOM      8  N   UNL     1      33.773 -12.877 -24.099  0.00  0.00    -0.304 N 
ATOM      9  N   UNL     1      33.854 -15.720 -24.554  0.00  0.00    -0.269 N 
ATOM     10  C   UNL     1      33.283 -13.450 -25.358  0.00  0.00    +0.112 C 
ATOM     11  C   UNL     1      34.303 -13.786 -23.078  0.00  0.00    +0.112 C 
ATOM     12  C   UNL     1      33.982 -14.776 -25.656  0.00  0.00    +0.115 C 
ATOM     13  C   UNL     1      33.683 -15.176 -23.214  0.00  0.00    +0.115 C 
ATOM     14  C   UNL     1      33.902 -17.086 -24.772  0.00  0.00    +0.303 C 
ENDBRANCH   1   8
BRANCH   2  15
ATOM     15  C   UNL     1      33.605  -7.277 -23.200  0.00  0.00    +0.040 C 
BRANCH  15  18
ATOM     16  O   UNL     1      31.828  -6.974 -20.741  0.00  0.00    -0.274 OA
ATOM     17  N   UNL     1      31.417  -4.941 -21.844  0.00  0.00    -0.284 N 
ATOM     18  C   UNL     1      32.181  -6.750 -23.167  0.00  0.00    +0.105 C 
ATOM     19  C   UNL     1      31.985  -5.500 -23.977  0.00  0.00    -0.000 C 
ATOM     20  C   UNL     1      31.799  -6.284 -21.749  0.00  0.00    +0.230 C 
ATOM     21  C   UNL     1      31.526  -4.478 -23.150  0.00  0.00    +0.047 C 
ATOM     22  C   UNL     1      32.171  -5.276 -25.329  0.00  0.00    -0.003 C 
ATOM     23  C   UNL     1      31.246  -3.210 -23.619  0.00  0.00    +0.014 C 
ATOM     24  C   UNL     1      31.895  -4.000 -25.830  0.00  0.00    -0.000 C 
ATOM     25  C   UNL     1      31.436  -2.976 -24.981  0.00  0.00    +0.001 C 
ATOM     26  H   UNL     1      31.111  -4.395 -21.084  0.00  0.00    +0.155 HD
ENDBRANCH  15  18
ENDBRANCH   2  15
TORSDOF 3
ENDMDL
