MODEL 1
REMARK VINA RESULT:      -9.7      0.000      0.000
REMARK  Name = 12818200
REMARK  4 active torsions:
REMARK  status: ('A' for Active; 'I' for Inactive)
REMARK    1  A    between atoms: N_2  and  C_11
REMARK    2  A    between atoms: N_3  and  S_19
REMARK    3  A    between atoms: C_10  and  O_17
REMARK    4  A    between atoms: S_19  and  C_22
REMARK                            x       y       z     vdW  Elec       q    Type
REMARK                         _______ _______ _______ _____ _____    ______ ____
ROOT
ATOM      1  O   UNL     1      33.621 -23.744 -16.066  0.00  0.00    -0.251 OA
ATOM      2  N   UNL     1      35.756 -22.987 -15.604  0.00  0.00    -0.287 N 
ATOM      3  N   UNL     1      34.785 -22.543 -17.697  0.00  0.00    -0.169 N 
ATOM      4  C   UNL     1      34.637 -23.147 -16.407  0.00  0.00    +0.319 C 
ATOM      5  H   UNL     1      36.526 -22.491 -15.969  0.00  0.00    +0.151 HD
ATOM      6  H   UNL     1      35.637 -22.087 -17.887  0.00  0.00    +0.178 HD
ENDROOT
BRANCH   2  11
ATOM      7  C   UNL     1      37.748 -24.164 -12.897  0.00  0.00    +0.026 C 
ATOM      8  C   UNL     1      36.616 -25.222 -12.717  0.00  0.00    +0.004 C 
ATOM      9  C   UNL     1      36.155 -25.031 -14.192  0.00  0.00    +0.021 C 
ATOM     10  C   UNL     1      36.962 -22.902 -13.380  0.00  0.00    +0.128 C 
ATOM     11  C   UNL     1      35.851 -23.509 -14.272  0.00  0.00    +0.100 C 
ATOM     12  C   UNL     1      38.549 -24.727 -14.103  0.00  0.00    +0.002 C 
ATOM     13  C   UNL     1      37.447 -25.316 -14.997  0.00  0.00    +0.002 C 
ATOM     14  C   UNL     1      38.631 -23.889 -11.693  0.00  0.00    +0.002 C 
ATOM     15  C   UNL     1      35.544 -24.881 -11.661  0.00  0.00    +0.000 C 
ATOM     16  C   UNL     1      37.088 -26.653 -12.385  0.00  0.00    +0.000 C 
BRANCH  10  17
ATOM     17  O   UNL     1      37.776 -21.934 -14.017  0.00  0.00    -0.383 OA
ATOM     18  H   UNL     1      38.435 -21.601 -13.388  0.00  0.00    +0.210 HD
ENDBRANCH  10  17
ENDBRANCH   2  11
BRANCH   3  19
ATOM     19  S   UNL     1      33.605 -22.549 -18.933  0.00  0.00    +0.077 S 
ATOM     20  O   UNL     1      33.791 -23.719 -19.770  0.00  0.00    -0.150 OA
ATOM     21  O   UNL     1      32.307 -22.257 -18.356  0.00  0.00    -0.150 OA
BRANCH  19  22
ATOM     22  C   UNL     1      34.083 -21.124 -19.864  0.00  0.00    +0.125 C 
ATOM     23  C   UNL     1      33.103 -20.286 -20.368  0.00  0.00    +0.020 C 
ATOM     24  C   UNL     1      35.428 -20.872 -20.071  0.00  0.00    +0.020 C 
ATOM     25  C   UNL     1      33.481 -19.161 -21.100  0.00  0.00    -0.003 C 
ATOM     26  C   UNL     1      35.805 -19.747 -20.804  0.00  0.00    -0.003 C 
ATOM     27  C   UNL     1      34.832 -18.891 -21.318  0.00  0.00    -0.022 C 
ATOM     28  C   UNL     1      35.235 -17.688 -22.103  0.00  0.00    +0.031 C 
ENDBRANCH  19  22
ENDBRANCH   3  19
TORSDOF 4
ENDMDL
MODEL 2
REMARK VINA RESULT:      -9.4      1.019      1.620
REMARK  Name = 12818200
REMARK  4 active torsions:
REMARK  status: ('A' for Active; 'I' for Inactive)
REMARK    1  A    between atoms: N_2  and  C_11
REMARK    2  A    between atoms: N_3  and  S_19
REMARK    3  A    between atoms: C_10  and  O_17
REMARK    4  A    between atoms: S_19  and  C_22
REMARK                            x       y       z     vdW  Elec       q    Type
REMARK                         _______ _______ _______ _____ _____    ______ ____
ROOT
ATOM      1  O   UNL     1      34.244 -22.867 -15.888  0.00  0.00    -0.251 OA
ATOM      2  N   UNL     1      36.549 -22.807 -16.057  0.00  0.00    -0.287 N 
ATOM      3  N   UNL     1      35.228 -22.616 -17.991  0.00  0.00    -0.169 N 
ATOM      4  C   UNL     1      35.260 -22.772 -16.568  0.00  0.00    +0.319 C 
ATOM      5  H   UNL     1      37.303 -22.723 -16.686  0.00  0.00    +0.151 HD
ATOM      6  H   UNL     1      36.093 -22.551 -18.458  0.00  0.00    +0.178 HD
ENDROOT
BRANCH   2  11
ATOM      7  C   UNL     1      37.646 -24.848 -13.353  0.00  0.00    +0.026 C 
ATOM      8  C   UNL     1      36.517 -24.132 -12.548  0.00  0.00    +0.004 C 
ATOM      9  C   UNL     1      35.769 -23.758 -13.862  0.00  0.00    +0.021 C 
ATOM     10  C   UNL     1      38.143 -23.722 -14.317  0.00  0.00    +0.128 C 
ATOM     11  C   UNL     1      36.839 -22.962 -14.661  0.00  0.00    +0.100 C 
ATOM     12  C   UNL     1      36.856 -25.890 -14.191  0.00  0.00    +0.002 C 
ATOM     13  C   UNL     1      35.566 -25.133 -14.547  0.00  0.00    +0.002 C 
ATOM     14  C   UNL     1      38.768 -25.482 -12.550  0.00  0.00    +0.002 C 
ATOM     15  C   UNL     1      36.964 -22.924 -11.699  0.00  0.00    +0.000 C 
ATOM     16  C   UNL     1      35.703 -25.034 -11.595  0.00  0.00    +0.000 C 
BRANCH  10  17
ATOM     17  O   UNL     1      38.863 -24.208 -15.435  0.00  0.00    -0.383 OA
ATOM     18  H   UNL     1      39.715 -23.749 -15.497  0.00  0.00    +0.210 HD
ENDBRANCH  10  17
ENDBRANCH   2  11
BRANCH   3  19
ATOM     19  S   UNL     1      33.813 -22.533 -18.946  0.00  0.00    +0.077 S 
ATOM     20  O   UNL     1      33.782 -23.660 -19.858  0.00  0.00    -0.150 OA
ATOM     21  O   UNL     1      32.677 -22.246 -18.092  0.00  0.00    -0.150 OA
BRANCH  19  22
ATOM     22  C   UNL     1      34.126 -21.070 -19.888  0.00  0.00    +0.125 C 
ATOM     23  C   UNL     1      35.433 -20.719 -20.177  0.00  0.00    +0.020 C 
ATOM     24  C   UNL     1      33.058 -20.303 -20.320  0.00  0.00    +0.020 C 
ATOM     25  C   UNL     1      35.679 -19.566 -20.921  0.00  0.00    -0.003 C 
ATOM     26  C   UNL     1      33.304 -19.150 -21.064  0.00  0.00    -0.003 C 
ATOM     27  C   UNL     1      34.615 -18.781 -21.366  0.00  0.00    -0.022 C 
ATOM     28  C   UNL     1      34.879 -17.547 -22.161  0.00  0.00    +0.031 C 
ENDBRANCH  19  22
ENDBRANCH   3  19
TORSDOF 4
ENDMDL
MODEL 3
REMARK VINA RESULT:      -8.7      4.101      5.415
REMARK  Name = 12818200
REMARK  4 active torsions:
REMARK  status: ('A' for Active; 'I' for Inactive)
REMARK    1  A    between atoms: N_2  and  C_11
REMARK    2  A    between atoms: N_3  and  S_19
REMARK    3  A    between atoms: C_10  and  O_17
REMARK    4  A    between atoms: S_19  and  C_22
REMARK                            x       y       z     vdW  Elec       q    Type
REMARK                         _______ _______ _______ _____ _____    ______ ____
ROOT
ATOM      1  O   UNL     1      33.894 -23.967 -17.869  0.00  0.00    -0.251 OA
ATOM      2  N   UNL     1      32.026 -22.645 -17.545  0.00  0.00    -0.287 N 
ATOM      3  N   UNL     1      33.878 -21.788 -18.708  0.00  0.00    -0.169 N 
ATOM      4  C   UNL     1      33.303 -22.903 -18.019  0.00  0.00    +0.319 C 
ATOM      5  H   UNL     1      31.634 -21.757 -17.715  0.00  0.00    +0.151 HD
ATOM      6  H   UNL     1      33.333 -20.971 -18.779  0.00  0.00    +0.178 HD
ENDROOT
BRANCH   2  11
ATOM      7  C   UNL     1      29.534 -23.368 -15.105  0.00  0.00    +0.026 C 
ATOM      8  C   UNL     1      30.478 -24.544 -14.704  0.00  0.00    +0.004 C 
ATOM      9  C   UNL     1      31.702 -23.827 -15.347  0.00  0.00    +0.021 C 
ATOM     10  C   UNL     1      29.743 -23.276 -16.652  0.00  0.00    +0.128 C 
ATOM     11  C   UNL     1      31.247 -23.604 -16.817  0.00  0.00    +0.100 C 
ATOM     12  C   UNL     1      30.223 -22.141 -14.449  0.00  0.00    +0.002 C 
ATOM     13  C   UNL     1      31.718 -22.456 -14.625  0.00  0.00    +0.002 C 
ATOM     14  C   UNL     1      28.074 -23.492 -14.709  0.00  0.00    +0.002 C 
ATOM     15  C   UNL     1      30.140 -25.915 -15.324  0.00  0.00    +0.000 C 
ATOM     16  C   UNL     1      30.621 -24.795 -13.188  0.00  0.00    +0.000 C 
BRANCH  10  17
ATOM     17  O   UNL     1      29.338 -22.039 -17.208  0.00  0.00    -0.383 OA
ATOM     18  H   UNL     1      29.833 -21.875 -18.026  0.00  0.00    +0.210 HD
ENDBRANCH  10  17
ENDBRANCH   2  11
BRANCH   3  19
ATOM     19  S   UNL     1      35.432 -21.758 -19.419  0.00  0.00    +0.077 S 
ATOM     20  O   UNL     1      36.429 -21.549 -18.387  0.00  0.00    -0.150 OA
ATOM     21  O   UNL     1      35.555 -22.867 -20.346  0.00  0.00    -0.150 OA
BRANCH  19  22
ATOM     22  C   UNL     1      35.331 -20.287 -20.393  0.00  0.00    +0.125 C 
ATOM     23  C   UNL     1      36.498 -19.649 -20.780  0.00  0.00    +0.020 C 
ATOM     24  C   UNL     1      34.086 -19.799 -20.753  0.00  0.00    +0.020 C 
ATOM     25  C   UNL     1      36.417 -18.490 -21.549  0.00  0.00    -0.003 C 
ATOM     26  C   UNL     1      34.006 -18.639 -21.523  0.00  0.00    -0.003 C 
ATOM     27  C   UNL     1      35.172 -17.984 -21.922  0.00  0.00    -0.022 C 
ATOM     28  C   UNL     1      35.086 -16.743 -22.745  0.00  0.00    +0.031 C 
ENDBRANCH  19  22
ENDBRANCH   3  19
TORSDOF 4
ENDMDL
MODEL 4
REMARK VINA RESULT:      -8.1      4.413      5.433
REMARK  Name = 12818200
REMARK  4 active torsions:
REMARK  status: ('A' for Active; 'I' for Inactive)
REMARK    1  A    between atoms: N_2  and  C_11
REMARK    2  A    between atoms: N_3  and  S_19
REMARK    3  A    between atoms: C_10  and  O_17
REMARK    4  A    between atoms: S_19  and  C_22
REMARK                            x       y       z     vdW  Elec       q    Type
REMARK                         _______ _______ _______ _____ _____    ______ ____
ROOT
ATOM      1  O   UNL     1      33.196 -24.573 -12.848  0.00  0.00    -0.251 OA
ATOM      2  N   UNL     1      34.215 -23.579 -14.670  0.00  0.00    -0.287 N 
ATOM      3  N   UNL     1      31.941 -24.160 -14.775  0.00  0.00    -0.169 N 
ATOM      4  C   UNL     1      33.141 -24.137 -13.994  0.00  0.00    +0.319 C 
ATOM      5  H   UNL     1      34.072 -23.256 -15.590  0.00  0.00    +0.151 HD
ATOM      6  H   UNL     1      31.989 -23.792 -15.687  0.00  0.00    +0.178 HD
ENDROOT
BRANCH   2  11
ATOM      7  C   UNL     1      37.699 -24.312 -14.771  0.00  0.00    +0.026 C 
ATOM      8  C   UNL     1      37.562 -24.461 -13.223  0.00  0.00    +0.004 C 
ATOM      9  C   UNL     1      36.031 -24.714 -13.348  0.00  0.00    +0.021 C 
ATOM     10  C   UNL     1      36.678 -23.174 -15.096  0.00  0.00    +0.128 C 
ATOM     11  C   UNL     1      35.525 -23.451 -14.100  0.00  0.00    +0.100 C 
ATOM     12  C   UNL     1      37.113 -25.653 -15.293  0.00  0.00    +0.002 C 
ATOM     13  C   UNL     1      35.958 -25.923 -14.315  0.00  0.00    +0.002 C 
ATOM     14  C   UNL     1      39.089 -24.037 -15.316  0.00  0.00    +0.002 C 
ATOM     15  C   UNL     1      37.941 -23.215 -12.397  0.00  0.00    +0.000 C 
ATOM     16  C   UNL     1      38.345 -25.633 -12.595  0.00  0.00    +0.000 C 
BRANCH  10  17
ATOM     17  O   UNL     1      36.291 -23.128 -16.457  0.00  0.00    -0.383 OA
ATOM     18  H   UNL     1      36.270 -22.206 -16.756  0.00  0.00    +0.210 HD
ENDBRANCH  10  17
ENDBRANCH   2  11
BRANCH   3  19
ATOM     19  S   UNL     1      30.434 -24.775 -14.254  0.00  0.00    +0.077 S 
ATOM     20  O   UNL     1      30.332 -26.174 -14.622  0.00  0.00    -0.150 OA
ATOM     21  O   UNL     1      30.192 -24.354 -12.887  0.00  0.00    -0.150 OA
BRANCH  19  22
ATOM     22  C   UNL     1      29.322 -23.855 -15.276  0.00  0.00    +0.125 C 
ATOM     23  C   UNL     1      28.875 -24.412 -16.461  0.00  0.00    +0.020 C 
ATOM     24  C   UNL     1      28.919 -22.594 -14.871  0.00  0.00    +0.020 C 
ATOM     25  C   UNL     1      27.997 -23.686 -17.265  0.00  0.00    -0.003 C 
ATOM     26  C   UNL     1      28.041 -21.869 -15.676  0.00  0.00    -0.003 C 
ATOM     27  C   UNL     1      27.580 -22.415 -16.873  0.00  0.00    -0.022 C 
ATOM     28  C   UNL     1      26.641 -21.639 -17.735  0.00  0.00    +0.031 C 
ENDBRANCH  19  22
ENDBRANCH   3  19
TORSDOF 4
ENDMDL
MODEL 5
REMARK VINA RESULT:      -7.9      2.394      9.087
REMARK  Name = 12818200
REMARK  4 active torsions:
REMARK  status: ('A' for Active; 'I' for Inactive)
REMARK    1  A    between atoms: N_2  and  C_11
REMARK    2  A    between atoms: N_3  and  S_19
REMARK    3  A    between atoms: C_10  and  O_17
REMARK    4  A    between atoms: S_19  and  C_22
REMARK                            x       y       z     vdW  Elec       q    Type
REMARK                         _______ _______ _______ _____ _____    ______ ____
ROOT
ATOM      1  O   UNL     1      32.327 -20.480 -19.764  0.00  0.00    -0.251 OA
ATOM      2  N   UNL     1      34.357 -19.739 -20.588  0.00  0.00    -0.287 N 
ATOM      3  N   UNL     1      34.256 -21.730 -19.344  0.00  0.00    -0.169 N 
ATOM      4  C   UNL     1      33.538 -20.621 -19.898  0.00  0.00    +0.319 C 
ATOM      5  H   UNL     1      35.320 -19.939 -20.640  0.00  0.00    +0.151 HD
ATOM      6  H   UNL     1      35.228 -21.762 -19.498  0.00  0.00    +0.178 HD
ENDROOT
BRANCH   2  11
ATOM      7  C   UNL     1      34.679 -17.260 -23.124  0.00  0.00    +0.026 C 
ATOM      8  C   UNL     1      34.228 -16.269 -22.006  0.00  0.00    +0.004 C 
ATOM      9  C   UNL     1      34.679 -17.263 -20.896  0.00  0.00    +0.021 C 
ATOM     10  C   UNL     1      33.878 -18.556 -22.774  0.00  0.00    +0.128 C 
ATOM     11  C   UNL     1      33.872 -18.549 -21.226  0.00  0.00    +0.100 C 
ATOM     12  C   UNL     1      36.173 -17.505 -22.778  0.00  0.00    +0.002 C 
ATOM     13  C   UNL     1      36.168 -17.515 -21.241  0.00  0.00    +0.002 C 
ATOM     14  C   UNL     1      34.484 -16.812 -24.562  0.00  0.00    +0.002 C 
ATOM     15  C   UNL     1      32.725 -15.923 -21.986  0.00  0.00    +0.000 C 
ATOM     16  C   UNL     1      34.969 -14.915 -21.979  0.00  0.00    +0.000 C 
BRANCH  10  17
ATOM     17  O   UNL     1      34.407 -19.729 -23.363  0.00  0.00    -0.383 OA
ATOM     18  H   UNL     1      33.681 -20.302 -23.654  0.00  0.00    +0.210 HD
ENDBRANCH  10  17
ENDBRANCH   2  11
BRANCH   3  19
ATOM     19  S   UNL     1      33.563 -23.003 -18.438  0.00  0.00    +0.077 S 
ATOM     20  O   UNL     1      32.238 -22.611 -17.994  0.00  0.00    -0.150 OA
ATOM     21  O   UNL     1      33.762 -24.255 -19.142  0.00  0.00    -0.150 OA
BRANCH  19  22
ATOM     22  C   UNL     1      34.629 -23.034 -17.028  0.00  0.00    +0.125 C 
ATOM     23  C   UNL     1      35.869 -22.422 -17.105  0.00  0.00    +0.020 C 
ATOM     24  C   UNL     1      34.204 -23.667 -15.873  0.00  0.00    +0.020 C 
ATOM     25  C   UNL     1      36.708 -22.445 -15.992  0.00  0.00    -0.003 C 
ATOM     26  C   UNL     1      35.045 -23.690 -14.761  0.00  0.00    -0.003 C 
ATOM     27  C   UNL     1      36.297 -23.079 -14.820  0.00  0.00    -0.022 C 
ATOM     28  C   UNL     1      37.196 -23.104 -13.630  0.00  0.00    +0.031 C 
ENDBRANCH  19  22
ENDBRANCH   3  19
TORSDOF 4
ENDMDL
MODEL 6
REMARK VINA RESULT:      -7.6      9.880     14.923
REMARK  Name = 12818200
REMARK  4 active torsions:
REMARK  status: ('A' for Active; 'I' for Inactive)
REMARK    1  A    between atoms: N_2  and  C_11
REMARK    2  A    between atoms: N_3  and  S_19
REMARK    3  A    between atoms: C_10  and  O_17
REMARK    4  A    between atoms: S_19  and  C_22
REMARK                            x       y       z     vdW  Elec       q    Type
REMARK                         _______ _______ _______ _____ _____    ______ ____
ROOT
ATOM      1  O   UNL     1      34.541 -11.720 -25.281  0.00  0.00    -0.251 OA
ATOM      2  N   UNL     1      32.923 -11.169 -23.724  0.00  0.00    -0.287 N 
ATOM      3  N   UNL     1      32.810 -13.228 -24.851  0.00  0.00    -0.169 N 
ATOM      4  C   UNL     1      33.518 -11.997 -24.664  0.00  0.00    +0.319 C 
ATOM      5  H   UNL     1      32.100 -11.481 -23.281  0.00  0.00    +0.151 HD
ATOM      6  H   UNL     1      31.995 -13.366 -24.316  0.00  0.00    +0.178 HD
ENDROOT
BRANCH   2  11
ATOM      7  C   UNL     1      32.407  -7.905 -22.396  0.00  0.00    +0.026 C 
ATOM      8  C   UNL     1      33.375  -7.450 -23.532  0.00  0.00    +0.004 C 
ATOM      9  C   UNL     1      33.071  -8.738 -24.354  0.00  0.00    +0.021 C 
ATOM     10  C   UNL     1      32.973  -9.310 -22.007  0.00  0.00    +0.128 C 
ATOM     11  C   UNL     1      33.442  -9.881 -23.368  0.00  0.00    +0.100 C 
ATOM     12  C   UNL     1      31.068  -8.116 -23.156  0.00  0.00    +0.002 C 
ATOM     13  C   UNL     1      31.530  -8.697 -24.502  0.00  0.00    +0.002 C 
ATOM     14  C   UNL     1      32.257  -6.975 -21.206  0.00  0.00    +0.002 C 
ATOM     15  C   UNL     1      34.853  -7.284 -23.124  0.00  0.00    +0.000 C 
ATOM     16  C   UNL     1      32.990  -6.139 -24.250  0.00  0.00    +0.000 C 
BRANCH  10  17
ATOM     17  O   UNL     1      32.050 -10.122 -21.307  0.00  0.00    -0.383 OA
ATOM     18  H   UNL     1      32.504 -10.576 -20.580  0.00  0.00    +0.210 HD
ENDBRANCH  10  17
ENDBRANCH   2  11
BRANCH   3  19
ATOM     19  S   UNL     1      33.263 -14.475 -25.928  0.00  0.00    +0.077 S 
ATOM     20  O   UNL     1      32.070 -15.100 -26.469  0.00  0.00    -0.150 OA
ATOM     21  O   UNL     1      34.304 -13.989 -26.813  0.00  0.00    -0.150 OA
BRANCH  19  22
ATOM     22  C   UNL     1      34.028 -15.619 -24.818  0.00  0.00    +0.125 C 
ATOM     23  C   UNL     1      34.330 -16.895 -25.263  0.00  0.00    +0.020 C 
ATOM     24  C   UNL     1      34.313 -15.217 -23.525  0.00  0.00    +0.020 C 
ATOM     25  C   UNL     1      34.935 -17.795 -24.388  0.00  0.00    -0.003 C 
ATOM     26  C   UNL     1      34.919 -16.119 -22.650  0.00  0.00    -0.003 C 
ATOM     27  C   UNL     1      35.230 -17.408 -23.081  0.00  0.00    -0.022 C 
ATOM     28  C   UNL     1      35.877 -18.372 -22.145  0.00  0.00    +0.031 C 
ENDBRANCH  19  22
ENDBRANCH   3  19
TORSDOF 4
ENDMDL
MODEL 7
REMARK VINA RESULT:      -7.6      8.086     11.194
REMARK  Name = 12818200
REMARK  4 active torsions:
REMARK  status: ('A' for Active; 'I' for Inactive)
REMARK    1  A    between atoms: N_2  and  C_11
REMARK    2  A    between atoms: N_3  and  S_19
REMARK    3  A    between atoms: C_10  and  O_17
REMARK    4  A    between atoms: S_19  and  C_22
REMARK                            x       y       z     vdW  Elec       q    Type
REMARK                         _______ _______ _______ _____ _____    ______ ____
ROOT
ATOM      1  O   UNL     1      31.991 -14.506 -20.306  0.00  0.00    -0.251 OA
ATOM      2  N   UNL     1      33.163 -15.131 -22.199  0.00  0.00    -0.287 N 
ATOM      3  N   UNL     1      32.399 -12.920 -21.972  0.00  0.00    -0.169 N 
ATOM      4  C   UNL     1      32.482 -14.229 -21.396  0.00  0.00    +0.319 C 
ATOM      5  H   UNL     1      33.521 -14.812 -23.060  0.00  0.00    +0.151 HD
ATOM      6  H   UNL     1      32.819 -12.788 -22.853  0.00  0.00    +0.178 HD
ENDROOT
BRANCH   2  11
ATOM      7  C   UNL     1      35.382 -17.850 -21.596  0.00  0.00    +0.026 C 
ATOM      8  C   UNL     1      34.300 -18.703 -22.329  0.00  0.00    +0.004 C 
ATOM      9  C   UNL     1      33.729 -17.436 -23.033  0.00  0.00    +0.021 C 
ATOM     10  C   UNL     1      34.522 -16.782 -20.845  0.00  0.00    +0.128 C 
ATOM     11  C   UNL     1      33.370 -16.504 -21.842  0.00  0.00    +0.100 C 
ATOM     12  C   UNL     1      36.112 -17.146 -22.771  0.00  0.00    +0.002 C 
ATOM     13  C   UNL     1      34.969 -16.855 -23.756  0.00  0.00    +0.002 C 
ATOM     14  C   UNL     1      36.339 -18.593 -20.681  0.00  0.00    +0.002 C 
ATOM     15  C   UNL     1      33.296 -19.438 -21.417  0.00  0.00    +0.000 C 
ATOM     16  C   UNL     1      34.841 -19.773 -23.301  0.00  0.00    +0.000 C 
BRANCH  10  17
ATOM     17  O   UNL     1      35.256 -15.638 -20.448  0.00  0.00    -0.383 OA
ATOM     18  H   UNL     1      34.854 -15.256 -19.652  0.00  0.00    +0.210 HD
ENDBRANCH  10  17
ENDBRANCH   2  11
BRANCH   3  19
ATOM     19  S   UNL     1      31.634 -11.571 -21.256  0.00  0.00    +0.077 S 
ATOM     20  O   UNL     1      30.233 -11.557 -21.632  0.00  0.00    -0.150 OA
ATOM     21  O   UNL     1      32.022 -11.486 -19.861  0.00  0.00    -0.150 OA
BRANCH  19  22
ATOM     22  C   UNL     1      32.442 -10.240 -22.092  0.00  0.00    +0.125 C 
ATOM     23  C   UNL     1      32.388  -8.967 -21.550  0.00  0.00    +0.020 C 
ATOM     24  C   UNL     1      33.116 -10.494 -23.274  0.00  0.00    +0.020 C 
ATOM     25  C   UNL     1      33.027  -7.918 -22.209  0.00  0.00    -0.003 C 
ATOM     26  C   UNL     1      33.755  -9.444 -23.933  0.00  0.00    -0.003 C 
ATOM     27  C   UNL     1      33.711  -8.156 -23.401  0.00  0.00    -0.022 C 
ATOM     28  C   UNL     1      34.394  -7.034 -24.107  0.00  0.00    +0.031 C 
ENDBRANCH  19  22
ENDBRANCH   3  19
TORSDOF 4
ENDMDL
MODEL 8
REMARK VINA RESULT:      -7.5      2.235      8.364
REMARK  Name = 12818200
REMARK  4 active torsions:
REMARK  status: ('A' for Active; 'I' for Inactive)
REMARK    1  A    between atoms: N_2  and  C_11
REMARK    2  A    between atoms: N_3  and  S_19
REMARK    3  A    between atoms: C_10  and  O_17
REMARK    4  A    between atoms: S_19  and  C_22
REMARK                            x       y       z     vdW  Elec       q    Type
REMARK                         _______ _______ _______ _____ _____    ______ ____
ROOT
ATOM      1  O   UNL     1      34.194 -23.004 -19.972  0.00  0.00    -0.251 OA
ATOM      2  N   UNL     1      33.882 -20.715 -19.861  0.00  0.00    -0.287 N 
ATOM      3  N   UNL     1      33.161 -22.081 -18.091  0.00  0.00    -0.169 N 
ATOM      4  C   UNL     1      33.789 -22.011 -19.376  0.00  0.00    +0.319 C 
ATOM      5  H   UNL     1      33.527 -19.982 -19.308  0.00  0.00    +0.151 HD
ATOM      6  H   UNL     1      32.864 -21.233 -17.687  0.00  0.00    +0.178 HD
ENDROOT
BRANCH   2  11
ATOM      7  C   UNL     1      36.000 -18.636 -21.829  0.00  0.00    +0.026 C 
ATOM      8  C   UNL     1      34.893 -18.790 -22.918  0.00  0.00    +0.004 C 
ATOM      9  C   UNL     1      33.833 -19.158 -21.838  0.00  0.00    +0.021 C 
ATOM     10  C   UNL     1      35.971 -20.026 -21.115  0.00  0.00    +0.128 C 
ATOM     11  C   UNL     1      34.466 -20.390 -21.131  0.00  0.00    +0.100 C 
ATOM     12  C   UNL     1      35.385 -17.583 -20.867  0.00  0.00    +0.002 C 
ATOM     13  C   UNL     1      33.893 -17.951 -20.869  0.00  0.00    +0.002 C 
ATOM     14  C   UNL     1      37.386 -18.243 -22.308  0.00  0.00    +0.002 C 
ATOM     15  C   UNL     1      35.141 -19.887 -23.974  0.00  0.00    +0.000 C 
ATOM     16  C   UNL     1      34.560 -17.510 -23.715  0.00  0.00    +0.000 C 
BRANCH  10  17
ATOM     17  O   UNL     1      36.569 -20.018 -19.831  0.00  0.00    -0.383 OA
ATOM     18  H   UNL     1      37.477 -19.684 -19.899  0.00  0.00    +0.210 HD
ENDBRANCH  10  17
ENDBRANCH   2  11
BRANCH   3  19
ATOM     19  S   UNL     1      32.885 -23.514 -17.201  0.00  0.00    +0.077 S 
ATOM     20  O   UNL     1      31.607 -23.420 -16.522  0.00  0.00    -0.150 OA
ATOM     21  O   UNL     1      33.193 -24.660 -18.035  0.00  0.00    -0.150 OA
BRANCH  19  22
ATOM     22  C   UNL     1      34.164 -23.408 -15.985  0.00  0.00    +0.125 C 
ATOM     23  C   UNL     1      33.927 -23.894 -14.710  0.00  0.00    +0.020 C 
ATOM     24  C   UNL     1      35.380 -22.844 -16.330  0.00  0.00    +0.020 C 
ATOM     25  C   UNL     1      34.936 -23.812 -13.752  0.00  0.00    -0.003 C 
ATOM     26  C   UNL     1      36.389 -22.762 -15.371  0.00  0.00    -0.003 C 
ATOM     27  C   UNL     1      36.167 -23.246 -14.082  0.00  0.00    -0.022 C 
ATOM     28  C   UNL     1      37.247 -23.158 -13.056  0.00  0.00    +0.031 C 
ENDBRANCH  19  22
ENDBRANCH   3  19
TORSDOF 4
ENDMDL
MODEL 9
REMARK VINA RESULT:      -7.2      4.130      8.587
REMARK  Name = 12818200
REMARK  4 active torsions:
REMARK  status: ('A' for Active; 'I' for Inactive)
REMARK    1  A    between atoms: N_2  and  C_11
REMARK    2  A    between atoms: N_3  and  S_19
REMARK    3  A    between atoms: C_10  and  O_17
REMARK    4  A    between atoms: S_19  and  C_22
REMARK                            x       y       z     vdW  Elec       q    Type
REMARK                         _______ _______ _______ _____ _____    ______ ____
ROOT
ATOM      1  O   UNL     1      34.979 -22.638 -19.764  0.00  0.00    -0.251 OA
ATOM      2  N   UNL     1      33.837 -20.654 -20.090  0.00  0.00    -0.287 N 
ATOM      3  N   UNL     1      33.397 -21.958 -18.185  0.00  0.00    -0.169 N 
ATOM      4  C   UNL     1      34.150 -21.812 -19.395  0.00  0.00    +0.319 C 
ATOM      5  H   UNL     1      33.156 -20.052 -19.712  0.00  0.00    +0.151 HD
ATOM      6  H   UNL     1      32.750 -21.248 -17.968  0.00  0.00    +0.178 HD
ENDROOT
BRANCH   2  11
ATOM      7  C   UNL     1      36.002 -18.513 -21.938  0.00  0.00    +0.026 C 
ATOM      8  C   UNL     1      34.924 -18.637 -23.060  0.00  0.00    +0.004 C 
ATOM      9  C   UNL     1      33.837 -19.040 -22.020  0.00  0.00    +0.021 C 
ATOM     10  C   UNL     1      35.957 -19.924 -21.266  0.00  0.00    +0.128 C 
ATOM     11  C   UNL     1      34.454 -20.290 -21.333  0.00  0.00    +0.100 C 
ATOM     12  C   UNL     1      35.358 -17.490 -20.963  0.00  0.00    +0.002 C 
ATOM     13  C   UNL     1      33.868 -17.861 -21.015  0.00  0.00    +0.002 C 
ATOM     14  C   UNL     1      37.399 -18.104 -22.368  0.00  0.00    +0.002 C 
ATOM     15  C   UNL     1      35.203 -19.703 -24.141  0.00  0.00    +0.000 C 
ATOM     16  C   UNL     1      34.609 -17.336 -23.829  0.00  0.00    +0.000 C 
BRANCH  10  17
ATOM     17  O   UNL     1      36.520 -19.953 -19.967  0.00  0.00    -0.383 OA
ATOM     18  H   UNL     1      36.819 -20.853 -19.764  0.00  0.00    +0.210 HD
ENDBRANCH  10  17
ENDBRANCH   2  11
BRANCH   3  19
ATOM     19  S   UNL     1      33.529 -23.262 -17.089  0.00  0.00    +0.077 S 
ATOM     20  O   UNL     1      33.711 -24.496 -17.829  0.00  0.00    -0.150 OA
ATOM     21  O   UNL     1      34.445 -22.901 -16.024  0.00  0.00    -0.150 OA
BRANCH  19  22
ATOM     22  C   UNL     1      31.907 -23.277 -16.384  0.00  0.00    +0.125 C 
ATOM     23  C   UNL     1      30.872 -22.652 -17.058  0.00  0.00    +0.020 C 
ATOM     24  C   UNL     1      31.703 -23.914 -15.173  0.00  0.00    +0.020 C 
ATOM     25  C   UNL     1      29.593 -22.665 -16.503  0.00  0.00    -0.003 C 
ATOM     26  C   UNL     1      30.423 -23.927 -14.618  0.00  0.00    -0.003 C 
ATOM     27  C   UNL     1      29.368 -23.303 -15.283  0.00  0.00    -0.022 C 
ATOM     28  C   UNL     1      28.000 -23.316 -14.689  0.00  0.00    +0.031 C 
ENDBRANCH  19  22
ENDBRANCH   3  19
TORSDOF 4
ENDMDL
