MODEL 1
REMARK VINA RESULT:     -10.0      0.000      0.000
REMARK  Name = 15602982
REMARK  5 active torsions:
REMARK  status: ('A' for Active; 'I' for Inactive)
REMARK    1  A    between atoms: C_1  and  C_3
REMARK    2  A    between atoms: C_1  and  C_9
REMARK    3  A    between atoms: C_1  and  C_21
REMARK    4  A    between atoms: C_12  and  C_17
REMARK    5  A    between atoms: C_21  and  N_22
REMARK                            x       y       z     vdW  Elec       q    Type
REMARK                         _______ _______ _______ _____ _____    ______ ____
ROOT
ATOM      1  C   UNL     1      35.510 -17.907 -22.077  0.00  0.00    +0.023 C 
ENDROOT
BRANCH   1   3
ATOM      2 CL   UNL     1      33.461 -22.483 -18.776  0.00  0.00    -0.082 Cl
ATOM      3  C   UNL     1      34.984 -19.079 -21.230  0.00  0.00    -0.020 C 
ATOM      4  C   UNL     1      35.898 -19.919 -20.644  0.00  0.00    -0.003 C 
ATOM      5  C   UNL     1      33.627 -19.232 -21.100  0.00  0.00    -0.003 C 
ATOM      6  C   UNL     1      35.422 -20.983 -19.877  0.00  0.00    +0.011 C 
ATOM      7  C   UNL     1      33.150 -20.296 -20.334  0.00  0.00    +0.011 C 
ATOM      8  C   UNL     1      34.048 -21.171 -19.722  0.00  0.00    +0.058 C 
ENDBRANCH   1   3
BRANCH   1   9
ATOM      9  C   UNL     1      34.685 -16.675 -21.928  0.00  0.00    -0.021 C 
ATOM     10  C   UNL     1      34.532 -16.083 -20.674  0.00  0.00    -0.004 C 
ATOM     11  C   UNL     1      34.062 -16.114 -23.044  0.00  0.00    -0.004 C 
ATOM     12  C   UNL     1      33.136 -14.371 -21.651  0.00  0.00    +0.003 C 
ATOM     13  C   UNL     1      33.758 -14.931 -20.536  0.00  0.00    -0.000 C 
ATOM     14  C   UNL     1      33.288 -14.961 -22.905  0.00  0.00    -0.000 C 
BRANCH  12  17
ATOM     15  N   UNL     1      31.163 -11.420 -22.007  0.00  0.00    -0.235 N 
ATOM     16  N   UNL     1      31.148 -11.435 -20.663  0.00  0.00    -0.180 NA
ATOM     17  C   UNL     1      32.338 -13.185 -21.508  0.00  0.00    +0.037 C 
ATOM     18  C   UNL     1      31.863 -12.450 -22.563  0.00  0.00    +0.081 C 
ATOM     19  C   UNL     1      31.871 -12.519 -20.364  0.00  0.00    +0.119 C 
ATOM     20  H   UNL     1      30.708 -10.729 -22.541  0.00  0.00    +0.174 HD
ENDBRANCH  12  17
ENDBRANCH   1   9
BRANCH   1  21
ATOM     21  C   UNL     1      35.752 -18.378 -23.546  0.00  0.00    -0.077 C 
BRANCH  21  22
ATOM     22  N   UNL     1      34.799 -19.419 -23.926  0.00  0.00    +0.381 N 
ATOM     23  H   UNL     1      34.588 -20.000 -23.115  0.00  0.00    -0.089 HD
ATOM     24  H   UNL     1      35.202 -19.998 -24.662  0.00  0.00    -0.089 HD
ATOM     25  H   UNL     1      33.940 -18.985 -24.266  0.00  0.00    -0.089 HD
ENDBRANCH  21  22
ENDBRANCH   1  21
TORSDOF 5
ENDMDL
MODEL 2
REMARK VINA RESULT:     -10.0      0.015      1.055
REMARK  Name = 15602982
REMARK  5 active torsions:
REMARK  status: ('A' for Active; 'I' for Inactive)
REMARK    1  A    between atoms: C_1  and  C_3
REMARK    2  A    between atoms: C_1  and  C_9
REMARK    3  A    between atoms: C_1  and  C_21
REMARK    4  A    between atoms: C_12  and  C_17
REMARK    5  A    between atoms: C_21  and  N_22
REMARK                            x       y       z     vdW  Elec       q    Type
REMARK                         _______ _______ _______ _____ _____    ______ ____
ROOT
ATOM      1  C   UNL     1      35.500 -17.906 -22.081  0.00  0.00    +0.023 C 
ENDROOT
BRANCH   1   3
ATOM      2 CL   UNL     1      33.440 -22.470 -18.771  0.00  0.00    -0.082 Cl
ATOM      3  C   UNL     1      34.972 -19.076 -21.233  0.00  0.00    -0.020 C 
ATOM      4  C   UNL     1      33.614 -19.226 -21.104  0.00  0.00    -0.003 C 
ATOM      5  C   UNL     1      35.883 -19.916 -20.644  0.00  0.00    -0.003 C 
ATOM      6  C   UNL     1      33.135 -20.286 -20.335  0.00  0.00    +0.011 C 
ATOM      7  C   UNL     1      35.405 -20.977 -19.874  0.00  0.00    +0.011 C 
ATOM      8  C   UNL     1      34.030 -21.162 -19.721  0.00  0.00    +0.058 C 
ENDBRANCH   1   3
BRANCH   1   9
ATOM      9  C   UNL     1      34.677 -16.671 -21.932  0.00  0.00    -0.021 C 
ATOM     10  C   UNL     1      34.517 -16.086 -20.676  0.00  0.00    -0.004 C 
ATOM     11  C   UNL     1      34.065 -16.103 -23.050  0.00  0.00    -0.004 C 
ATOM     12  C   UNL     1      33.133 -14.364 -21.655  0.00  0.00    +0.003 C 
ATOM     13  C   UNL     1      33.745 -14.933 -20.538  0.00  0.00    -0.000 C 
ATOM     14  C   UNL     1      33.293 -14.949 -22.910  0.00  0.00    -0.000 C 
BRANCH  12  17
ATOM     15  N   UNL     1      31.169 -11.407 -22.011  0.00  0.00    -0.235 N 
ATOM     16  N   UNL     1      31.148 -11.427 -20.667  0.00  0.00    -0.180 NA
ATOM     17  C   UNL     1      32.337 -13.177 -21.512  0.00  0.00    +0.037 C 
ATOM     18  C   UNL     1      31.870 -12.437 -22.566  0.00  0.00    +0.081 C 
ATOM     19  C   UNL     1      31.866 -12.514 -20.368  0.00  0.00    +0.119 C 
ATOM     20  H   UNL     1      30.720 -10.713 -22.545  0.00  0.00    +0.174 HD
ENDBRANCH  12  17
ENDBRANCH   1   9
BRANCH   1  21
ATOM     21  C   UNL     1      35.740 -18.378 -23.550  0.00  0.00    -0.077 C 
BRANCH  21  22
ATOM     22  N   UNL     1      34.783 -19.416 -23.929  0.00  0.00    +0.381 N 
ATOM     23  H   UNL     1      35.044 -20.297 -23.488  0.00  0.00    -0.089 HD
ATOM     24  H   UNL     1      34.787 -19.529 -24.942  0.00  0.00    -0.089 HD
ATOM     25  H   UNL     1      33.849 -19.145 -23.621  0.00  0.00    -0.089 HD
ENDBRANCH  21  22
ENDBRANCH   1  21
TORSDOF 5
ENDMDL
MODEL 3
REMARK VINA RESULT:      -9.1      6.109     10.467
REMARK  Name = 15602982
REMARK  5 active torsions:
REMARK  status: ('A' for Active; 'I' for Inactive)
REMARK    1  A    between atoms: C_1  and  C_3
REMARK    2  A    between atoms: C_1  and  C_9
REMARK    3  A    between atoms: C_1  and  C_21
REMARK    4  A    between atoms: C_12  and  C_17
REMARK    5  A    between atoms: C_21  and  N_22
REMARK                            x       y       z     vdW  Elec       q    Type
REMARK                         _______ _______ _______ _____ _____    ______ ____
ROOT
ATOM      1  C   UNL     1      33.089  -8.749 -22.427  0.00  0.00    +0.023 C 
ENDROOT
BRANCH   1   3
ATOM      2 CL   UNL     1      32.305  -4.289 -26.367  0.00  0.00    -0.082 Cl
ATOM      3  C   UNL     1      32.889  -7.605 -23.437  0.00  0.00    -0.020 C 
ATOM      4  C   UNL     1      31.620  -7.115 -23.620  0.00  0.00    -0.003 C 
ATOM      5  C   UNL     1      33.986  -7.128 -24.107  0.00  0.00    -0.003 C 
ATOM      6  C   UNL     1      31.437  -6.078 -24.536  0.00  0.00    +0.011 C 
ATOM      7  C   UNL     1      33.805  -6.092 -25.023  0.00  0.00    +0.011 C 
ATOM      8  C   UNL     1      32.530  -5.567 -25.237  0.00  0.00    +0.058 C 
ENDBRANCH   1   3
BRANCH   1   9
ATOM      9  C   UNL     1      33.162 -10.087 -23.081  0.00  0.00    -0.021 C 
ATOM     10  C   UNL     1      32.358 -11.131 -22.624  0.00  0.00    -0.004 C 
ATOM     11  C   UNL     1      34.036 -10.295 -24.148  0.00  0.00    -0.004 C 
ATOM     12  C   UNL     1      33.301 -12.592 -24.302  0.00  0.00    +0.003 C 
ATOM     13  C   UNL     1      32.428 -12.384 -23.235  0.00  0.00    -0.000 C 
ATOM     14  C   UNL     1      34.105 -11.548 -24.759  0.00  0.00    -0.000 C 
BRANCH  12  17
ATOM     15  N   UNL     1      33.696 -16.017 -25.219  0.00  0.00    -0.235 N 
ATOM     16  N   UNL     1      33.292 -15.594 -26.430  0.00  0.00    -0.180 NA
ATOM     17  C   UNL     1      33.374 -13.882 -24.930  0.00  0.00    +0.037 C 
ATOM     18  C   UNL     1      33.762 -15.027 -24.284  0.00  0.00    +0.081 C 
ATOM     19  C   UNL     1      33.097 -14.285 -26.245  0.00  0.00    +0.119 C 
ATOM     20  H   UNL     1      33.923 -16.955 -25.026  0.00  0.00    +0.174 HD
ENDBRANCH  12  17
ENDBRANCH   1   9
BRANCH   1  21
ATOM     21  C   UNL     1      32.049  -8.625 -21.269  0.00  0.00    -0.077 C 
BRANCH  21  22
ATOM     22  N   UNL     1      32.706  -8.280 -20.010  0.00  0.00    +0.381 N 
ATOM     23  H   UNL     1      32.099  -7.667 -19.466  0.00  0.00    -0.089 HD
ATOM     24  H   UNL     1      33.585  -7.801 -20.204  0.00  0.00    -0.089 HD
ATOM     25  H   UNL     1      32.893  -9.131 -19.479  0.00  0.00    -0.089 HD
ENDBRANCH  21  22
ENDBRANCH   1  21
TORSDOF 5
ENDMDL
MODEL 4
REMARK VINA RESULT:      -9.1      4.577      8.235
REMARK  Name = 15602982
REMARK  5 active torsions:
REMARK  status: ('A' for Active; 'I' for Inactive)
REMARK    1  A    between atoms: C_1  and  C_3
REMARK    2  A    between atoms: C_1  and  C_9
REMARK    3  A    between atoms: C_1  and  C_21
REMARK    4  A    between atoms: C_12  and  C_17
REMARK    5  A    between atoms: C_21  and  N_22
REMARK                            x       y       z     vdW  Elec       q    Type
REMARK                         _______ _______ _______ _____ _____    ______ ____
ROOT
ATOM      1  C   UNL     1      33.159 -12.891 -25.462  0.00  0.00    +0.023 C 
ENDROOT
BRANCH   1   3
ATOM      2 CL   UNL     1      35.083  -7.604 -23.370  0.00  0.00    -0.082 Cl
ATOM      3  C   UNL     1      33.653 -11.537 -24.925  0.00  0.00    -0.020 C 
ATOM      4  C   UNL     1      32.933 -10.932 -23.925  0.00  0.00    -0.003 C 
ATOM      5  C   UNL     1      34.789 -10.995 -25.471  0.00  0.00    -0.003 C 
ATOM      6  C   UNL     1      33.380  -9.703 -23.439  0.00  0.00    +0.011 C 
ATOM      7  C   UNL     1      35.236  -9.766 -24.986  0.00  0.00    +0.011 C 
ATOM      8  C   UNL     1      34.532  -9.120 -23.969  0.00  0.00    +0.058 C 
ENDBRANCH   1   3
BRANCH   1   9
ATOM      9  C   UNL     1      33.637 -14.043 -24.645  0.00  0.00    -0.021 C 
ATOM     10  C   UNL     1      33.983 -13.854 -23.307  0.00  0.00    -0.004 C 
ATOM     11  C   UNL     1      33.741 -15.310 -25.220  0.00  0.00    -0.004 C 
ATOM     12  C   UNL     1      34.536 -16.197 -23.118  0.00  0.00    +0.003 C 
ATOM     13  C   UNL     1      34.433 -14.931 -22.543  0.00  0.00    -0.000 C 
ATOM     14  C   UNL     1      34.190 -16.388 -24.455  0.00  0.00    -0.000 C 
BRANCH  12  17
ATOM     15  N   UNL     1      35.646 -18.494 -20.622  0.00  0.00    -0.235 N 
ATOM     16  N   UNL     1      35.726 -19.356 -21.651  0.00  0.00    -0.180 NA
ATOM     17  C   UNL     1      35.000 -17.307 -22.331  0.00  0.00    +0.037 C 
ATOM     18  C   UNL     1      35.215 -17.250 -20.979  0.00  0.00    +0.081 C 
ATOM     19  C   UNL     1      35.330 -18.622 -22.694  0.00  0.00    +0.119 C 
ATOM     20  H   UNL     1      35.876 -18.739 -19.697  0.00  0.00    +0.174 HD
ENDBRANCH  12  17
ENDBRANCH   1   9
BRANCH   1  21
ATOM     21  C   UNL     1      33.444 -12.993 -26.994  0.00  0.00    -0.077 C 
BRANCH  21  22
ATOM     22  N   UNL     1      32.198 -13.059 -27.755  0.00  0.00    +0.381 N 
ATOM     23  H   UNL     1      32.395 -12.910 -28.745  0.00  0.00    -0.089 HD
ATOM     24  H   UNL     1      31.558 -12.337 -27.425  0.00  0.00    -0.089 HD
ATOM     25  H   UNL     1      31.771 -13.977 -27.629  0.00  0.00    -0.089 HD
ENDBRANCH  21  22
ENDBRANCH   1  21
TORSDOF 5
ENDMDL
MODEL 5
REMARK VINA RESULT:      -9.0      5.880     10.033
REMARK  Name = 15602982
REMARK  5 active torsions:
REMARK  status: ('A' for Active; 'I' for Inactive)
REMARK    1  A    between atoms: C_1  and  C_3
REMARK    2  A    between atoms: C_1  and  C_9
REMARK    3  A    between atoms: C_1  and  C_21
REMARK    4  A    between atoms: C_12  and  C_17
REMARK    5  A    between atoms: C_21  and  N_22
REMARK                            x       y       z     vdW  Elec       q    Type
REMARK                         _______ _______ _______ _____ _____    ______ ____
ROOT
ATOM      1  C   UNL     1      32.586  -9.417 -21.724  0.00  0.00    +0.023 C 
ENDROOT
BRANCH   1   3
ATOM      2 CL   UNL     1      30.787  -4.690 -24.957  0.00  0.00    -0.082 Cl
ATOM      3  C   UNL     1      32.124  -8.205 -22.551  0.00  0.00    -0.020 C 
ATOM      4  C   UNL     1      31.154  -8.399 -23.503  0.00  0.00    -0.003 C 
ATOM      5  C   UNL     1      32.704  -6.987 -22.302  0.00  0.00    -0.003 C 
ATOM      6  C   UNL     1      30.736  -7.300 -24.254  0.00  0.00    +0.011 C 
ATOM      7  C   UNL     1      32.287  -5.888 -23.054  0.00  0.00    +0.011 C 
ATOM      8  C   UNL     1      31.302  -6.045 -24.030  0.00  0.00    +0.058 C 
ENDBRANCH   1   3
BRANCH   1   9
ATOM      9  C   UNL     1      32.753 -10.647 -22.549  0.00  0.00    -0.021 C 
ATOM     10  C   UNL     1      32.070 -11.815 -22.208  0.00  0.00    -0.004 C 
ATOM     11  C   UNL     1      33.595 -10.631 -23.661  0.00  0.00    -0.004 C 
ATOM     12  C   UNL     1      33.071 -12.950 -24.091  0.00  0.00    +0.003 C 
ATOM     13  C   UNL     1      32.229 -12.966 -22.979  0.00  0.00    -0.000 C 
ATOM     14  C   UNL     1      33.753 -11.783 -24.432  0.00  0.00    -0.000 C 
BRANCH  12  17
ATOM     15  N   UNL     1      33.760 -16.169 -25.467  0.00  0.00    -0.235 N 
ATOM     16  N   UNL     1      33.229 -15.649 -26.588  0.00  0.00    -0.180 NA
ATOM     17  C   UNL     1      33.235 -14.136 -24.884  0.00  0.00    +0.037 C 
ATOM     18  C   UNL     1      33.786 -15.301 -24.416  0.00  0.00    +0.081 C 
ATOM     19  C   UNL     1      32.910 -14.404 -26.223  0.00  0.00    +0.119 C 
ATOM     20  H   UNL     1      34.098 -17.092 -25.411  0.00  0.00    +0.174 HD
ENDBRANCH  12  17
ENDBRANCH   1   9
BRANCH   1  21
ATOM     21  C   UNL     1      31.680  -9.575 -20.461  0.00  0.00    -0.077 C 
BRANCH  21  22
ATOM     22  N   UNL     1      32.448  -9.367 -19.235  0.00  0.00    +0.381 N 
ATOM     23  H   UNL     1      33.349  -8.948 -19.466  0.00  0.00    -0.089 HD
ATOM     24  H   UNL     1      32.599 -10.262 -18.771  0.00  0.00    -0.089 HD
ATOM     25  H   UNL     1      31.933  -8.743 -18.614  0.00  0.00    -0.089 HD
ENDBRANCH  21  22
ENDBRANCH   1  21
TORSDOF 5
ENDMDL
MODEL 6
REMARK VINA RESULT:      -8.9      6.487     10.775
REMARK  Name = 15602982
REMARK  5 active torsions:
REMARK  status: ('A' for Active; 'I' for Inactive)
REMARK    1  A    between atoms: C_1  and  C_3
REMARK    2  A    between atoms: C_1  and  C_9
REMARK    3  A    between atoms: C_1  and  C_21
REMARK    4  A    between atoms: C_12  and  C_17
REMARK    5  A    between atoms: C_21  and  N_22
REMARK                            x       y       z     vdW  Elec       q    Type
REMARK                         _______ _______ _______ _____ _____    ______ ____
ROOT
ATOM      1  C   UNL     1      33.478  -7.952 -22.707  0.00  0.00    +0.023 C 
ENDROOT
BRANCH   1   3
ATOM      2 CL   UNL     1      32.800  -4.033 -27.203  0.00  0.00    -0.082 Cl
ATOM      3  C   UNL     1      33.303  -6.948 -23.860  0.00  0.00    -0.020 C 
ATOM      4  C   UNL     1      34.370  -6.726 -24.695  0.00  0.00    -0.003 C 
ATOM      5  C   UNL     1      32.091  -6.321 -24.000  0.00  0.00    -0.003 C 
ATOM      6  C   UNL     1      34.213  -5.815 -25.740  0.00  0.00    +0.011 C 
ATOM      7  C   UNL     1      31.934  -5.410 -25.044  0.00  0.00    +0.011 C 
ATOM      8  C   UNL     1      32.995  -5.157 -25.915  0.00  0.00    +0.058 C 
ENDBRANCH   1   3
BRANCH   1   9
ATOM      9  C   UNL     1      33.478  -9.368 -23.172  0.00  0.00    -0.021 C 
ATOM     10  C   UNL     1      32.538 -10.268 -22.669  0.00  0.00    -0.004 C 
ATOM     11  C   UNL     1      34.419  -9.794 -24.110  0.00  0.00    -0.004 C 
ATOM     12  C   UNL     1      33.481 -12.020 -24.040  0.00  0.00    +0.003 C 
ATOM     13  C   UNL     1      32.540 -11.594 -23.103  0.00  0.00    -0.000 C 
ATOM     14  C   UNL     1      34.420 -11.121 -24.544  0.00  0.00    -0.000 C 
BRANCH  12  17
ATOM     15  N   UNL     1      33.227 -15.140 -25.753  0.00  0.00    -0.235 N 
ATOM     16  N   UNL     1      33.718 -15.648 -24.609  0.00  0.00    -0.180 NA
ATOM     17  C   UNL     1      33.483 -13.385 -24.486  0.00  0.00    +0.037 C 
ATOM     18  C   UNL     1      33.068 -13.785 -25.730  0.00  0.00    +0.081 C 
ATOM     19  C   UNL     1      33.872 -14.568 -23.838  0.00  0.00    +0.119 C 
ATOM     20  H   UNL     1      33.003 -15.694 -26.535  0.00  0.00    +0.174 HD
ENDBRANCH  12  17
ENDBRANCH   1   9
BRANCH   1  21
ATOM     21  C   UNL     1      32.471  -7.624 -21.559  0.00  0.00    -0.077 C 
BRANCH  21  22
ATOM     22  N   UNL     1      33.121  -7.713 -20.252  0.00  0.00    +0.381 N 
ATOM     23  H   UNL     1      32.416  -7.865 -19.531  0.00  0.00    -0.089 HD
ATOM     24  H   UNL     1      33.620  -6.845 -20.061  0.00  0.00    -0.089 HD
ATOM     25  H   UNL     1      33.780  -8.492 -20.253  0.00  0.00    -0.089 HD
ENDBRANCH  21  22
ENDBRANCH   1  21
TORSDOF 5
ENDMDL
MODEL 7
REMARK VINA RESULT:      -8.8      5.555      8.846
REMARK  Name = 15602982
REMARK  5 active torsions:
REMARK  status: ('A' for Active; 'I' for Inactive)
REMARK    1  A    between atoms: C_1  and  C_3
REMARK    2  A    between atoms: C_1  and  C_9
REMARK    3  A    between atoms: C_1  and  C_21
REMARK    4  A    between atoms: C_12  and  C_17
REMARK    5  A    between atoms: C_21  and  N_22
REMARK                            x       y       z     vdW  Elec       q    Type
REMARK                         _______ _______ _______ _____ _____    ______ ____
ROOT
ATOM      1  C   UNL     1      34.351 -24.327 -15.376  0.00  0.00    +0.023 C 
ENDROOT
BRANCH   1   3
ATOM      2 CL   UNL     1      39.867 -25.859 -13.571  0.00  0.00    -0.082 Cl
ATOM      3  C   UNL     1      35.765 -24.719 -14.914  0.00  0.00    -0.020 C 
ATOM      4  C   UNL     1      36.269 -25.930 -15.318  0.00  0.00    -0.003 C 
ATOM      5  C   UNL     1      36.457 -23.841 -14.118  0.00  0.00    -0.003 C 
ATOM      6  C   UNL     1      37.551 -26.286 -14.899  0.00  0.00    +0.011 C 
ATOM      7  C   UNL     1      37.738 -24.197 -13.698  0.00  0.00    +0.011 C 
ATOM      8  C   UNL     1      38.286 -25.420 -14.089  0.00  0.00    +0.058 C 
ENDBRANCH   1   3
BRANCH   1   9
ATOM      9  C   UNL     1      34.362 -23.428 -16.565  0.00  0.00    -0.021 C 
ATOM     10  C   UNL     1      33.201 -23.251 -17.317  0.00  0.00    -0.004 C 
ATOM     11  C   UNL     1      35.536 -22.767 -16.927  0.00  0.00    -0.004 C 
ATOM     12  C   UNL     1      34.386 -21.750 -18.793  0.00  0.00    +0.003 C 
ATOM     13  C   UNL     1      33.213 -22.411 -18.431  0.00  0.00    -0.000 C 
ATOM     14  C   UNL     1      35.547 -21.927 -18.042  0.00  0.00    -0.000 C 
BRANCH  12  17
ATOM     15  N   UNL     1      33.709 -19.618 -21.573  0.00  0.00    -0.235 N 
ATOM     16  N   UNL     1      35.047 -19.597 -21.704  0.00  0.00    -0.180 NA
ATOM     17  C   UNL     1      34.398 -20.886 -19.941  0.00  0.00    +0.037 C 
ATOM     18  C   UNL     1      33.269 -20.378 -20.529  0.00  0.00    +0.081 C 
ATOM     19  C   UNL     1      35.462 -20.377 -20.702  0.00  0.00    +0.119 C 
ATOM     20  H   UNL     1      33.103 -19.130 -22.175  0.00  0.00    +0.174 HD
ENDBRANCH  12  17
ENDBRANCH   1   9
BRANCH   1  21
ATOM     21  C   UNL     1      33.515 -23.817 -14.159  0.00  0.00    -0.077 C 
BRANCH  21  22
ATOM     22  N   UNL     1      32.738 -24.903 -13.565  0.00  0.00    +0.381 N 
ATOM     23  H   UNL     1      32.071 -25.258 -14.250  0.00  0.00    -0.089 HD
ATOM     24  H   UNL     1      32.234 -24.556 -12.749  0.00  0.00    -0.089 HD
ATOM     25  H   UNL     1      33.367 -25.655 -13.282  0.00  0.00    -0.089 HD
ENDBRANCH  21  22
ENDBRANCH   1  21
TORSDOF 5
ENDMDL
MODEL 8
REMARK VINA RESULT:      -8.8      3.505      7.249
REMARK  Name = 15602982
REMARK  5 active torsions:
REMARK  status: ('A' for Active; 'I' for Inactive)
REMARK    1  A    between atoms: C_1  and  C_3
REMARK    2  A    between atoms: C_1  and  C_9
REMARK    3  A    between atoms: C_1  and  C_21
REMARK    4  A    between atoms: C_12  and  C_17
REMARK    5  A    between atoms: C_21  and  N_22
REMARK                            x       y       z     vdW  Elec       q    Type
REMARK                         _______ _______ _______ _____ _____    ______ ____
ROOT
ATOM      1  C   UNL     1      34.169 -17.435 -22.767  0.00  0.00    +0.023 C 
ENDROOT
BRANCH   1   3
ATOM      2 CL   UNL     1      31.960 -12.339 -20.492  0.00  0.00    -0.082 Cl
ATOM      3  C   UNL     1      33.602 -16.129 -22.183  0.00  0.00    -0.020 C 
ATOM      4  C   UNL     1      33.263 -15.122 -23.052  0.00  0.00    -0.003 C 
ATOM      5  C   UNL     1      33.462 -16.031 -20.822  0.00  0.00    -0.003 C 
ATOM      6  C   UNL     1      32.750 -13.938 -22.524  0.00  0.00    +0.011 C 
ATOM      7  C   UNL     1      32.950 -14.846 -20.293  0.00  0.00    +0.011 C 
ATOM      8  C   UNL     1      32.592 -13.800 -21.144  0.00  0.00    +0.058 C 
ENDBRANCH   1   3
BRANCH   1   9
ATOM      9  C   UNL     1      34.215 -18.540 -21.767  0.00  0.00    -0.021 C 
ATOM     10  C   UNL     1      35.444 -19.032 -21.326  0.00  0.00    -0.004 C 
ATOM     11  C   UNL     1      33.028 -19.084 -21.275  0.00  0.00    -0.004 C 
ATOM     12  C   UNL     1      34.300 -20.611 -19.900  0.00  0.00    +0.003 C 
ATOM     13  C   UNL     1      35.486 -20.067 -20.392  0.00  0.00    -0.000 C 
ATOM     14  C   UNL     1      33.072 -20.120 -20.340  0.00  0.00    -0.000 C 
BRANCH  12  17
ATOM     15  N   UNL     1      33.729 -23.361 -17.699  0.00  0.00    -0.235 N 
ATOM     16  N   UNL     1      35.014 -23.169 -17.351  0.00  0.00    -0.180 NA
ATOM     17  C   UNL     1      34.344 -21.678 -18.939  0.00  0.00    +0.037 C 
ATOM     18  C   UNL     1      33.280 -22.491 -18.649  0.00  0.00    +0.081 C 
ATOM     19  C   UNL     1      35.384 -22.136 -18.114  0.00  0.00    +0.119 C 
ATOM     20  H   UNL     1      33.166 -24.065 -17.305  0.00  0.00    +0.174 HD
ENDBRANCH  12  17
ENDBRANCH   1   9
BRANCH   1  21
ATOM     21  C   UNL     1      35.513 -17.147 -23.509  0.00  0.00    -0.077 C 
BRANCH  21  22
ATOM     22  N   UNL     1      35.309 -17.087 -24.956  0.00  0.00    +0.381 N 
ATOM     23  H   UNL     1      36.213 -17.082 -25.427  0.00  0.00    -0.089 HD
ATOM     24  H   UNL     1      34.798 -16.237 -25.193  0.00  0.00    -0.089 HD
ATOM     25  H   UNL     1      34.774 -17.902 -25.257  0.00  0.00    -0.089 HD
ENDBRANCH  21  22
ENDBRANCH   1  21
TORSDOF 5
ENDMDL
MODEL 9
REMARK VINA RESULT:      -8.6      4.615      7.064
REMARK  Name = 15602982
REMARK  5 active torsions:
REMARK  status: ('A' for Active; 'I' for Inactive)
REMARK    1  A    between atoms: C_1  and  C_3
REMARK    2  A    between atoms: C_1  and  C_9
REMARK    3  A    between atoms: C_1  and  C_21
REMARK    4  A    between atoms: C_12  and  C_17
REMARK    5  A    between atoms: C_21  and  N_22
REMARK                            x       y       z     vdW  Elec       q    Type
REMARK                         _______ _______ _______ _____ _____    ______ ____
ROOT
ATOM      1  C   UNL     1      33.471 -23.037 -17.594  0.00  0.00    +0.023 C 
ENDROOT
BRANCH   1   3
ATOM      2 CL   UNL     1      37.737 -23.951 -13.471  0.00  0.00    -0.082 Cl
ATOM      3  C   UNL     1      34.565 -23.272 -16.538  0.00  0.00    -0.020 C 
ATOM      4  C   UNL     1      34.407 -24.313 -15.658  0.00  0.00    -0.003 C 
ATOM      5  C   UNL     1      35.648 -22.429 -16.523  0.00  0.00    -0.003 C 
ATOM      6  C   UNL     1      35.398 -24.526 -14.699  0.00  0.00    +0.011 C 
ATOM      7  C   UNL     1      36.639 -22.641 -15.565  0.00  0.00    +0.011 C 
ATOM      8  C   UNL     1      36.515 -23.690 -14.653  0.00  0.00    +0.058 C 
ENDBRANCH   1   3
BRANCH   1   9
ATOM      9  C   UNL     1      33.905 -22.106 -18.674  0.00  0.00    -0.021 C 
ATOM     10  C   UNL     1      35.240 -22.074 -19.074  0.00  0.00    -0.004 C 
ATOM     11  C   UNL     1      32.973 -21.265 -19.285  0.00  0.00    -0.004 C 
ATOM     12  C   UNL     1      34.715 -20.361 -20.694  0.00  0.00    +0.003 C 
ATOM     13  C   UNL     1      35.646 -21.202 -20.084  0.00  0.00    -0.000 C 
ATOM     14  C   UNL     1      33.380 -20.393 -20.295  0.00  0.00    -0.000 C 
BRANCH  12  17
ATOM     15  N   UNL     1      36.237 -17.914 -22.798  0.00  0.00    -0.235 N 
ATOM     16  N   UNL     1      35.321 -18.319 -23.696  0.00  0.00    -0.180 NA
ATOM     17  C   UNL     1      35.133 -19.461 -21.733  0.00  0.00    +0.037 C 
ATOM     18  C   UNL     1      36.166 -18.569 -21.604  0.00  0.00    +0.081 C 
ATOM     19  C   UNL     1      34.648 -19.267 -23.036  0.00  0.00    +0.119 C 
ATOM     20  H   UNL     1      36.898 -17.209 -22.986  0.00  0.00    +0.174 HD
ENDBRANCH  12  17
ENDBRANCH   1   9
BRANCH   1  21
ATOM     21  C   UNL     1      32.125 -22.669 -16.892  0.00  0.00    -0.077 C 
BRANCH  21  22
ATOM     22  N   UNL     1      31.379 -23.872 -16.527  0.00  0.00    +0.381 N 
ATOM     23  H   UNL     1      30.383 -23.655 -16.487  0.00  0.00    -0.089 HD
ATOM     24  H   UNL     1      31.692 -24.203 -15.616  0.00  0.00    -0.089 HD
ATOM     25  H   UNL     1      31.540 -24.597 -17.227  0.00  0.00    -0.089 HD
ENDBRANCH  21  22
ENDBRANCH   1  21
TORSDOF 5
ENDMDL
