MODEL 1
REMARK VINA RESULT:      -8.5      0.000      0.000
REMARK  Name = 10246085
REMARK  2 active torsions:
REMARK  status: ('A' for Active; 'I' for Inactive)
REMARK    1  A    between atoms: C_7  and  O_21
REMARK    2  A    between atoms: O_21  and  C_23
REMARK                            x       y       z     vdW  Elec       q    Type
REMARK                         _______ _______ _______ _____ _____    ______ ____
ROOT
ATOM      1  O   UNL     1      33.106 -15.417 -20.357  0.00  0.00    -0.291 OA
ATOM      2  C   UNL     1      32.139  -8.010 -22.125  0.00  0.00    +0.003 C 
ATOM      3  C   UNL     1      32.216  -7.674 -23.628  0.00  0.00    +0.037 C 
ATOM      4  C   UNL     1      31.614  -9.426 -21.864  0.00  0.00    +0.001 C 
ATOM      5  C   UNL     1      32.570 -10.453 -22.548  0.00  0.00    +0.004 C 
ATOM      6  C   UNL     1      33.215  -8.637 -24.280  0.00  0.00    +0.003 C 
ATOM      7  C   UNL     1      32.698  -6.213 -23.532  0.00  0.00    +0.169 C 
ATOM      8  C   UNL     1      32.826 -10.106 -24.039  0.00  0.00    +0.000 C 
ATOM      9  C   UNL     1      31.390  -6.820 -21.534  0.00  0.00    +0.004 C 
ATOM     10  C   UNL     1      31.403  -9.749 -20.365  0.00  0.00    +0.004 C 
ATOM     11  C   UNL     1      32.056 -11.917 -22.369  0.00  0.00    +0.019 C 
ATOM     12  C   UNL     1      31.869  -5.622 -22.374  0.00  0.00    +0.044 C 
ATOM     13  C   UNL     1      30.831 -11.168 -20.235  0.00  0.00    +0.022 C 
ATOM     14  C   UNL     1      30.863  -7.745 -24.382  0.00  0.00    +0.004 C 
ATOM     15  C   UNL     1      31.681 -12.209 -20.924  0.00  0.00    -0.042 C 
ATOM     16  C   UNL     1      33.099 -12.919 -22.905  0.00  0.00    +0.012 C 
ATOM     17  C   UNL     1      32.650  -9.581 -19.489  0.00  0.00    +0.000 C 
ATOM     18  C   UNL     1      32.808 -14.349 -22.482  0.00  0.00    +0.069 C 
ATOM     19  C   UNL     1      32.023 -13.332 -20.272  0.00  0.00    +0.029 C 
ATOM     20  C   UNL     1      32.710 -14.435 -20.982  0.00  0.00    +0.173 C 
ENDROOT
BRANCH   7  21
ATOM     21  O   UNL     1      32.513  -5.489 -24.733  0.00  0.00    -0.452 OA
BRANCH  21  23
ATOM     22  O   UNL     1      34.649  -6.038 -25.423  0.00  0.00    -0.250 OA
ATOM     23  C   UNL     1      33.564  -5.504 -25.613  0.00  0.00    +0.317 C 
ATOM     24  C   UNL     1      33.200  -4.764 -26.865  0.00  0.00    +0.121 C 
ENDBRANCH  21  23
ENDBRANCH   7  21
TORSDOF 2
ENDMDL
MODEL 2
REMARK VINA RESULT:      -8.5      3.524      9.140
REMARK  Name = 10246085
REMARK  2 active torsions:
REMARK  status: ('A' for Active; 'I' for Inactive)
REMARK    1  A    between atoms: C_7  and  O_21
REMARK    2  A    between atoms: O_21  and  C_23
REMARK                            x       y       z     vdW  Elec       q    Type
REMARK                         _______ _______ _______ _____ _____    ______ ____
ROOT
ATOM      1  O   UNL     1      31.501  -8.956 -21.267  0.00  0.00    -0.291 OA
ATOM      2  C   UNL     1      34.329 -15.934 -22.759  0.00  0.00    +0.003 C 
ATOM      3  C   UNL     1      34.310 -16.922 -21.575  0.00  0.00    +0.037 C 
ATOM      4  C   UNL     1      33.186 -14.915 -22.694  0.00  0.00    +0.001 C 
ATOM      5  C   UNL     1      33.315 -14.097 -21.371  0.00  0.00    +0.004 C 
ATOM      6  C   UNL     1      34.514 -16.121 -20.284  0.00  0.00    +0.003 C 
ATOM      7  C   UNL     1      35.503 -17.813 -21.975  0.00  0.00    +0.169 C 
ATOM      8  C   UNL     1      33.452 -15.018 -20.129  0.00  0.00    +0.000 C 
ATOM      9  C   UNL     1      34.444 -16.845 -23.978  0.00  0.00    +0.004 C 
ATOM     10  C   UNL     1      33.100 -13.992 -23.933  0.00  0.00    +0.004 C 
ATOM     11  C   UNL     1      32.141 -13.079 -21.215  0.00  0.00    +0.019 C 
ATOM     12  C   UNL     1      35.331 -18.006 -23.495  0.00  0.00    +0.044 C 
ATOM     13  C   UNL     1      31.894 -13.054 -23.775  0.00  0.00    +0.022 C 
ATOM     14  C   UNL     1      33.020 -17.774 -21.457  0.00  0.00    +0.004 C 
ATOM     15  C   UNL     1      31.926 -12.270 -22.486  0.00  0.00    -0.042 C 
ATOM     16  C   UNL     1      32.381 -12.171 -19.991  0.00  0.00    +0.012 C 
ATOM     17  C   UNL     1      34.375 -13.195 -24.232  0.00  0.00    +0.000 C 
ATOM     18  C   UNL     1      31.453 -10.968 -19.964  0.00  0.00    +0.069 C 
ATOM     19  C   UNL     1      31.725 -10.942 -22.505  0.00  0.00    +0.029 C 
ATOM     20  C   UNL     1      31.586 -10.182 -21.242  0.00  0.00    +0.173 C 
ENDROOT
BRANCH   7  21
ATOM     21  O   UNL     1      35.526 -19.049 -21.288  0.00  0.00    -0.452 OA
BRANCH  21  23
ATOM     22  O   UNL     1      37.837 -19.043 -21.251  0.00  0.00    -0.250 OA
ATOM     23  C   UNL     1      36.759 -19.486 -20.876  0.00  0.00    +0.317 C 
ATOM     24  C   UNL     1      36.607 -20.599 -19.884  0.00  0.00    +0.121 C 
ENDBRANCH  21  23
ENDBRANCH   7  21
TORSDOF 2
ENDMDL
MODEL 3
REMARK VINA RESULT:      -8.4      2.518      4.441
REMARK  Name = 10246085
REMARK  2 active torsions:
REMARK  status: ('A' for Active; 'I' for Inactive)
REMARK    1  A    between atoms: C_7  and  O_21
REMARK    2  A    between atoms: O_21  and  C_23
REMARK                            x       y       z     vdW  Elec       q    Type
REMARK                         _______ _______ _______ _____ _____    ______ ____
ROOT
ATOM      1  O   UNL     1      35.646 -18.428 -23.999  0.00  0.00    -0.291 OA
ATOM      2  C   UNL     1      32.549 -12.086 -20.983  0.00  0.00    +0.003 C 
ATOM      3  C   UNL     1      32.074 -11.032 -22.004  0.00  0.00    +0.037 C 
ATOM      4  C   UNL     1      32.461 -13.516 -21.528  0.00  0.00    +0.001 C 
ATOM      5  C   UNL     1      33.359 -13.627 -22.800  0.00  0.00    +0.004 C 
ATOM      6  C   UNL     1      33.006 -11.094 -23.219  0.00  0.00    +0.003 C 
ATOM      7  C   UNL     1      32.223  -9.764 -21.141  0.00  0.00    +0.169 C 
ATOM      8  C   UNL     1      33.050 -12.506 -23.829  0.00  0.00    +0.000 C 
ATOM      9  C   UNL     1      31.778 -11.725 -19.717  0.00  0.00    +0.004 C 
ATOM     10  C   UNL     1      32.808 -14.606 -20.485  0.00  0.00    +0.004 C 
ATOM     11  C   UNL     1      33.266 -15.048 -23.440  0.00  0.00    +0.019 C 
ATOM     12  C   UNL     1      31.689 -10.189 -19.758  0.00  0.00    +0.044 C 
ATOM     13  C   UNL     1      32.637 -15.988 -21.130  0.00  0.00    +0.022 C 
ATOM     14  C   UNL     1      30.604 -11.194 -22.472  0.00  0.00    +0.004 C 
ATOM     15  C   UNL     1      33.437 -16.145 -22.401  0.00  0.00    -0.042 C 
ATOM     16  C   UNL     1      34.284 -15.183 -24.591  0.00  0.00    +0.012 C 
ATOM     17  C   UNL     1      34.196 -14.468 -19.848  0.00  0.00    +0.000 C 
ATOM     18  C   UNL     1      34.467 -16.621 -25.045  0.00  0.00    +0.069 C 
ATOM     19  C   UNL     1      34.208 -17.232 -22.576  0.00  0.00    +0.029 C 
ATOM     20  C   UNL     1      34.866 -17.486 -23.878  0.00  0.00    +0.173 C 
ENDROOT
BRANCH   7  21
ATOM     21  O   UNL     1      31.515  -8.655 -21.659  0.00  0.00    -0.452 OA
BRANCH  21  23
ATOM     22  O   UNL     1      31.798  -6.483 -20.922  0.00  0.00    -0.250 OA
ATOM     23  C   UNL     1      32.156  -7.445 -21.588  0.00  0.00    +0.317 C 
ATOM     24  C   UNL     1      33.380  -7.458 -22.453  0.00  0.00    +0.121 C 
ENDBRANCH  21  23
ENDBRANCH   7  21
TORSDOF 2
ENDMDL
MODEL 4
REMARK VINA RESULT:      -8.3     11.133     16.349
REMARK  Name = 10246085
REMARK  2 active torsions:
REMARK  status: ('A' for Active; 'I' for Inactive)
REMARK    1  A    between atoms: C_7  and  O_21
REMARK    2  A    between atoms: O_21  and  C_23
REMARK                            x       y       z     vdW  Elec       q    Type
REMARK                         _______ _______ _______ _____ _____    ______ ____
ROOT
ATOM      1  O   UNL     1      33.745 -18.903 -21.793  0.00  0.00    -0.291 OA
ATOM      2  C   UNL     1      36.369 -22.858 -15.761  0.00  0.00    +0.003 C 
ATOM      3  C   UNL     1      35.364 -23.841 -15.127  0.00  0.00    +0.037 C 
ATOM      4  C   UNL     1      36.136 -22.665 -17.263  0.00  0.00    +0.001 C 
ATOM      5  C   UNL     1      34.696 -22.102 -17.482  0.00  0.00    +0.004 C 
ATOM      6  C   UNL     1      33.959 -23.247 -15.277  0.00  0.00    +0.003 C 
ATOM      7  C   UNL     1      35.907 -23.856 -13.684  0.00  0.00    +0.169 C 
ATOM      8  C   UNL     1      33.623 -22.951 -16.749  0.00  0.00    +0.000 C 
ATOM      9  C   UNL     1      37.721 -23.376 -15.280  0.00  0.00    +0.004 C 
ATOM     10  C   UNL     1      37.206 -21.785 -17.955  0.00  0.00    +0.004 C 
ATOM     11  C   UNL     1      34.374 -21.938 -19.001  0.00  0.00    +0.019 C 
ATOM     12  C   UNL     1      37.437 -23.902 -13.862  0.00  0.00    +0.044 C 
ATOM     13  C   UNL     1      36.894 -21.706 -19.456  0.00  0.00    +0.022 C 
ATOM     14  C   UNL     1      35.386 -25.272 -15.724  0.00  0.00    +0.004 C 
ATOM     15  C   UNL     1      35.493 -21.221 -19.740  0.00  0.00    -0.042 C 
ATOM     16  C   UNL     1      33.017 -21.227 -19.185  0.00  0.00    +0.012 C 
ATOM     17  C   UNL     1      37.371 -20.383 -17.357  0.00  0.00    +0.000 C 
ATOM     18  C   UNL     1      32.791 -20.758 -20.612  0.00  0.00    +0.069 C 
ATOM     19  C   UNL     1      35.294 -20.239 -20.634  0.00  0.00    +0.029 C 
ATOM     20  C   UNL     1      33.922 -19.865 -21.049  0.00  0.00    +0.173 C 
ENDROOT
BRANCH   7  21
ATOM     21  O   UNL     1      35.433 -24.951 -12.925  0.00  0.00    -0.452 OA
BRANCH  21  23
ATOM     22  O   UNL     1      36.925 -26.155 -11.636  0.00  0.00    -0.250 OA
ATOM     23  C   UNL     1      36.129 -25.237 -11.780  0.00  0.00    +0.317 C 
ATOM     24  C   UNL     1      35.780 -24.253 -10.704  0.00  0.00    +0.121 C 
ENDBRANCH  21  23
ENDBRANCH   7  21
TORSDOF 2
ENDMDL
MODEL 5
REMARK VINA RESULT:      -8.1      4.386     10.526
REMARK  Name = 10246085
REMARK  2 active torsions:
REMARK  status: ('A' for Active; 'I' for Inactive)
REMARK    1  A    between atoms: C_7  and  O_21
REMARK    2  A    between atoms: O_21  and  C_23
REMARK                            x       y       z     vdW  Elec       q    Type
REMARK                         _______ _______ _______ _____ _____    ______ ____
ROOT
ATOM      1  O   UNL     1      33.856 -10.793 -25.744  0.00  0.00    -0.291 OA
ATOM      2  C   UNL     1      34.784 -17.878 -22.942  0.00  0.00    +0.003 C 
ATOM      3  C   UNL     1      34.551 -18.024 -21.424  0.00  0.00    +0.037 C 
ATOM      4  C   UNL     1      33.938 -16.761 -23.562  0.00  0.00    +0.001 C 
ATOM      5  C   UNL     1      34.308 -15.408 -22.877  0.00  0.00    +0.004 C 
ATOM      6  C   UNL     1      34.989 -16.720 -20.748  0.00  0.00    +0.003 C 
ATOM      7  C   UNL     1      35.468 -19.232 -21.147  0.00  0.00    +0.169 C 
ATOM      8  C   UNL     1      34.245 -15.504 -21.329  0.00  0.00    +0.000 C 
ATOM      9  C   UNL     1      34.629 -19.304 -23.462  0.00  0.00    +0.004 C 
ATOM     10  C   UNL     1      34.052 -16.672 -25.104  0.00  0.00    +0.004 C 
ATOM     11  C   UNL     1      33.435 -14.235 -23.425  0.00  0.00    +0.019 C 
ATOM     12  C   UNL     1      35.208 -20.178 -22.336  0.00  0.00    +0.044 C 
ATOM     13  C   UNL     1      33.127 -15.556 -25.610  0.00  0.00    +0.022 C 
ATOM     14  C   UNL     1      33.092 -18.353 -21.017  0.00  0.00    +0.004 C 
ATOM     15  C   UNL     1      33.394 -14.227 -24.946  0.00  0.00    -0.042 C 
ATOM     16  C   UNL     1      33.933 -12.889 -22.857  0.00  0.00    +0.012 C 
ATOM     17  C   UNL     1      35.478 -16.483 -25.634  0.00  0.00    +0.000 C 
ATOM     18  C   UNL     1      33.340 -11.693 -23.583  0.00  0.00    +0.069 C 
ATOM     19  C   UNL     1      33.535 -13.121 -25.695  0.00  0.00    +0.029 C 
ATOM     20  C   UNL     1      33.630 -11.787 -25.058  0.00  0.00    +0.173 C 
ENDROOT
BRANCH   7  21
ATOM     21  O   UNL     1      35.199 -19.859 -19.908  0.00  0.00    -0.452 OA
BRANCH  21  23
ATOM     22  O   UNL     1      36.937 -21.381 -19.902  0.00  0.00    -0.250 OA
ATOM     23  C   UNL     1      35.761 -21.096 -19.725  0.00  0.00    +0.317 C 
ATOM     24  C   UNL     1      34.720 -22.073 -19.267  0.00  0.00    +0.121 C 
ENDBRANCH  21  23
ENDBRANCH   7  21
TORSDOF 2
ENDMDL
MODEL 6
REMARK VINA RESULT:      -7.9     11.043     16.027
REMARK  Name = 10246085
REMARK  2 active torsions:
REMARK  status: ('A' for Active; 'I' for Inactive)
REMARK    1  A    between atoms: C_7  and  O_21
REMARK    2  A    between atoms: O_21  and  C_23
REMARK                            x       y       z     vdW  Elec       q    Type
REMARK                         _______ _______ _______ _____ _____    ______ ____
ROOT
ATOM      1  O   UNL     1      34.880 -19.424 -23.118  0.00  0.00    -0.291 OA
ATOM      2  C   UNL     1      35.348 -23.553 -16.664  0.00  0.00    +0.003 C 
ATOM      3  C   UNL     1      36.470 -23.135 -15.692  0.00  0.00    +0.037 C 
ATOM      4  C   UNL     1      34.817 -22.377 -17.491  0.00  0.00    +0.001 C 
ATOM      5  C   UNL     1      35.991 -21.777 -18.327  0.00  0.00    +0.004 C 
ATOM      6  C   UNL     1      37.650 -22.618 -16.522  0.00  0.00    +0.003 C 
ATOM      7  C   UNL     1      36.715 -24.490 -14.999  0.00  0.00    +0.169 C 
ATOM      8  C   UNL     1      37.229 -21.460 -17.445  0.00  0.00    +0.000 C 
ATOM      9  C   UNL     1      34.383 -24.333 -15.777  0.00  0.00    +0.004 C 
ATOM     10  C   UNL     1      33.603 -22.736 -18.383  0.00  0.00    +0.004 C 
ATOM     11  C   UNL     1      35.527 -20.532 -19.148  0.00  0.00    +0.019 C 
ATOM     12  C   UNL     1      35.299 -25.055 -14.772  0.00  0.00    +0.044 C 
ATOM     13  C   UNL     1      33.134 -21.474 -19.120  0.00  0.00    +0.022 C 
ATOM     14  C   UNL     1      36.063 -22.063 -14.648  0.00  0.00    +0.004 C 
ATOM     15  C   UNL     1      34.237 -20.808 -19.906  0.00  0.00    -0.042 C 
ATOM     16  C   UNL     1      36.656 -20.062 -20.089  0.00  0.00    +0.012 C 
ATOM     17  C   UNL     1      33.848 -23.885 -19.369  0.00  0.00    +0.000 C 
ATOM     18  C   UNL     1      36.173 -19.068 -21.131  0.00  0.00    +0.069 C 
ATOM     19  C   UNL     1      34.028 -20.457 -21.186  0.00  0.00    +0.029 C 
ATOM     20  C   UNL     1      35.034 -19.656 -21.921  0.00  0.00    +0.173 C 
ENDROOT
BRANCH   7  21
ATOM     21  O   UNL     1      37.432 -24.369 -13.785  0.00  0.00    -0.452 OA
BRANCH  21  23
ATOM     22  O   UNL     1      37.664 -26.200 -12.396  0.00  0.00    -0.250 OA
ATOM     23  C   UNL     1      38.044 -25.509 -13.331  0.00  0.00    +0.317 C 
ATOM     24  C   UNL     1      39.265 -25.801 -14.150  0.00  0.00    +0.121 C 
ENDBRANCH  21  23
ENDBRANCH   7  21
TORSDOF 2
ENDMDL
MODEL 7
REMARK VINA RESULT:      -7.9     10.229     14.503
REMARK  Name = 10246085
REMARK  2 active torsions:
REMARK  status: ('A' for Active; 'I' for Inactive)
REMARK    1  A    between atoms: C_7  and  O_21
REMARK    2  A    between atoms: O_21  and  C_23
REMARK                            x       y       z     vdW  Elec       q    Type
REMARK                         _______ _______ _______ _____ _____    ______ ____
ROOT
ATOM      1  O   UNL     1      36.677 -24.677 -11.329  0.00  0.00    -0.291 OA
ATOM      2  C   UNL     1      34.270 -21.960 -18.092  0.00  0.00    +0.003 C 
ATOM      3  C   UNL     1      35.387 -21.572 -19.084  0.00  0.00    +0.037 C 
ATOM      4  C   UNL     1      34.686 -23.098 -17.154  0.00  0.00    +0.001 C 
ATOM      5  C   UNL     1      35.934 -22.645 -16.333  0.00  0.00    +0.004 C 
ATOM      6  C   UNL     1      36.582 -21.056 -18.275  0.00  0.00    +0.003 C 
ATOM      7  C   UNL     1      34.639 -20.491 -19.889  0.00  0.00    +0.169 C 
ATOM      8  C   UNL     1      37.063 -22.096 -17.248  0.00  0.00    +0.000 C 
ATOM      9  C   UNL     1      33.050 -22.144 -18.988  0.00  0.00    +0.004 C 
ATOM     10  C   UNL     1      33.546 -23.598 -16.233  0.00  0.00    +0.004 C 
ATOM     11  C   UNL     1      36.446 -23.786 -15.398  0.00  0.00    +0.019 C 
ATOM     12  C   UNL     1      33.229 -21.082 -20.088  0.00  0.00    +0.044 C 
ATOM     13  C   UNL     1      34.067 -24.763 -15.381  0.00  0.00    +0.022 C 
ATOM     14  C   UNL     1      35.851 -22.715 -20.022  0.00  0.00    +0.004 C 
ATOM     15  C   UNL     1      35.310 -24.411 -14.601  0.00  0.00    -0.042 C 
ATOM     16  C   UNL     1      37.570 -23.262 -14.481  0.00  0.00    +0.012 C 
ATOM     17  C   UNL     1      32.911 -22.516 -15.350  0.00  0.00    +0.000 C 
ATOM     18  C   UNL     1      37.891 -24.217 -13.344  0.00  0.00    +0.069 C 
ATOM     19  C   UNL     1      35.380 -24.693 -13.290  0.00  0.00    +0.029 C 
ATOM     20  C   UNL     1      36.648 -24.510 -12.546  0.00  0.00    +0.173 C 
ENDROOT
BRANCH   7  21
ATOM     21  O   UNL     1      35.261 -20.191 -21.123  0.00  0.00    -0.452 OA
BRANCH  21  23
ATOM     22  O   UNL     1      35.686 -17.965 -20.671  0.00  0.00    -0.250 OA
ATOM     23  C   UNL     1      35.362 -18.860 -21.439  0.00  0.00    +0.317 C 
ATOM     24  C   UNL     1      35.016 -18.645 -22.882  0.00  0.00    +0.121 C 
ENDBRANCH  21  23
ENDBRANCH   7  21
TORSDOF 2
ENDMDL
MODEL 8
REMARK VINA RESULT:      -7.8      2.121      7.018
REMARK  Name = 10246085
REMARK  2 active torsions:
REMARK  status: ('A' for Active; 'I' for Inactive)
REMARK    1  A    between atoms: C_7  and  O_21
REMARK    2  A    between atoms: O_21  and  C_23
REMARK                            x       y       z     vdW  Elec       q    Type
REMARK                         _______ _______ _______ _____ _____    ______ ____
ROOT
ATOM      1  O   UNL     1      30.959  -5.455 -22.387  0.00  0.00    -0.291 OA
ATOM      2  C   UNL     1      32.440 -12.984 -22.179  0.00  0.00    +0.003 C 
ATOM      3  C   UNL     1      33.539 -13.468 -23.148  0.00  0.00    +0.037 C 
ATOM      4  C   UNL     1      32.661 -11.541 -21.713  0.00  0.00    +0.001 C 
ATOM      5  C   UNL     1      32.663 -10.602 -22.960  0.00  0.00    +0.004 C 
ATOM      6  C   UNL     1      33.485 -12.591 -24.404  0.00  0.00    +0.003 C 
ATOM      7  C   UNL     1      33.064 -14.920 -23.355  0.00  0.00    +0.169 C 
ATOM      8  C   UNL     1      33.640 -11.099 -24.060  0.00  0.00    +0.000 C 
ATOM      9  C   UNL     1      32.369 -14.098 -21.139  0.00  0.00    +0.004 C 
ATOM     10  C   UNL     1      31.649 -11.067 -20.641  0.00  0.00    +0.004 C 
ATOM     11  C   UNL     1      32.945  -9.120 -22.557  0.00  0.00    +0.019 C 
ATOM     12  C   UNL     1      32.642 -15.380 -21.946  0.00  0.00    +0.044 C 
ATOM     13  C   UNL     1      32.001  -9.634 -20.220  0.00  0.00    +0.022 C 
ATOM     14  C   UNL     1      34.975 -13.451 -22.566  0.00  0.00    +0.004 C 
ATOM     15  C   UNL     1      32.076  -8.680 -21.388  0.00  0.00    -0.042 C 
ATOM     16  C   UNL     1      32.776  -8.193 -23.778  0.00  0.00    +0.012 C 
ATOM     17  C   UNL     1      30.177 -11.168 -21.058  0.00  0.00    +0.000 C 
ATOM     18  C   UNL     1      32.725  -6.724 -23.395  0.00  0.00    +0.069 C 
ATOM     19  C   UNL     1      31.430  -7.503 -21.334  0.00  0.00    +0.029 C 
ATOM     20  C   UNL     1      31.626  -6.487 -22.393  0.00  0.00    +0.173 C 
ENDROOT
BRANCH   7  21
ATOM     21  O   UNL     1      34.064 -15.757 -23.903  0.00  0.00    -0.452 OA
BRANCH  21  23
ATOM     22  O   UNL     1      33.333 -15.634 -26.092  0.00  0.00    -0.250 OA
ATOM     23  C   UNL     1      33.812 -16.258 -25.154  0.00  0.00    +0.317 C 
ATOM     24  C   UNL     1      34.209 -17.702 -25.222  0.00  0.00    +0.121 C 
ENDBRANCH  21  23
ENDBRANCH   7  21
TORSDOF 2
ENDMDL
MODEL 9
REMARK VINA RESULT:      -7.7     14.974     17.075
REMARK  Name = 10246085
REMARK  2 active torsions:
REMARK  status: ('A' for Active; 'I' for Inactive)
REMARK    1  A    between atoms: C_7  and  O_21
REMARK    2  A    between atoms: O_21  and  C_23
REMARK                            x       y       z     vdW  Elec       q    Type
REMARK                         _______ _______ _______ _____ _____    ______ ____
ROOT
ATOM      1  O   UNL     1      39.580 -25.330 -13.495  0.00  0.00    -0.291 OA
ATOM      2  C   UNL     1      32.557 -23.447 -15.955  0.00  0.00    +0.003 C 
ATOM      3  C   UNL     1      31.412 -23.719 -14.957  0.00  0.00    +0.037 C 
ATOM      4  C   UNL     1      33.883 -23.130 -15.257  0.00  0.00    +0.001 C 
ATOM      5  C   UNL     1      34.288 -24.347 -14.366  0.00  0.00    +0.004 C 
ATOM      6  C   UNL     1      31.781 -24.961 -14.138  0.00  0.00    +0.003 C 
ATOM      7  C   UNL     1      30.256 -23.927 -15.956  0.00  0.00    +0.169 C 
ATOM      8  C   UNL     1      33.134 -24.789 -13.426  0.00  0.00    +0.000 C 
ATOM      9  C   UNL     1      31.957 -22.421 -16.911  0.00  0.00    +0.004 C 
ATOM     10  C   UNL     1      35.021 -22.727 -16.226  0.00  0.00    +0.004 C 
ATOM     11  C   UNL     1      35.606 -24.063 -13.578  0.00  0.00    +0.019 C 
ATOM     12  C   UNL     1      30.476 -22.827 -17.014  0.00  0.00    +0.044 C 
ATOM     13  C   UNL     1      36.276 -22.388 -15.411  0.00  0.00    +0.022 C 
ATOM     14  C   UNL     1      31.090 -22.544 -13.999  0.00  0.00    +0.004 C 
ATOM     15  C   UNL     1      36.693 -23.503 -14.483  0.00  0.00    -0.042 C 
ATOM     16  C   UNL     1      36.072 -25.335 -12.840  0.00  0.00    +0.012 C 
ATOM     17  C   UNL     1      35.338 -23.762 -17.312  0.00  0.00    +0.000 C 
ATOM     18  C   UNL     1      37.494 -25.221 -12.318  0.00  0.00    +0.069 C 
ATOM     19  C   UNL     1      37.972 -23.914 -14.462  0.00  0.00    +0.029 C 
ATOM     20  C   UNL     1      38.434 -24.886 -13.446  0.00  0.00    +0.173 C 
ENDROOT
BRANCH   7  21
ATOM     21  O   UNL     1      28.980 -23.829 -15.354  0.00  0.00    -0.452 OA
BRANCH  21  23
ATOM     22  O   UNL     1      27.623 -24.171 -17.193  0.00  0.00    -0.250 OA
ATOM     23  C   UNL     1      27.938 -23.535 -16.196  0.00  0.00    +0.317 C 
ATOM     24  C   UNL     1      27.220 -22.308 -15.721  0.00  0.00    +0.121 C 
ENDBRANCH  21  23
ENDBRANCH   7  21
TORSDOF 2
ENDMDL
