MODEL 1
REMARK VINA RESULT:      -9.3      0.000      0.000
REMARK  Name = 65589
REMARK  4 active torsions:
REMARK  status: ('A' for Active; 'I' for Inactive)
REMARK    1  A    between atoms: N_1  and  C_16
REMARK    2  A    between atoms: C_16  and  C_17
REMARK    3  A    between atoms: C_17  and  C_18
REMARK    4  A    between atoms: C_18  and  N_20
REMARK                            x       y       z     vdW  Elec       q    Type
REMARK                         _______ _______ _______ _____ _____    ______ ____
ROOT
ATOM      1  N   UNL     1      34.521 -23.475 -15.308  0.00  0.00    -0.287 N 
ATOM      2  C   UNL     1      35.260 -22.760 -16.284  0.00  0.00    +0.048 C 
ATOM      3  C   UNL     1      33.121 -23.429 -15.059  0.00  0.00    +0.048 C 
ATOM      4  C   UNL     1      33.661 -23.504 -18.085  0.00  0.00    +0.032 C 
ATOM      5  C   UNL     1      32.413 -22.860 -17.505  0.00  0.00    +0.032 C 
ATOM      6  C   UNL     1      34.879 -22.749 -17.638  0.00  0.00    -0.008 C 
ATOM      7  C   UNL     1      32.147 -23.118 -16.037  0.00  0.00    -0.008 C 
ATOM      8  C   UNL     1      36.420 -22.038 -15.925  0.00  0.00    +0.015 C 
ATOM      9  C   UNL     1      32.642 -23.661 -13.741  0.00  0.00    +0.015 C 
ATOM     10  C   UNL     1      35.640 -22.041 -18.585  0.00  0.00    -0.003 C 
ATOM     11  C   UNL     1      30.783 -23.022 -15.665  0.00  0.00    -0.003 C 
ATOM     12  C   UNL     1      37.169 -21.336 -16.871  0.00  0.00    +0.001 C 
ATOM     13  C   UNL     1      31.290 -23.580 -13.397  0.00  0.00    +0.001 C 
ATOM     14  C   UNL     1      36.779 -21.338 -18.203  0.00  0.00    -0.000 C 
ATOM     15  C   UNL     1      30.357 -23.255 -14.363  0.00  0.00    -0.000 C 
ENDROOT
BRANCH   1  16
ATOM     16  C   UNL     1      35.360 -24.227 -14.360  0.00  0.00    +0.094 C 
BRANCH  16  17
ATOM     17  C   UNL     1      36.236 -25.237 -15.091  0.00  0.00    +0.005 C 
BRANCH  17  18
ATOM     18  C   UNL     1      37.719 -24.920 -14.964  0.00  0.00    -0.026 C 
BRANCH  18  20
ATOM     19  O   UNL     1      38.019 -27.220 -14.626  0.00  0.00    -0.290 OA
ATOM     20  N   UNL     1      38.403 -25.974 -14.180  0.00  0.00    +0.428 N 
ATOM     21  C   UNL     1      38.048 -25.858 -12.718  0.00  0.00    -0.045 C 
ATOM     22  C   UNL     1      39.900 -25.853 -14.331  0.00  0.00    -0.045 C 
ENDBRANCH  18  20
ENDBRANCH  17  18
ENDBRANCH  16  17
ENDBRANCH   1  16
TORSDOF 4
ENDMDL
MODEL 2
REMARK VINA RESULT:      -9.0      1.430      1.602
REMARK  Name = 65589
REMARK  4 active torsions:
REMARK  status: ('A' for Active; 'I' for Inactive)
REMARK    1  A    between atoms: N_1  and  C_16
REMARK    2  A    between atoms: C_16  and  C_17
REMARK    3  A    between atoms: C_17  and  C_18
REMARK    4  A    between atoms: C_18  and  N_20
REMARK                            x       y       z     vdW  Elec       q    Type
REMARK                         _______ _______ _______ _____ _____    ______ ____
ROOT
ATOM      1  N   UNL     1      34.215 -23.762 -15.437  0.00  0.00    -0.287 N 
ATOM      2  C   UNL     1      35.083 -22.988 -16.250  0.00  0.00    +0.048 C 
ATOM      3  C   UNL     1      32.814 -23.602 -15.248  0.00  0.00    +0.048 C 
ATOM      4  C   UNL     1      33.533 -23.261 -18.219  0.00  0.00    +0.032 C 
ATOM      5  C   UNL     1      32.322 -22.582 -17.600  0.00  0.00    +0.032 C 
ATOM      6  C   UNL     1      34.790 -22.724 -17.599  0.00  0.00    -0.008 C 
ATOM      7  C   UNL     1      31.939 -23.036 -16.207  0.00  0.00    -0.008 C 
ATOM      8  C   UNL     1      36.284 -22.464 -15.725  0.00  0.00    +0.015 C 
ATOM      9  C   UNL     1      32.232 -23.982 -14.009  0.00  0.00    +0.015 C 
ATOM     10  C   UNL     1      35.677 -21.964 -18.382  0.00  0.00    -0.003 C 
ATOM     11  C   UNL     1      30.572 -22.850 -15.887  0.00  0.00    -0.003 C 
ATOM     12  C   UNL     1      37.159 -21.709 -16.508  0.00  0.00    +0.001 C 
ATOM     13  C   UNL     1      30.876 -23.808 -13.720  0.00  0.00    +0.001 C 
ATOM     14  C   UNL     1      36.855 -21.459 -17.839  0.00  0.00    -0.000 C 
ATOM     15  C   UNL     1      30.042 -23.235 -14.661  0.00  0.00    -0.000 C 
ENDROOT
BRANCH   1  16
ATOM     16  C   UNL     1      34.911 -24.740 -14.586  0.00  0.00    +0.094 C 
BRANCH  16  17
ATOM     17  C   UNL     1      35.222 -24.147 -13.217  0.00  0.00    +0.005 C 
BRANCH  17  18
ATOM     18  C   UNL     1      36.158 -25.028 -12.401  0.00  0.00    -0.026 C 
BRANCH  18  20
ATOM     19  O   UNL     1      38.130 -24.848 -11.147  0.00  0.00    -0.290 OA
ATOM     20  N   UNL     1      37.487 -24.386 -12.275  0.00  0.00    +0.428 N 
ATOM     21  C   UNL     1      37.340 -22.888 -12.164  0.00  0.00    -0.045 C 
ATOM     22  C   UNL     1      38.341 -24.706 -13.478  0.00  0.00    -0.045 C 
ENDBRANCH  18  20
ENDBRANCH  17  18
ENDBRANCH  16  17
ENDBRANCH   1  16
TORSDOF 4
ENDMDL
MODEL 3
REMARK VINA RESULT:      -9.0     14.450     16.781
REMARK  Name = 65589
REMARK  4 active torsions:
REMARK  status: ('A' for Active; 'I' for Inactive)
REMARK    1  A    between atoms: N_1  and  C_16
REMARK    2  A    between atoms: C_16  and  C_17
REMARK    3  A    between atoms: C_17  and  C_18
REMARK    4  A    between atoms: C_18  and  N_20
REMARK                            x       y       z     vdW  Elec       q    Type
REMARK                         _______ _______ _______ _____ _____    ______ ____
ROOT
ATOM      1  N   UNL     1      32.007  -8.827 -22.791  0.00  0.00    -0.287 N 
ATOM      2  C   UNL     1      31.770  -9.520 -21.577  0.00  0.00    +0.048 C 
ATOM      3  C   UNL     1      31.750  -7.459 -23.086  0.00  0.00    +0.048 C 
ATOM      4  C   UNL     1      32.983  -7.729 -20.282  0.00  0.00    +0.032 C 
ATOM      5  C   UNL     1      32.063  -6.576 -20.650  0.00  0.00    +0.032 C 
ATOM      6  C   UNL     1      32.226  -9.024 -20.343  0.00  0.00    -0.008 C 
ATOM      7  C   UNL     1      31.737  -6.423 -22.121  0.00  0.00    -0.008 C 
ATOM      8  C   UNL     1      31.072 -10.747 -21.572  0.00  0.00    +0.015 C 
ATOM      9  C   UNL     1      31.435  -7.083 -24.420  0.00  0.00    +0.015 C 
ATOM     10  C   UNL     1      31.987  -9.741 -19.157  0.00  0.00    -0.003 C 
ATOM     11  C   UNL     1      31.391  -5.105 -22.509  0.00  0.00    -0.003 C 
ATOM     12  C   UNL     1      30.836 -11.452 -20.390  0.00  0.00    +0.001 C 
ATOM     13  C   UNL     1      31.115  -5.772 -24.786  0.00  0.00    +0.001 C 
ATOM     14  C   UNL     1      31.295 -10.949 -19.181  0.00  0.00    -0.000 C 
ATOM     15  C   UNL     1      31.089  -4.780 -23.825  0.00  0.00    -0.000 C 
ENDROOT
BRANCH   1  16
ATOM     16  C   UNL     1      32.426  -9.697 -23.901  0.00  0.00    +0.094 C 
BRANCH  16  17
ATOM     17  C   UNL     1      33.411 -10.756 -23.420  0.00  0.00    +0.005 C 
BRANCH  17  18
ATOM     18  C   UNL     1      33.728 -11.786 -24.495  0.00  0.00    -0.026 C 
BRANCH  18  20
ATOM     19  O   UNL     1      32.062 -13.035 -23.420  0.00  0.00    -0.290 OA
ATOM     20  N   UNL     1      33.275 -13.130 -24.068  0.00  0.00    +0.428 N 
ATOM     21  C   UNL     1      34.275 -13.749 -23.124  0.00  0.00    -0.045 C 
ATOM     22  C   UNL     1      33.108 -14.034 -25.266  0.00  0.00    -0.045 C 
ENDBRANCH  18  20
ENDBRANCH  17  18
ENDBRANCH  16  17
ENDBRANCH   1  16
TORSDOF 4
ENDMDL
MODEL 4
REMARK VINA RESULT:      -8.5     12.573     15.122
REMARK  Name = 65589
REMARK  4 active torsions:
REMARK  status: ('A' for Active; 'I' for Inactive)
REMARK    1  A    between atoms: N_1  and  C_16
REMARK    2  A    between atoms: C_16  and  C_17
REMARK    3  A    between atoms: C_17  and  C_18
REMARK    4  A    between atoms: C_18  and  N_20
REMARK                            x       y       z     vdW  Elec       q    Type
REMARK                         _______ _______ _______ _____ _____    ______ ____
ROOT
ATOM      1  N   UNL     1      33.175 -12.395 -23.732  0.00  0.00    -0.287 N 
ATOM      2  C   UNL     1      33.402 -13.684 -24.279  0.00  0.00    +0.048 C 
ATOM      3  C   UNL     1      32.534 -12.062 -22.507  0.00  0.00    +0.048 C 
ATOM      4  C   UNL     1      34.414 -14.462 -22.106  0.00  0.00    +0.032 C 
ATOM      5  C   UNL     1      33.184 -14.248 -21.239  0.00  0.00    +0.032 C 
ATOM      6  C   UNL     1      33.999 -14.711 -23.526  0.00  0.00    -0.008 C 
ATOM      7  C   UNL     1      32.497 -12.905 -21.370  0.00  0.00    -0.008 C 
ATOM      8  C   UNL     1      33.041 -13.975 -25.612  0.00  0.00    +0.015 C 
ATOM      9  C   UNL     1      31.837 -10.828 -22.401  0.00  0.00    +0.015 C 
ATOM     10  C   UNL     1      34.223 -15.975 -24.101  0.00  0.00    -0.003 C 
ATOM     11  C   UNL     1      31.763 -12.509 -20.225  0.00  0.00    -0.003 C 
ATOM     12  C   UNL     1      33.264 -15.233 -26.176  0.00  0.00    +0.001 C 
ATOM     13  C   UNL     1      31.134 -10.447 -21.254  0.00  0.00    +0.001 C 
ATOM     14  C   UNL     1      33.857 -16.234 -25.418  0.00  0.00    -0.000 C 
ATOM     15  C   UNL     1      31.094 -11.293 -20.163  0.00  0.00    -0.000 C 
ENDROOT
BRANCH   1  16
ATOM     16  C   UNL     1      33.521 -11.293 -24.644  0.00  0.00    +0.094 C 
BRANCH  16  17
ATOM     17  C   UNL     1      34.408 -10.268 -23.947  0.00  0.00    +0.005 C 
BRANCH  17  18
ATOM     18  C   UNL     1      34.692  -9.055 -24.821  0.00  0.00    -0.026 C 
BRANCH  18  20
ATOM     19  O   UNL     1      35.067  -7.668 -22.969  0.00  0.00    -0.290 OA
ATOM     20  N   UNL     1      34.310  -7.812 -24.111  0.00  0.00    +0.428 N 
ATOM     21  C   UNL     1      32.854  -7.855 -23.719  0.00  0.00    -0.045 C 
ATOM     22  C   UNL     1      34.543  -6.610 -24.994  0.00  0.00    -0.045 C 
ENDBRANCH  18  20
ENDBRANCH  17  18
ENDBRANCH  16  17
ENDBRANCH   1  16
TORSDOF 4
ENDMDL
MODEL 5
REMARK VINA RESULT:      -8.4      2.198      5.546
REMARK  Name = 65589
REMARK  4 active torsions:
REMARK  status: ('A' for Active; 'I' for Inactive)
REMARK    1  A    between atoms: N_1  and  C_16
REMARK    2  A    between atoms: C_16  and  C_17
REMARK    3  A    between atoms: C_17  and  C_18
REMARK    4  A    between atoms: C_18  and  N_20
REMARK                            x       y       z     vdW  Elec       q    Type
REMARK                         _______ _______ _______ _____ _____    ______ ____
ROOT
ATOM      1  N   UNL     1      35.050 -23.226 -15.332  0.00  0.00    -0.287 N 
ATOM      2  C   UNL     1      35.039 -22.816 -16.690  0.00  0.00    +0.048 C 
ATOM      3  C   UNL     1      36.069 -23.935 -14.637  0.00  0.00    +0.048 C 
ATOM      4  C   UNL     1      37.312 -21.761 -16.421  0.00  0.00    +0.032 C 
ATOM      5  C   UNL     1      38.065 -23.029 -16.053  0.00  0.00    +0.032 C 
ATOM      6  C   UNL     1      36.112 -22.105 -17.254  0.00  0.00    -0.008 C 
ATOM      7  C   UNL     1      37.444 -23.885 -14.970  0.00  0.00    -0.008 C 
ATOM      8  C   UNL     1      33.934 -23.103 -17.520  0.00  0.00    +0.015 C 
ATOM      9  C   UNL     1      35.709 -24.793 -13.562  0.00  0.00    +0.015 C 
ATOM     10  C   UNL     1      36.066 -21.701 -18.601  0.00  0.00    -0.003 C 
ATOM     11  C   UNL     1      38.368 -24.692 -14.261  0.00  0.00    -0.003 C 
ATOM     12  C   UNL     1      33.896 -22.700 -18.857  0.00  0.00    +0.001 C 
ATOM     13  C   UNL     1      36.639 -25.567 -12.863  0.00  0.00    +0.001 C 
ATOM     14  C   UNL     1      34.964 -21.997 -19.397  0.00  0.00    -0.000 C 
ATOM     15  C   UNL     1      37.974 -25.520 -13.217  0.00  0.00    -0.000 C 
ENDROOT
BRANCH   1  16
ATOM     16  C   UNL     1      33.772 -23.009 -14.635  0.00  0.00    +0.094 C 
BRANCH  16  17
ATOM     17  C   UNL     1      32.888 -24.247 -14.719  0.00  0.00    +0.005 C 
BRANCH  17  18
ATOM     18  C   UNL     1      31.572 -24.074 -13.975  0.00  0.00    -0.026 C 
BRANCH  18  20
ATOM     19  O   UNL     1      30.909 -24.174 -16.221  0.00  0.00    -0.290 OA
ATOM     20  N   UNL     1      30.447 -23.992 -14.935  0.00  0.00    +0.428 N 
ATOM     21  C   UNL     1      29.781 -22.640 -14.852  0.00  0.00    -0.045 C 
ATOM     22  C   UNL     1      29.423 -25.060 -14.638  0.00  0.00    -0.045 C 
ENDBRANCH  18  20
ENDBRANCH  17  18
ENDBRANCH  16  17
ENDBRANCH   1  16
TORSDOF 4
ENDMDL
MODEL 6
REMARK VINA RESULT:      -8.4     11.076     13.623
REMARK  Name = 65589
REMARK  4 active torsions:
REMARK  status: ('A' for Active; 'I' for Inactive)
REMARK    1  A    between atoms: N_1  and  C_16
REMARK    2  A    between atoms: C_16  and  C_17
REMARK    3  A    between atoms: C_17  and  C_18
REMARK    4  A    between atoms: C_18  and  N_20
REMARK                            x       y       z     vdW  Elec       q    Type
REMARK                         _______ _______ _______ _____ _____    ______ ____
ROOT
ATOM      1  N   UNL     1      32.940 -13.022 -23.239  0.00  0.00    -0.287 N 
ATOM      2  C   UNL     1      32.529 -11.771 -22.713  0.00  0.00    +0.048 C 
ATOM      3  C   UNL     1      33.140 -13.379 -24.601  0.00  0.00    +0.048 C 
ATOM      4  C   UNL     1      34.312 -10.590 -24.047  0.00  0.00    +0.032 C 
ATOM      5  C   UNL     1      33.814 -10.995 -25.425  0.00  0.00    +0.032 C 
ATOM      6  C   UNL     1      33.167 -10.572 -23.077  0.00  0.00    -0.008 C 
ATOM      7  C   UNL     1      33.506 -12.465 -25.619  0.00  0.00    -0.008 C 
ATOM      8  C   UNL     1      31.464 -11.692 -21.789  0.00  0.00    +0.015 C 
ATOM      9  C   UNL     1      32.922 -14.723 -25.007  0.00  0.00    +0.015 C 
ATOM     10  C   UNL     1      32.745  -9.348 -22.527  0.00  0.00    -0.003 C 
ATOM     11  C   UNL     1      33.603 -12.910 -26.961  0.00  0.00    -0.003 C 
ATOM     12  C   UNL     1      31.050 -10.472 -21.249  0.00  0.00    +0.001 C 
ATOM     13  C   UNL     1      33.042 -15.146 -26.334  0.00  0.00    +0.001 C 
ATOM     14  C   UNL     1      31.692  -9.299 -21.619  0.00  0.00    -0.000 C 
ATOM     15  C   UNL     1      33.380 -14.235 -27.316  0.00  0.00    -0.000 C 
ENDROOT
BRANCH   1  16
ATOM     16  C   UNL     1      33.007 -14.097 -22.235  0.00  0.00    +0.094 C 
BRANCH  16  17
ATOM     17  C   UNL     1      34.451 -14.511 -21.977  0.00  0.00    +0.005 C 
BRANCH  17  18
ATOM     18  C   UNL     1      34.577 -15.490 -20.818  0.00  0.00    -0.026 C 
BRANCH  18  20
ATOM     19  O   UNL     1      35.652 -17.554 -20.541  0.00  0.00    -0.290 OA
ATOM     20  N   UNL     1      34.753 -16.869 -21.329  0.00  0.00    +0.428 N 
ATOM     21  C   UNL     1      35.277 -16.845 -22.743  0.00  0.00    -0.045 C 
ATOM     22  C   UNL     1      33.437 -17.609 -21.308  0.00  0.00    -0.045 C 
ENDBRANCH  18  20
ENDBRANCH  17  18
ENDBRANCH  16  17
ENDBRANCH   1  16
TORSDOF 4
ENDMDL
MODEL 7
REMARK VINA RESULT:      -8.1     15.228     17.937
REMARK  Name = 65589
REMARK  4 active torsions:
REMARK  status: ('A' for Active; 'I' for Inactive)
REMARK    1  A    between atoms: N_1  and  C_16
REMARK    2  A    between atoms: C_16  and  C_17
REMARK    3  A    between atoms: C_17  and  C_18
REMARK    4  A    between atoms: C_18  and  N_20
REMARK                            x       y       z     vdW  Elec       q    Type
REMARK                         _______ _______ _______ _____ _____    ______ ____
ROOT
ATOM      1  N   UNL     1      32.734  -8.869 -22.338  0.00  0.00    -0.287 N 
ATOM      2  C   UNL     1      32.203  -9.493 -21.180  0.00  0.00    +0.048 C 
ATOM      3  C   UNL     1      33.482  -9.464 -23.392  0.00  0.00    +0.048 C 
ATOM      4  C   UNL     1      31.129 -11.280 -22.598  0.00  0.00    +0.032 C 
ATOM      5  C   UNL     1      32.410 -11.836 -23.199  0.00  0.00    +0.032 C 
ATOM      6  C   UNL     1      31.421 -10.659 -21.263  0.00  0.00    -0.008 C 
ATOM      7  C   UNL     1      33.374 -10.822 -23.778  0.00  0.00    -0.008 C 
ATOM      8  C   UNL     1      32.436  -8.951 -19.898  0.00  0.00    +0.015 C 
ATOM      9  C   UNL     1      34.441  -8.683 -24.091  0.00  0.00    +0.015 C 
ATOM     10  C   UNL     1      30.898 -11.247 -20.098  0.00  0.00    -0.003 C 
ATOM     11  C   UNL     1      34.223 -11.334 -24.790  0.00  0.00    -0.003 C 
ATOM     12  C   UNL     1      31.914  -9.541 -18.745  0.00  0.00    +0.001 C 
ATOM     13  C   UNL     1      35.256  -9.203 -25.100  0.00  0.00    +0.001 C 
ATOM     14  C   UNL     1      31.143 -10.691 -18.846  0.00  0.00    -0.000 C 
ATOM     15  C   UNL     1      35.150 -10.535 -25.448  0.00  0.00    -0.000 C 
ENDROOT
BRANCH   1  16
ATOM     16  C   UNL     1      32.607  -7.403 -22.335  0.00  0.00    +0.094 C 
BRANCH  16  17
ATOM     17  C   UNL     1      31.192  -6.978 -22.713  0.00  0.00    +0.005 C 
BRANCH  17  18
ATOM     18  C   UNL     1      31.071  -6.605 -24.183  0.00  0.00    -0.026 C 
BRANCH  18  20
ATOM     19  O   UNL     1      30.273  -4.580 -25.053  0.00  0.00    -0.290 OA
ATOM     20  N   UNL     1      31.320  -5.157 -24.367  0.00  0.00    +0.428 N 
ATOM     21  C   UNL     1      32.588  -4.936 -25.155  0.00  0.00    -0.045 C 
ATOM     22  C   UNL     1      31.451  -4.471 -23.029  0.00  0.00    -0.045 C 
ENDBRANCH  18  20
ENDBRANCH  17  18
ENDBRANCH  16  17
ENDBRANCH   1  16
TORSDOF 4
ENDMDL
MODEL 8
REMARK VINA RESULT:      -8.0     11.931     14.505
REMARK  Name = 65589
REMARK  4 active torsions:
REMARK  status: ('A' for Active; 'I' for Inactive)
REMARK    1  A    between atoms: N_1  and  C_16
REMARK    2  A    between atoms: C_16  and  C_17
REMARK    3  A    between atoms: C_17  and  C_18
REMARK    4  A    between atoms: C_18  and  N_20
REMARK                            x       y       z     vdW  Elec       q    Type
REMARK                         _______ _______ _______ _____ _____    ______ ____
ROOT
ATOM      1  N   UNL     1      33.184 -11.997 -23.723  0.00  0.00    -0.287 N 
ATOM      2  C   UNL     1      33.134 -10.625 -23.367  0.00  0.00    +0.048 C 
ATOM      3  C   UNL     1      33.385 -12.562 -25.013  0.00  0.00    +0.048 C 
ATOM      4  C   UNL     1      35.304 -10.199 -24.576  0.00  0.00    +0.032 C 
ATOM      5  C   UNL     1      34.829 -10.606 -25.962  0.00  0.00    +0.032 C 
ATOM      6  C   UNL     1      34.139  -9.724 -23.758  0.00  0.00    -0.008 C 
ATOM      7  C   UNL     1      34.102 -11.931 -26.058  0.00  0.00    -0.008 C 
ATOM      8  C   UNL     1      32.068 -10.121 -22.591  0.00  0.00    +0.015 C 
ATOM      9  C   UNL     1      32.801 -13.821 -25.319  0.00  0.00    +0.015 C 
ATOM     10  C   UNL     1      34.067  -8.371 -23.377  0.00  0.00    -0.003 C 
ATOM     11  C   UNL     1      34.176 -12.546 -27.332  0.00  0.00    -0.003 C 
ATOM     12  C   UNL     1      32.002  -8.777 -22.218  0.00  0.00    +0.001 C 
ATOM     13  C   UNL     1      32.901 -14.421 -26.577  0.00  0.00    +0.001 C 
ATOM     14  C   UNL     1      33.004  -7.901 -22.612  0.00  0.00    -0.000 C 
ATOM     15  C   UNL     1      33.588 -13.779 -27.590  0.00  0.00    -0.000 C 
ENDROOT
BRANCH   1  16
ATOM     16  C   UNL     1      32.829 -12.911 -22.625  0.00  0.00    +0.094 C 
BRANCH  16  17
ATOM     17  C   UNL     1      33.982 -13.856 -22.309  0.00  0.00    +0.005 C 
BRANCH  17  18
ATOM     18  C   UNL     1      33.608 -15.317 -22.512  0.00  0.00    -0.026 C 
BRANCH  18  20
ATOM     19  O   UNL     1      32.433 -16.115 -20.647  0.00  0.00    -0.290 OA
ATOM     20  N   UNL     1      33.682 -16.048 -21.226  0.00  0.00    +0.428 N 
ATOM     21  C   UNL     1      34.615 -15.344 -20.271  0.00  0.00    -0.045 C 
ATOM     22  C   UNL     1      34.182 -17.456 -21.449  0.00  0.00    -0.045 C 
ENDBRANCH  18  20
ENDBRANCH  17  18
ENDBRANCH  16  17
ENDBRANCH   1  16
TORSDOF 4
ENDMDL
MODEL 9
REMARK VINA RESULT:      -7.7      2.461      5.871
REMARK  Name = 65589
REMARK  4 active torsions:
REMARK  status: ('A' for Active; 'I' for Inactive)
REMARK    1  A    between atoms: N_1  and  C_16
REMARK    2  A    between atoms: C_16  and  C_17
REMARK    3  A    between atoms: C_17  and  C_18
REMARK    4  A    between atoms: C_18  and  N_20
REMARK                            x       y       z     vdW  Elec       q    Type
REMARK                         _______ _______ _______ _____ _____    ______ ____
ROOT
ATOM      1  N   UNL     1      34.985 -24.040 -14.889  0.00  0.00    -0.287 N 
ATOM      2  C   UNL     1      35.763 -23.853 -13.718  0.00  0.00    +0.048 C 
ATOM      3  C   UNL     1      35.074 -23.339 -16.123  0.00  0.00    +0.048 C 
ATOM      4  C   UNL     1      37.887 -23.995 -15.067  0.00  0.00    +0.032 C 
ATOM      5  C   UNL     1      37.621 -22.794 -15.961  0.00  0.00    +0.032 C 
ATOM      6  C   UNL     1      37.168 -23.826 -13.761  0.00  0.00    -0.008 C 
ATOM      7  C   UNL     1      36.256 -22.735 -16.615  0.00  0.00    -0.008 C 
ATOM      8  C   UNL     1      35.143 -23.697 -12.459  0.00  0.00    +0.015 C 
ATOM      9  C   UNL     1      33.906 -23.177 -16.916  0.00  0.00    +0.015 C 
ATOM     10  C   UNL     1      37.911 -23.651 -12.580  0.00  0.00    -0.003 C 
ATOM     11  C   UNL     1      36.217 -21.991 -17.820  0.00  0.00    -0.003 C 
ATOM     12  C   UNL     1      35.888 -23.522 -11.291  0.00  0.00    +0.001 C 
ATOM     13  C   UNL     1      33.892 -22.455 -18.113  0.00  0.00    +0.001 C 
ATOM     14  C   UNL     1      37.274 -23.500 -11.352  0.00  0.00    -0.000 C 
ATOM     15  C   UNL     1      35.052 -21.856 -18.565  0.00  0.00    -0.000 C 
ENDROOT
BRANCH   1  16
ATOM     16  C   UNL     1      33.862 -24.976 -14.714  0.00  0.00    +0.094 C 
BRANCH  16  17
ATOM     17  C   UNL     1      32.681 -24.288 -14.040  0.00  0.00    +0.005 C 
BRANCH  17  18
ATOM     18  C   UNL     1      31.400 -25.104 -14.138  0.00  0.00    -0.026 C 
BRANCH  18  20
ATOM     19  O   UNL     1      30.697 -24.412 -16.264  0.00  0.00    -0.290 OA
ATOM     20  N   UNL     1      30.382 -24.369 -14.923  0.00  0.00    +0.428 N 
ATOM     21  C   UNL     1      30.326 -22.924 -14.491  0.00  0.00    -0.045 C 
ATOM     22  C   UNL     1      29.020 -24.990 -14.731  0.00  0.00    -0.045 C 
ENDBRANCH  18  20
ENDBRANCH  17  18
ENDBRANCH  16  17
ENDBRANCH   1  16
TORSDOF 4
ENDMDL
