MODEL 1
REMARK VINA RESULT:      -7.8      0.000      0.000
REMARK  Name = 95014
REMARK  1 active torsions:
REMARK  status: ('A' for Active; 'I' for Inactive)
REMARK    1  A    between atoms: C_11  and  N_15
REMARK                            x       y       z     vdW  Elec       q    Type
REMARK                         _______ _______ _______ _____ _____    ______ ____
ROOT
ATOM      1  O   UNL     1      32.105 -20.228 -20.973  0.00  0.00    -0.266 OA
ATOM      2  O   UNL     1      36.244 -22.251 -18.285  0.00  0.00    -0.266 OA
ATOM      3  N   UNL     1      32.936 -21.689 -19.420  0.00  0.00    -0.263 N 
ATOM      4  N   UNL     1      34.000 -22.209 -18.729  0.00  0.00    -0.263 N 
ATOM      5  C   UNL     1      34.424 -20.179 -20.598  0.00  0.00    +0.063 A 
ATOM      6  C   UNL     1      35.507 -20.709 -19.896  0.00  0.00    +0.062 A 
ATOM      7  C   UNL     1      34.631 -19.161 -21.536  0.00  0.00    +0.019 C 
ATOM      8  C   UNL     1      36.798 -20.223 -20.132  0.00  0.00    +0.006 C 
ATOM      9  C   UNL     1      33.061 -20.689 -20.356  0.00  0.00    +0.272 A 
ATOM     10  C   UNL     1      35.295 -21.781 -18.906  0.00  0.00    +0.272 A 
ATOM     11  C   UNL     1      35.919 -18.678 -21.768  0.00  0.00    +0.042 C 
ATOM     12  C   UNL     1      37.000 -19.209 -21.068  0.00  0.00    +0.014 C 
ATOM     13  H   UNL     1      32.039 -22.051 -19.238  0.00  0.00    +0.190 HD
ATOM     14  H   UNL     1      33.828 -22.923 -18.073  0.00  0.00    +0.190 HD
ENDROOT
BRANCH  11  15
ATOM     15  N   UNL     1      36.127 -17.651 -22.713  0.00  0.00    -0.357 N 
ATOM     16  H   UNL     1      36.932 -17.087 -22.657  0.00  0.00    +0.142 HD
ATOM     17  H   UNL     1      35.467 -17.497 -23.426  0.00  0.00    +0.142 HD
ENDBRANCH  11  15
TORSDOF 1
ENDMDL
MODEL 2
REMARK VINA RESULT:      -7.8      4.318      5.865
REMARK  Name = 95014
REMARK  1 active torsions:
REMARK  status: ('A' for Active; 'I' for Inactive)
REMARK    1  A    between atoms: C_11  and  N_15
REMARK                            x       y       z     vdW  Elec       q    Type
REMARK                         _______ _______ _______ _____ _____    ______ ____
ROOT
ATOM      1  O   UNL     1      34.314 -16.096 -25.704  0.00  0.00    -0.266 OA
ATOM      2  O   UNL     1      35.587 -17.766 -20.801  0.00  0.00    -0.266 OA
ATOM      3  N   UNL     1      35.422 -17.555 -24.334  0.00  0.00    -0.263 N 
ATOM      4  N   UNL     1      35.749 -17.985 -23.073  0.00  0.00    -0.263 N 
ATOM      5  C   UNL     1      34.071 -15.776 -23.389  0.00  0.00    +0.063 A 
ATOM      6  C   UNL     1      34.405 -16.212 -22.107  0.00  0.00    +0.062 A 
ATOM      7  C   UNL     1      33.230 -14.670 -23.554  0.00  0.00    +0.019 C 
ATOM      8  C   UNL     1      33.900 -15.541 -20.988  0.00  0.00    +0.006 C 
ATOM      9  C   UNL     1      34.603 -16.477 -24.573  0.00  0.00    +0.272 A 
ATOM     10  C   UNL     1      35.290 -17.378 -21.927  0.00  0.00    +0.272 A 
ATOM     11  C   UNL     1      32.727 -14.004 -22.436  0.00  0.00    +0.042 C 
ATOM     12  C   UNL     1      33.062 -14.439 -21.155  0.00  0.00    +0.014 C 
ATOM     13  H   UNL     1      35.794 -18.042 -25.104  0.00  0.00    +0.190 HD
ATOM     14  H   UNL     1      36.341 -18.767 -22.984  0.00  0.00    +0.190 HD
ENDROOT
BRANCH  11  15
ATOM     15  N   UNL     1      31.877 -12.890 -22.602  0.00  0.00    -0.357 N 
ATOM     16  H   UNL     1      31.367 -12.780 -23.436  0.00  0.00    +0.142 HD
ATOM     17  H   UNL     1      31.795 -12.222 -21.884  0.00  0.00    +0.142 HD
ENDBRANCH  11  15
TORSDOF 1
ENDMDL
MODEL 3
REMARK VINA RESULT:      -7.6      4.529      6.793
REMARK  Name = 95014
REMARK  1 active torsions:
REMARK  status: ('A' for Active; 'I' for Inactive)
REMARK    1  A    between atoms: C_11  and  N_15
REMARK                            x       y       z     vdW  Elec       q    Type
REMARK                         _______ _______ _______ _____ _____    ______ ____
ROOT
ATOM      1  O   UNL     1      34.619 -17.487 -25.681  0.00  0.00    -0.266 OA
ATOM      2  O   UNL     1      32.783 -13.116 -23.235  0.00  0.00    -0.266 OA
ATOM      3  N   UNL     1      33.565 -15.458 -25.777  0.00  0.00    -0.263 N 
ATOM      4  N   UNL     1      33.093 -14.334 -25.147  0.00  0.00    -0.263 N 
ATOM      5  C   UNL     1      34.360 -16.325 -23.655  0.00  0.00    +0.063 A 
ATOM      6  C   UNL     1      33.879 -15.183 -23.015  0.00  0.00    +0.062 A 
ATOM      7  C   UNL     1      34.997 -17.326 -22.913  0.00  0.00    +0.019 C 
ATOM      8  C   UNL     1      34.031 -15.040 -21.632  0.00  0.00    +0.006 C 
ATOM      9  C   UNL     1      34.199 -16.482 -25.113  0.00  0.00    +0.272 A 
ATOM     10  C   UNL     1      33.208 -14.124 -23.793  0.00  0.00    +0.272 A 
ATOM     11  C   UNL     1      35.148 -17.181 -21.533  0.00  0.00    +0.042 C 
ATOM     12  C   UNL     1      34.666 -16.040 -20.894  0.00  0.00    +0.014 C 
ATOM     13  H   UNL     1      33.441 -15.535 -26.750  0.00  0.00    +0.190 HD
ATOM     14  H   UNL     1      32.651 -13.644 -25.693  0.00  0.00    +0.190 HD
ENDROOT
BRANCH  11  15
ATOM     15  N   UNL     1      35.791 -18.189 -20.785  0.00  0.00    -0.357 N 
ATOM     16  H   UNL     1      36.260 -18.921 -21.247  0.00  0.00    +0.142 HD
ATOM     17  H   UNL     1      35.771 -18.161 -19.802  0.00  0.00    +0.142 HD
ENDBRANCH  11  15
TORSDOF 1
ENDMDL
MODEL 4
REMARK VINA RESULT:      -7.5      4.692      6.587
REMARK  Name = 95014
REMARK  1 active torsions:
REMARK  status: ('A' for Active; 'I' for Inactive)
REMARK    1  A    between atoms: C_11  and  N_15
REMARK                            x       y       z     vdW  Elec       q    Type
REMARK                         _______ _______ _______ _____ _____    ______ ____
ROOT
ATOM      1  O   UNL     1      34.954 -16.411 -20.401  0.00  0.00    -0.266 OA
ATOM      2  O   UNL     1      34.871 -16.766 -25.723  0.00  0.00    -0.266 OA
ATOM      3  N   UNL     1      35.648 -17.428 -22.331  0.00  0.00    -0.263 N 
ATOM      4  N   UNL     1      35.627 -17.519 -23.699  0.00  0.00    -0.263 N 
ATOM      5  C   UNL     1      34.114 -15.550 -22.420  0.00  0.00    +0.063 A 
ATOM      6  C   UNL     1      34.091 -15.644 -23.812  0.00  0.00    +0.062 A 
ATOM      7  C   UNL     1      33.358 -14.566 -21.774  0.00  0.00    +0.019 C 
ATOM      8  C   UNL     1      33.311 -14.755 -24.559  0.00  0.00    +0.006 C 
ATOM      9  C   UNL     1      34.932 -16.488 -21.627  0.00  0.00    +0.272 A 
ATOM     10  C   UNL     1      34.887 -16.679 -24.499  0.00  0.00    +0.272 A 
ATOM     11  C   UNL     1      32.583 -13.680 -22.522  0.00  0.00    +0.042 C 
ATOM     12  C   UNL     1      32.559 -13.775 -23.912  0.00  0.00    +0.014 C 
ATOM     13  H   UNL     1      36.202 -18.067 -21.828  0.00  0.00    +0.190 HD
ATOM     14  H   UNL     1      36.169 -18.219 -24.129  0.00  0.00    +0.190 HD
ENDROOT
BRANCH  11  15
ATOM     15  N   UNL     1      31.822 -12.686 -21.871  0.00  0.00    -0.357 N 
ATOM     16  H   UNL     1      30.869 -12.574 -22.090  0.00  0.00    +0.142 HD
ATOM     17  H   UNL     1      32.244 -12.106 -21.198  0.00  0.00    +0.142 HD
ENDBRANCH  11  15
TORSDOF 1
ENDMDL
MODEL 5
REMARK VINA RESULT:      -7.5      3.846      6.090
REMARK  Name = 95014
REMARK  1 active torsions:
REMARK  status: ('A' for Active; 'I' for Inactive)
REMARK    1  A    between atoms: C_11  and  N_15
REMARK                            x       y       z     vdW  Elec       q    Type
REMARK                         _______ _______ _______ _____ _____    ______ ____
ROOT
ATOM      1  O   UNL     1      34.569 -14.629 -20.880  0.00  0.00    -0.266 OA
ATOM      2  O   UNL     1      34.081 -16.435 -25.876  0.00  0.00    -0.266 OA
ATOM      3  N   UNL     1      34.060 -14.258 -23.080  0.00  0.00    -0.263 N 
ATOM      4  N   UNL     1      33.934 -14.723 -24.364  0.00  0.00    -0.263 N 
ATOM      5  C   UNL     1      34.752 -16.462 -22.339  0.00  0.00    +0.063 A 
ATOM      6  C   UNL     1      34.626 -16.934 -23.645  0.00  0.00    +0.062 A 
ATOM      7  C   UNL     1      35.162 -17.329 -21.319  0.00  0.00    +0.019 C 
ATOM      8  C   UNL     1      34.911 -18.273 -23.935  0.00  0.00    +0.006 C 
ATOM      9  C   UNL     1      34.457 -15.050 -22.028  0.00  0.00    +0.272 A 
ATOM     10  C   UNL     1      34.194 -16.025 -24.724  0.00  0.00    +0.272 A 
ATOM     11  C   UNL     1      35.444 -18.664 -21.611  0.00  0.00    +0.042 C 
ATOM     12  C   UNL     1      35.319 -19.134 -22.916  0.00  0.00    +0.014 C 
ATOM     13  H   UNL     1      33.857 -13.312 -22.904  0.00  0.00    +0.190 HD
ATOM     14  H   UNL     1      33.642 -14.094 -25.063  0.00  0.00    +0.190 HD
ENDROOT
BRANCH  11  15
ATOM     15  N   UNL     1      35.855 -19.538 -20.583  0.00  0.00    -0.357 N 
ATOM     16  H   UNL     1      35.457 -20.435 -20.512  0.00  0.00    +0.142 HD
ATOM     17  H   UNL     1      36.540 -19.251 -19.938  0.00  0.00    +0.142 HD
ENDBRANCH  11  15
TORSDOF 1
ENDMDL
MODEL 6
REMARK VINA RESULT:      -7.5      3.923      5.230
REMARK  Name = 95014
REMARK  1 active torsions:
REMARK  status: ('A' for Active; 'I' for Inactive)
REMARK    1  A    between atoms: C_11  and  N_15
REMARK                            x       y       z     vdW  Elec       q    Type
REMARK                         _______ _______ _______ _____ _____    ______ ____
ROOT
ATOM      1  O   UNL     1      34.954 -15.766 -20.309  0.00  0.00    -0.266 OA
ATOM      2  O   UNL     1      35.104 -19.611 -24.004  0.00  0.00    -0.266 OA
ATOM      3  N   UNL     1      35.372 -17.939 -20.892  0.00  0.00    -0.263 N 
ATOM      4  N   UNL     1      35.411 -18.927 -21.842  0.00  0.00    -0.263 N 
ATOM      5  C   UNL     1      34.606 -16.351 -22.558  0.00  0.00    +0.063 A 
ATOM      6  C   UNL     1      34.643 -17.357 -23.524  0.00  0.00    +0.062 A 
ATOM      7  C   UNL     1      34.203 -15.059 -22.911  0.00  0.00    +0.019 C 
ATOM      8  C   UNL     1      34.278 -17.072 -24.844  0.00  0.00    +0.006 C 
ATOM      9  C   UNL     1      34.988 -16.647 -21.164  0.00  0.00    +0.272 A 
ATOM     10  C   UNL     1      35.068 -18.722 -23.158  0.00  0.00    +0.272 A 
ATOM     11  C   UNL     1      33.840 -14.777 -24.229  0.00  0.00    +0.042 C 
ATOM     12  C   UNL     1      33.876 -15.782 -25.193  0.00  0.00    +0.014 C 
ATOM     13  H   UNL     1      35.631 -18.167 -19.970  0.00  0.00    +0.190 HD
ATOM     14  H   UNL     1      35.700 -19.828 -21.568  0.00  0.00    +0.190 HD
ENDROOT
BRANCH  11  15
ATOM     15  N   UNL     1      33.436 -13.473 -24.585  0.00  0.00    -0.357 N 
ATOM     16  H   UNL     1      33.704 -13.095 -25.454  0.00  0.00    +0.142 HD
ATOM     17  H   UNL     1      32.886 -12.942 -23.966  0.00  0.00    +0.142 HD
ENDBRANCH  11  15
TORSDOF 1
ENDMDL
MODEL 7
REMARK VINA RESULT:      -7.5      4.068      5.385
REMARK  Name = 95014
REMARK  1 active torsions:
REMARK  status: ('A' for Active; 'I' for Inactive)
REMARK    1  A    between atoms: C_11  and  N_15
REMARK                            x       y       z     vdW  Elec       q    Type
REMARK                         _______ _______ _______ _____ _____    ______ ____
ROOT
ATOM      1  O   UNL     1      35.154 -19.160 -23.992  0.00  0.00    -0.266 OA
ATOM      2  O   UNL     1      34.852 -15.498 -20.125  0.00  0.00    -0.266 OA
ATOM      3  N   UNL     1      35.454 -18.559 -21.804  0.00  0.00    -0.263 N 
ATOM      4  N   UNL     1      35.376 -17.617 -20.810  0.00  0.00    -0.263 N 
ATOM      5  C   UNL     1      34.580 -16.959 -23.404  0.00  0.00    +0.063 A 
ATOM      6  C   UNL     1      34.502 -16.001 -22.393  0.00  0.00    +0.062 A 
ATOM      7  C   UNL     1      34.182 -16.635 -24.706  0.00  0.00    +0.019 C 
ATOM      8  C   UNL     1      34.028 -14.717 -22.683  0.00  0.00    +0.006 C 
ATOM      9  C   UNL     1      35.082 -18.314 -23.105  0.00  0.00    +0.272 A 
ATOM     10  C   UNL     1      34.919 -16.337 -21.019  0.00  0.00    +0.272 A 
ATOM     11  C   UNL     1      33.708 -15.354 -24.992  0.00  0.00    +0.042 C 
ATOM     12  C   UNL     1      33.632 -14.397 -23.982  0.00  0.00    +0.014 C 
ATOM     13  H   UNL     1      35.794 -19.454 -21.574  0.00  0.00    +0.190 HD
ATOM     14  H   UNL     1      35.660 -17.871 -19.902  0.00  0.00    +0.190 HD
ENDROOT
BRANCH  11  15
ATOM     15  N   UNL     1      33.306 -15.028 -26.304  0.00  0.00    -0.357 N 
ATOM     16  H   UNL     1      33.024 -14.109 -26.518  0.00  0.00    +0.142 HD
ATOM     17  H   UNL     1      33.306 -15.718 -27.005  0.00  0.00    +0.142 HD
ENDBRANCH  11  15
TORSDOF 1
ENDMDL
MODEL 8
REMARK VINA RESULT:      -7.2      4.917      6.802
REMARK  Name = 95014
REMARK  1 active torsions:
REMARK  status: ('A' for Active; 'I' for Inactive)
REMARK    1  A    between atoms: C_11  and  N_15
REMARK                            x       y       z     vdW  Elec       q    Type
REMARK                         _______ _______ _______ _____ _____    ______ ____
ROOT
ATOM      1  O   UNL     1      36.342 -24.216 -15.679  0.00  0.00    -0.266 OA
ATOM      2  O   UNL     1      31.697 -24.399 -13.063  0.00  0.00    -0.266 OA
ATOM      3  N   UNL     1      35.145 -24.747 -13.803  0.00  0.00    -0.263 N 
ATOM      4  N   UNL     1      33.950 -24.794 -13.131  0.00  0.00    -0.263 N 
ATOM      5  C   UNL     1      34.037 -23.768 -15.726  0.00  0.00    +0.063 A 
ATOM      6  C   UNL     1      32.822 -23.814 -15.041  0.00  0.00    +0.062 A 
ATOM      7  C   UNL     1      34.086 -23.254 -17.027  0.00  0.00    +0.019 C 
ATOM      8  C   UNL     1      31.655 -23.346 -15.655  0.00  0.00    +0.006 C 
ATOM      9  C   UNL     1      35.270 -24.257 -15.082  0.00  0.00    +0.272 A 
ATOM     10  C   UNL     1      32.764 -24.355 -13.670  0.00  0.00    +0.272 A 
ATOM     11  C   UNL     1      32.920 -22.789 -17.637  0.00  0.00    +0.042 C 
ATOM     12  C   UNL     1      31.708 -22.835 -16.952  0.00  0.00    +0.014 C 
ATOM     13  H   UNL     1      35.951 -25.080 -13.347  0.00  0.00    +0.190 HD
ATOM     14  H   UNL     1      33.942 -25.162 -12.217  0.00  0.00    +0.190 HD
ENDROOT
BRANCH  11  15
ATOM     15  N   UNL     1      32.970 -22.273 -18.949  0.00  0.00    -0.357 N 
ATOM     16  H   UNL     1      33.699 -21.667 -19.212  0.00  0.00    +0.142 HD
ATOM     17  H   UNL     1      32.275 -22.520 -19.601  0.00  0.00    +0.142 HD
ENDBRANCH  11  15
TORSDOF 1
ENDMDL
MODEL 9
REMARK VINA RESULT:      -7.2      4.875      6.634
REMARK  Name = 95014
REMARK  1 active torsions:
REMARK  status: ('A' for Active; 'I' for Inactive)
REMARK    1  A    between atoms: C_11  and  N_15
REMARK                            x       y       z     vdW  Elec       q    Type
REMARK                         _______ _______ _______ _____ _____    ______ ____
ROOT
ATOM      1  O   UNL     1      33.245 -15.514 -26.695  0.00  0.00    -0.266 OA
ATOM      2  O   UNL     1      34.686 -14.374 -21.687  0.00  0.00    -0.266 OA
ATOM      3  N   UNL     1      33.460 -14.002 -24.990  0.00  0.00    -0.263 N 
ATOM      4  N   UNL     1      33.831 -13.709 -23.703  0.00  0.00    -0.263 N 
ATOM      5  C   UNL     1      34.138 -16.309 -24.673  0.00  0.00    +0.063 A 
ATOM      6  C   UNL     1      34.513 -16.012 -23.363  0.00  0.00    +0.062 A 
ATOM      7  C   UNL     1      34.289 -17.611 -25.165  0.00  0.00    +0.019 C 
ATOM      8  C   UNL     1      35.039 -17.015 -22.542  0.00  0.00    +0.006 C 
ATOM      9  C   UNL     1      33.579 -15.256 -25.542  0.00  0.00    +0.272 A 
ATOM     10  C   UNL     1      34.356 -14.641 -22.839  0.00  0.00    +0.272 A 
ATOM     11  C   UNL     1      34.815 -18.609 -24.344  0.00  0.00    +0.042 C 
ATOM     12  C   UNL     1      35.189 -18.311 -23.035  0.00  0.00    +0.014 C 
ATOM     13  H   UNL     1      33.089 -13.279 -25.546  0.00  0.00    +0.190 HD
ATOM     14  H   UNL     1      33.716 -12.785 -23.382  0.00  0.00    +0.190 HD
ENDROOT
BRANCH  11  15
ATOM     15  N   UNL     1      34.970 -19.921 -24.840  0.00  0.00    -0.357 N 
ATOM     16  H   UNL     1      34.993 -20.080 -25.811  0.00  0.00    +0.142 HD
ATOM     17  H   UNL     1      35.054 -20.676 -24.215  0.00  0.00    +0.142 HD
ENDBRANCH  11  15
TORSDOF 1
ENDMDL
