MODEL 1
REMARK VINA RESULT:      -6.7      0.000      0.000
REMARK  Name = 14896
REMARK  0 active torsions:
REMARK  status: ('A' for Active; 'I' for Inactive)
REMARK                            x       y       z     vdW  Elec       q    Type
REMARK                         _______ _______ _______ _____ _____    ______ ____
ROOT
ATOM      1  C   UNL     1      34.919 -17.419 -22.258  0.00  0.00    +0.003 C 
ATOM      2  C   UNL     1      36.198 -18.305 -22.389  0.00  0.00    +0.001 C 
ATOM      3  C   UNL     1      34.137 -18.753 -22.482  0.00  0.00    +0.018 C 
ATOM      4  C   UNL     1      35.350 -19.144 -23.394  0.00  0.00    +0.004 C 
ATOM      5  C   UNL     1      36.536 -19.042 -21.083  0.00  0.00    +0.004 C 
ATOM      6  C   UNL     1      34.077 -19.561 -21.221  0.00  0.00    -0.045 C 
ATOM      7  C   UNL     1      35.410 -20.014 -20.682  0.00  0.00    +0.022 C 
ATOM      8  C   UNL     1      34.731 -16.836 -20.861  0.00  0.00    +0.000 C 
ATOM      9  C   UNL     1      34.733 -16.281 -23.239  0.00  0.00    +0.000 C 
ATOM     10  C   UNL     1      32.903 -19.778 -20.617  0.00  0.00    -0.009 C 
ENDROOT
TORSDOF 0
ENDMDL
MODEL 2
REMARK VINA RESULT:      -6.3      0.888      3.187
REMARK  Name = 14896
REMARK  0 active torsions:
REMARK  status: ('A' for Active; 'I' for Inactive)
REMARK                            x       y       z     vdW  Elec       q    Type
REMARK                         _______ _______ _______ _____ _____    ______ ____
ROOT
ATOM      1  C   UNL     1      34.864 -19.374 -21.153  0.00  0.00    +0.003 C 
ATOM      2  C   UNL     1      35.420 -19.342 -22.612  0.00  0.00    +0.001 C 
ATOM      3  C   UNL     1      35.657 -18.041 -20.968  0.00  0.00    +0.018 C 
ATOM      4  C   UNL     1      36.676 -18.673 -21.976  0.00  0.00    +0.004 C 
ATOM      5  C   UNL     1      34.606 -18.413 -23.528  0.00  0.00    +0.004 C 
ATOM      6  C   UNL     1      34.907 -16.882 -21.552  0.00  0.00    -0.045 C 
ATOM      7  C   UNL     1      34.669 -16.953 -23.038  0.00  0.00    +0.022 C 
ATOM      8  C   UNL     1      33.352 -19.194 -21.080  0.00  0.00    +0.000 C 
ATOM      9  C   UNL     1      35.209 -20.564 -20.283  0.00  0.00    +0.000 C 
ATOM     10  C   UNL     1      34.441 -15.913 -20.755  0.00  0.00    -0.009 C 
ENDROOT
TORSDOF 0
ENDMDL
MODEL 3
REMARK VINA RESULT:      -6.0      0.977      3.233
REMARK  Name = 14896
REMARK  0 active torsions:
REMARK  status: ('A' for Active; 'I' for Inactive)
REMARK                            x       y       z     vdW  Elec       q    Type
REMARK                         _______ _______ _______ _____ _____    ______ ____
ROOT
ATOM      1  C   UNL     1      35.913 -19.033 -21.376  0.00  0.00    +0.003 C 
ATOM      2  C   UNL     1      35.045 -17.796 -20.984  0.00  0.00    +0.001 C 
ATOM      3  C   UNL     1      34.693 -19.436 -22.265  0.00  0.00    +0.018 C 
ATOM      4  C   UNL     1      33.833 -18.766 -21.139  0.00  0.00    +0.004 C 
ATOM      5  C   UNL     1      35.100 -16.683 -22.043  0.00  0.00    +0.004 C 
ATOM      6  C   UNL     1      34.679 -18.657 -23.546  0.00  0.00    -0.045 C 
ATOM      7  C   UNL     1      34.531 -17.166 -23.391  0.00  0.00    +0.022 C 
ATOM      8  C   UNL     1      37.154 -18.667 -22.183  0.00  0.00    +0.000 C 
ATOM      9  C   UNL     1      36.364 -19.969 -20.274  0.00  0.00    +0.000 C 
ATOM     10  C   UNL     1      34.860 -19.284 -24.714  0.00  0.00    -0.009 C 
ENDROOT
TORSDOF 0
ENDMDL
MODEL 4
REMARK VINA RESULT:      -6.0      9.184     11.488
REMARK  Name = 14896
REMARK  0 active torsions:
REMARK  status: ('A' for Active; 'I' for Inactive)
REMARK                            x       y       z     vdW  Elec       q    Type
REMARK                         _______ _______ _______ _____ _____    ______ ____
ROOT
ATOM      1  C   UNL     1      33.534  -8.546 -23.337  0.00  0.00    +0.003 C 
ATOM      2  C   UNL     1      32.735  -8.657 -22.001  0.00  0.00    +0.001 C 
ATOM      3  C   UNL     1      32.227  -7.909 -23.907  0.00  0.00    +0.018 C 
ATOM      4  C   UNL     1      31.493  -8.877 -22.918  0.00  0.00    +0.004 C 
ATOM      5  C   UNL     1      32.714  -7.333 -21.219  0.00  0.00    +0.004 C 
ATOM      6  C   UNL     1      32.108  -6.470 -23.504  0.00  0.00    -0.045 C 
ATOM      7  C   UNL     1      32.009  -6.223 -22.021  0.00  0.00    +0.022 C 
ATOM      8  C   UNL     1      34.701  -7.567 -23.262  0.00  0.00    +0.000 C 
ATOM      9  C   UNL     1      34.067  -9.819 -23.960  0.00  0.00    +0.000 C 
ATOM     10  C   UNL     1      32.163  -5.506 -24.431  0.00  0.00    -0.009 C 
ENDROOT
TORSDOF 0
ENDMDL
MODEL 5
REMARK VINA RESULT:      -5.9      9.565     11.281
REMARK  Name = 14896
REMARK  0 active torsions:
REMARK  status: ('A' for Active; 'I' for Inactive)
REMARK                            x       y       z     vdW  Elec       q    Type
REMARK                         _______ _______ _______ _____ _____    ______ ____
ROOT
ATOM      1  C   UNL     1      32.992  -7.179 -23.609  0.00  0.00    +0.003 C 
ATOM      2  C   UNL     1      32.045  -8.385 -23.905  0.00  0.00    +0.001 C 
ATOM      3  C   UNL     1      31.983  -6.842 -22.465  0.00  0.00    +0.018 C 
ATOM      4  C   UNL     1      30.904  -7.429 -23.438  0.00  0.00    +0.004 C 
ATOM      5  C   UNL     1      32.297  -9.572 -22.961  0.00  0.00    +0.004 C 
ATOM      6  C   UNL     1      32.217  -7.712 -21.267  0.00  0.00    -0.045 C 
ATOM      7  C   UNL     1      32.020  -9.189 -21.495  0.00  0.00    +0.022 C 
ATOM      8  C   UNL     1      34.366  -7.603 -23.099  0.00  0.00    +0.000 C 
ATOM      9  C   UNL     1      33.225  -6.166 -24.710  0.00  0.00    +0.000 C 
ATOM     10  C   UNL     1      32.639  -7.172 -20.117  0.00  0.00    -0.009 C 
ENDROOT
TORSDOF 0
ENDMDL
MODEL 6
REMARK VINA RESULT:      -5.9      9.726     11.617
REMARK  Name = 14896
REMARK  0 active torsions:
REMARK  status: ('A' for Active; 'I' for Inactive)
REMARK                            x       y       z     vdW  Elec       q    Type
REMARK                         _______ _______ _______ _____ _____    ______ ____
ROOT
ATOM      1  C   UNL     1      31.563  -6.939 -22.800  0.00  0.00    +0.003 C 
ATOM      2  C   UNL     1      31.698  -8.334 -22.113  0.00  0.00    +0.001 C 
ATOM      3  C   UNL     1      33.107  -6.836 -22.584  0.00  0.00    +0.018 C 
ATOM      4  C   UNL     1      32.837  -7.666 -21.283  0.00  0.00    +0.004 C 
ATOM      5  C   UNL     1      32.183  -9.422 -23.085  0.00  0.00    +0.004 C 
ATOM      6  C   UNL     1      33.851  -7.616 -23.625  0.00  0.00    -0.045 C 
ATOM      7  C   UNL     1      33.589  -9.100 -23.627  0.00  0.00    +0.022 C 
ATOM      8  C   UNL     1      31.164  -7.027 -24.270  0.00  0.00    +0.000 C 
ATOM      9  C   UNL     1      30.658  -5.910 -22.158  0.00  0.00    +0.000 C 
ATOM     10  C   UNL     1      34.627  -6.982 -24.513  0.00  0.00    -0.009 C 
ENDROOT
TORSDOF 0
ENDMDL
MODEL 7
REMARK VINA RESULT:      -5.8      9.250     11.409
REMARK  Name = 14896
REMARK  0 active torsions:
REMARK  status: ('A' for Active; 'I' for Inactive)
REMARK                            x       y       z     vdW  Elec       q    Type
REMARK                         _______ _______ _______ _____ _____    ______ ____
ROOT
ATOM      1  C   UNL     1      31.701  -6.671 -22.279  0.00  0.00    +0.003 C 
ATOM      2  C   UNL     1      32.753  -6.447 -23.411  0.00  0.00    +0.001 C 
ATOM      3  C   UNL     1      31.192  -7.847 -23.173  0.00  0.00    +0.018 C 
ATOM      4  C   UNL     1      31.626  -6.936 -24.371  0.00  0.00    +0.004 C 
ATOM      5  C   UNL     1      33.947  -7.411 -23.299  0.00  0.00    +0.004 C 
ATOM      6  C   UNL     1      32.064  -9.057 -23.019  0.00  0.00    -0.045 C 
ATOM      7  C   UNL     1      33.497  -8.876 -23.448  0.00  0.00    +0.022 C 
ATOM      8  C   UNL     1      32.319  -7.134 -20.964  0.00  0.00    +0.000 C 
ATOM      9  C   UNL     1      30.756  -5.536 -21.946  0.00  0.00    +0.000 C 
ATOM     10  C   UNL     1      31.572 -10.173 -22.468  0.00  0.00    -0.009 C 
ENDROOT
TORSDOF 0
ENDMDL
MODEL 8
REMARK VINA RESULT:      -5.7      9.144     11.349
REMARK  Name = 14896
REMARK  0 active torsions:
REMARK  status: ('A' for Active; 'I' for Inactive)
REMARK                            x       y       z     vdW  Elec       q    Type
REMARK                         _______ _______ _______ _____ _____    ______ ____
ROOT
ATOM      1  C   UNL     1      32.875  -8.847 -23.213  0.00  0.00    +0.003 C 
ATOM      2  C   UNL     1      32.302  -7.698 -24.101  0.00  0.00    +0.001 C 
ATOM      3  C   UNL     1      33.476  -7.693 -22.347  0.00  0.00    +0.018 C 
ATOM      4  C   UNL     1      33.601  -6.928 -23.709  0.00  0.00    +0.004 C 
ATOM      5  C   UNL     1      31.013  -7.096 -23.519  0.00  0.00    +0.004 C 
ATOM      6  C   UNL     1      32.437  -7.102 -21.443  0.00  0.00    -0.045 C 
ATOM      7  C   UNL     1      31.269  -6.454 -22.142  0.00  0.00    +0.022 C 
ATOM      8  C   UNL     1      31.796  -9.647 -22.491  0.00  0.00    +0.000 C 
ATOM      9  C   UNL     1      33.810  -9.849 -23.856  0.00  0.00    +0.000 C 
ATOM     10  C   UNL     1      32.550  -7.229 -20.116  0.00  0.00    -0.009 C 
ENDROOT
TORSDOF 0
ENDMDL
MODEL 9
REMARK VINA RESULT:      -5.6      9.691     11.406
REMARK  Name = 14896
REMARK  0 active torsions:
REMARK  status: ('A' for Active; 'I' for Inactive)
REMARK                            x       y       z     vdW  Elec       q    Type
REMARK                         _______ _______ _______ _____ _____    ______ ____
ROOT
ATOM      1  C   UNL     1      32.230  -8.440 -21.618  0.00  0.00    +0.003 C 
ATOM      2  C   UNL     1      31.157  -7.806 -22.558  0.00  0.00    +0.001 C 
ATOM      3  C   UNL     1      33.006  -8.748 -22.938  0.00  0.00    +0.018 C 
ATOM      4  C   UNL     1      31.582  -8.914 -23.569  0.00  0.00    +0.004 C 
ATOM      5  C   UNL     1      31.530  -6.379 -22.993  0.00  0.00    +0.004 C 
ATOM      6  C   UNL     1      33.723  -7.531 -23.438  0.00  0.00    -0.045 C 
ATOM      7  C   UNL     1      32.838  -6.368 -23.807  0.00  0.00    +0.022 C 
ATOM      8  C   UNL     1      32.931  -7.419 -20.728  0.00  0.00    +0.000 C 
ATOM      9  C   UNL     1      31.809  -9.588 -20.724  0.00  0.00    +0.000 C 
ATOM     10  C   UNL     1      35.061  -7.504 -23.468  0.00  0.00    -0.009 C 
ENDROOT
TORSDOF 0
ENDMDL
