MODEL 1
REMARK VINA RESULT:      -7.7      0.000      0.000
REMARK  Name = 11528958
REMARK  4 active torsions:
REMARK  status: ('A' for Active; 'I' for Inactive)
REMARK    1  A    between atoms: N_3  and  C_14
REMARK    2  A    between atoms: C_14  and  C_15
REMARK    3  A    between atoms: C_15  and  O_16
REMARK    4  A    between atoms: O_16  and  C_17
REMARK                            x       y       z     vdW  Elec       q    Type
REMARK                         _______ _______ _______ _____ _____    ______ ____
ROOT
ATOM      1  S   UNL     1      35.020 -19.141 -24.322  0.00  0.00    -0.013 S 
ATOM      2  O   UNL     1      33.097 -15.343 -26.833  0.00  0.00    -0.266 OA
ATOM      3  N   UNL     1      34.683 -16.617 -23.228  0.00  0.00    -0.305 N 
ATOM      4  N   UNL     1      33.389 -13.544 -24.480  0.00  0.00    -0.307 N 
ATOM      5  N   UNL     1      34.016 -17.004 -25.505  0.00  0.00    -0.301 N 
ATOM      6  C   UNL     1      34.247 -15.295 -23.414  0.00  0.00    +0.081 A 
ATOM      7  C   UNL     1      33.718 -14.865 -24.610  0.00  0.00    +0.121 A 
ATOM      8  C   UNL     1      34.567 -17.519 -24.315  0.00  0.00    +0.162 A 
ATOM      9  C   UNL     1      34.237 -14.191 -22.525  0.00  0.00    +0.035 C 
ATOM     10  C   UNL     1      33.564 -15.703 -25.758  0.00  0.00    +0.274 A 
ATOM     11  C   UNL     1      33.702 -13.122 -23.212  0.00  0.00    +0.064 C 
ATOM     12  H   UNL     1      32.990 -12.984 -25.185  0.00  0.00    +0.152 HD
ATOM     13  H   UNL     1      33.938 -17.638 -26.254  0.00  0.00    +0.171 HD
ENDROOT
BRANCH   3  14
ATOM     14  C   UNL     1      35.234 -16.991 -21.919  0.00  0.00    +0.140 C 
BRANCH  14  15
ATOM     15  C   UNL     1      34.268 -17.892 -21.167  0.00  0.00    +0.166 C 
BRANCH  15  16
ATOM     16  O   UNL     1      35.002 -18.953 -20.571  0.00  0.00    -0.354 OA
BRANCH  16  17
ATOM     17  C   UNL     1      34.324 -20.194 -20.704  0.00  0.00    +0.115 C 
ATOM     18  C   UNL     1      34.927 -21.201 -19.736  0.00  0.00    +0.032 C 
ATOM     19  C   UNL     1      32.839 -19.984 -20.450  0.00  0.00    +0.032 C 
ENDBRANCH  16  17
ENDBRANCH  15  16
ENDBRANCH  14  15
ENDBRANCH   3  14
TORSDOF 4
ENDMDL
MODEL 2
REMARK VINA RESULT:      -7.4      2.897      5.388
REMARK  Name = 11528958
REMARK  4 active torsions:
REMARK  status: ('A' for Active; 'I' for Inactive)
REMARK    1  A    between atoms: N_3  and  C_14
REMARK    2  A    between atoms: C_14  and  C_15
REMARK    3  A    between atoms: C_15  and  O_16
REMARK    4  A    between atoms: O_16  and  C_17
REMARK                            x       y       z     vdW  Elec       q    Type
REMARK                         _______ _______ _______ _____ _____    ______ ____
ROOT
ATOM      1  S   UNL     1      33.078 -14.218 -26.278  0.00  0.00    -0.013 S 
ATOM      2  O   UNL     1      34.565 -18.749 -24.979  0.00  0.00    -0.266 OA
ATOM      3  N   UNL     1      33.890 -14.867 -23.709  0.00  0.00    -0.305 N 
ATOM      4  N   UNL     1      35.047 -17.868 -22.177  0.00  0.00    -0.307 N 
ATOM      5  N   UNL     1      33.901 -16.571 -25.405  0.00  0.00    -0.301 N 
ATOM      6  C   UNL     1      34.365 -15.856 -22.832  0.00  0.00    +0.081 A 
ATOM      7  C   UNL     1      34.592 -17.148 -23.248  0.00  0.00    +0.121 A 
ATOM      8  C   UNL     1      33.644 -15.230 -25.057  0.00  0.00    +0.162 A 
ATOM      9  C   UNL     1      34.696 -15.790 -21.455  0.00  0.00    +0.035 C 
ATOM     10  C   UNL     1      34.371 -17.604 -24.585  0.00  0.00    +0.274 A 
ATOM     11  C   UNL     1      35.115 -17.049 -21.078  0.00  0.00    +0.064 C 
ATOM     12  H   UNL     1      35.289 -18.822 -22.192  0.00  0.00    +0.152 HD
ATOM     13  H   UNL     1      33.727 -16.813 -26.343  0.00  0.00    +0.171 HD
ENDROOT
BRANCH   3  14
ATOM     14  C   UNL     1      33.676 -13.513 -23.182  0.00  0.00    +0.140 C 
BRANCH  14  15
ATOM     15  C   UNL     1      32.250 -13.351 -22.681  0.00  0.00    +0.166 C 
BRANCH  15  16
ATOM     16  O   UNL     1      32.288 -12.869 -21.344  0.00  0.00    -0.354 OA
BRANCH  16  17
ATOM     17  C   UNL     1      31.337 -11.835 -21.137  0.00  0.00    +0.115 C 
ATOM     18  C   UNL     1      31.459 -11.319 -19.711  0.00  0.00    +0.032 C 
ATOM     19  C   UNL     1      31.565 -10.731 -22.159  0.00  0.00    +0.032 C 
ENDBRANCH  16  17
ENDBRANCH  15  16
ENDBRANCH  14  15
ENDBRANCH   3  14
TORSDOF 4
ENDMDL
MODEL 3
REMARK VINA RESULT:      -7.3      0.872      1.163
REMARK  Name = 11528958
REMARK  4 active torsions:
REMARK  status: ('A' for Active; 'I' for Inactive)
REMARK    1  A    between atoms: N_3  and  C_14
REMARK    2  A    between atoms: C_14  and  C_15
REMARK    3  A    between atoms: C_15  and  O_16
REMARK    4  A    between atoms: O_16  and  C_17
REMARK                            x       y       z     vdW  Elec       q    Type
REMARK                         _______ _______ _______ _____ _____    ______ ____
ROOT
ATOM      1  S   UNL     1      34.914 -19.688 -24.637  0.00  0.00    -0.013 S 
ATOM      2  O   UNL     1      33.422 -15.383 -26.554  0.00  0.00    -0.266 OA
ATOM      3  N   UNL     1      34.739 -17.350 -23.158  0.00  0.00    -0.305 N 
ATOM      4  N   UNL     1      33.759 -14.015 -23.932  0.00  0.00    -0.307 N 
ATOM      5  N   UNL     1      34.142 -17.308 -25.486  0.00  0.00    -0.301 N 
ATOM      6  C   UNL     1      34.422 -15.982 -23.139  0.00  0.00    +0.081 A 
ATOM      7  C   UNL     1      33.983 -15.322 -24.264  0.00  0.00    +0.121 A 
ATOM      8  C   UNL     1      34.596 -18.054 -24.380  0.00  0.00    +0.162 A 
ATOM      9  C   UNL     1      34.465 -15.037 -22.084  0.00  0.00    +0.035 C 
ATOM     10  C   UNL     1      33.811 -15.950 -25.537  0.00  0.00    +0.274 A 
ATOM     11  C   UNL     1      34.049 -13.829 -22.603  0.00  0.00    +0.064 C 
ATOM     12  H   UNL     1      33.439 -13.316 -24.548  0.00  0.00    +0.152 HD
ATOM     13  H   UNL     1      34.045 -17.806 -26.329  0.00  0.00    +0.171 HD
ENDROOT
BRANCH   3  14
ATOM     14  C   UNL     1      35.199 -17.975 -21.911  0.00  0.00    +0.140 C 
BRANCH  14  15
ATOM     15  C   UNL     1      34.031 -18.582 -21.151  0.00  0.00    +0.166 C 
BRANCH  15  16
ATOM     16  O   UNL     1      34.128 -19.999 -21.218  0.00  0.00    -0.354 OA
BRANCH  16  17
ATOM     17  C   UNL     1      34.482 -20.556 -19.961  0.00  0.00    +0.115 C 
ATOM     18  C   UNL     1      33.392 -21.520 -19.515  0.00  0.00    +0.032 C 
ATOM     19  C   UNL     1      35.833 -21.246 -20.080  0.00  0.00    +0.032 C 
ENDBRANCH  16  17
ENDBRANCH  15  16
ENDBRANCH  14  15
ENDBRANCH   3  14
TORSDOF 4
ENDMDL
MODEL 4
REMARK VINA RESULT:      -7.2      2.952      6.284
REMARK  Name = 11528958
REMARK  4 active torsions:
REMARK  status: ('A' for Active; 'I' for Inactive)
REMARK    1  A    between atoms: N_3  and  C_14
REMARK    2  A    between atoms: C_14  and  C_15
REMARK    3  A    between atoms: C_15  and  O_16
REMARK    4  A    between atoms: O_16  and  C_17
REMARK                            x       y       z     vdW  Elec       q    Type
REMARK                         _______ _______ _______ _____ _____    ______ ____
ROOT
ATOM      1  S   UNL     1      32.970 -14.749 -26.417  0.00  0.00    -0.013 S 
ATOM      2  O   UNL     1      35.452 -18.171 -23.856  0.00  0.00    -0.266 OA
ATOM      3  N   UNL     1      33.391 -14.584 -23.683  0.00  0.00    -0.305 N 
ATOM      4  N   UNL     1      35.057 -16.664 -21.319  0.00  0.00    -0.307 N 
ATOM      5  N   UNL     1      34.265 -16.471 -24.889  0.00  0.00    -0.301 N 
ATOM      6  C   UNL     1      33.951 -15.167 -22.534  0.00  0.00    +0.081 A 
ATOM      7  C   UNL     1      34.637 -16.359 -22.585  0.00  0.00    +0.121 A 
ATOM      8  C   UNL     1      33.550 -15.258 -24.920  0.00  0.00    +0.162 A 
ATOM      9  C   UNL     1      33.955 -14.733 -21.185  0.00  0.00    +0.035 C 
ATOM     10  C   UNL     1      34.845 -17.107 -23.786  0.00  0.00    +0.274 A 
ATOM     11  C   UNL     1      34.646 -15.678 -20.456  0.00  0.00    +0.064 C 
ATOM     12  H   UNL     1      35.573 -17.463 -21.066  0.00  0.00    +0.152 HD
ATOM     13  H   UNL     1      34.370 -16.931 -25.753  0.00  0.00    +0.171 HD
ENDROOT
BRANCH   3  14
ATOM     14  C   UNL     1      32.675 -13.310 -23.539  0.00  0.00    +0.140 C 
BRANCH  14  15
ATOM     15  C   UNL     1      33.592 -12.140 -23.857  0.00  0.00    +0.166 C 
BRANCH  15  16
ATOM     16  O   UNL     1      33.134 -10.995 -23.149  0.00  0.00    -0.354 OA
BRANCH  16  17
ATOM     17  C   UNL     1      33.369  -9.801 -23.881  0.00  0.00    +0.115 C 
ATOM     18  C   UNL     1      33.019  -8.603 -23.012  0.00  0.00    +0.032 C 
ATOM     19  C   UNL     1      34.821  -9.767 -24.332  0.00  0.00    +0.032 C 
ENDBRANCH  16  17
ENDBRANCH  15  16
ENDBRANCH  14  15
ENDBRANCH   3  14
TORSDOF 4
ENDMDL
MODEL 5
REMARK VINA RESULT:      -7.1      9.020     12.030
REMARK  Name = 11528958
REMARK  4 active torsions:
REMARK  status: ('A' for Active; 'I' for Inactive)
REMARK    1  A    between atoms: N_3  and  C_14
REMARK    2  A    between atoms: C_14  and  C_15
REMARK    3  A    between atoms: C_15  and  O_16
REMARK    4  A    between atoms: O_16  and  C_17
REMARK                            x       y       z     vdW  Elec       q    Type
REMARK                         _______ _______ _______ _____ _____    ______ ____
ROOT
ATOM      1  S   UNL     1      37.219 -21.785 -16.949  0.00  0.00    -0.013 S 
ATOM      2  O   UNL     1      40.368 -25.212 -15.287  0.00  0.00    -0.266 OA
ATOM      3  N   UNL     1      36.616 -23.514 -14.869  0.00  0.00    -0.305 N 
ATOM      4  N   UNL     1      38.406 -26.132 -13.247  0.00  0.00    -0.307 N 
ATOM      5  N   UNL     1      38.767 -23.668 -15.932  0.00  0.00    -0.301 N 
ATOM      6  C   UNL     1      37.041 -24.570 -14.047  0.00  0.00    +0.081 A 
ATOM      7  C   UNL     1      38.287 -25.139 -14.180  0.00  0.00    +0.121 A 
ATOM      8  C   UNL     1      37.511 -23.034 -15.858  0.00  0.00    +0.162 A 
ATOM      9  C   UNL     1      36.379 -25.245 -12.991  0.00  0.00    +0.035 C 
ATOM     10  C   UNL     1      39.253 -24.721 -15.149  0.00  0.00    +0.274 A 
ATOM     11  C   UNL     1      37.246 -26.206 -12.515  0.00  0.00    +0.064 C 
ATOM     12  H   UNL     1      39.197 -26.703 -13.119  0.00  0.00    +0.152 HD
ATOM     13  H   UNL     1      39.381 -23.327 -16.621  0.00  0.00    +0.171 HD
ENDROOT
BRANCH   3  14
ATOM     14  C   UNL     1      35.270 -22.966 -14.658  0.00  0.00    +0.140 C 
BRANCH  14  15
ATOM     15  C   UNL     1      34.224 -23.832 -15.342  0.00  0.00    +0.166 C 
BRANCH  15  16
ATOM     16  O   UNL     1      34.483 -23.843 -16.740  0.00  0.00    -0.354 OA
BRANCH  16  17
ATOM     17  C   UNL     1      33.309 -23.564 -17.490  0.00  0.00    +0.115 C 
ATOM     18  C   UNL     1      32.182 -23.196 -16.537  0.00  0.00    +0.032 C 
ATOM     19  C   UNL     1      33.601 -22.447 -18.480  0.00  0.00    +0.032 C 
ENDBRANCH  16  17
ENDBRANCH  15  16
ENDBRANCH  14  15
ENDBRANCH   3  14
TORSDOF 4
ENDMDL
MODEL 6
REMARK VINA RESULT:      -7.0      2.953      6.541
REMARK  Name = 11528958
REMARK  4 active torsions:
REMARK  status: ('A' for Active; 'I' for Inactive)
REMARK    1  A    between atoms: N_3  and  C_14
REMARK    2  A    between atoms: C_14  and  C_15
REMARK    3  A    between atoms: C_15  and  O_16
REMARK    4  A    between atoms: O_16  and  C_17
REMARK                            x       y       z     vdW  Elec       q    Type
REMARK                         _______ _______ _______ _____ _____    ______ ____
ROOT
ATOM      1  S   UNL     1      32.602 -13.491 -20.710  0.00  0.00    -0.013 S 
ATOM      2  O   UNL     1      35.404 -17.563 -20.769  0.00  0.00    -0.266 OA
ATOM      3  N   UNL     1      33.340 -14.788 -23.045  0.00  0.00    -0.305 N 
ATOM      4  N   UNL     1      35.288 -17.688 -23.741  0.00  0.00    -0.307 N 
ATOM      5  N   UNL     1      34.085 -15.666 -20.935  0.00  0.00    -0.301 N 
ATOM      6  C   UNL     1      34.035 -15.856 -23.638  0.00  0.00    +0.081 A 
ATOM      7  C   UNL     1      34.723 -16.782 -22.887  0.00  0.00    +0.121 A 
ATOM      8  C   UNL     1      33.360 -14.680 -21.632  0.00  0.00    +0.162 A 
ATOM      9  C   UNL     1      34.190 -16.216 -25.000  0.00  0.00    +0.035 C 
ATOM     10  C   UNL     1      34.797 -16.750 -21.459  0.00  0.00    +0.274 A 
ATOM     11  C   UNL     1      34.970 -17.353 -25.033  0.00  0.00    +0.064 C 
ATOM     12  H   UNL     1      35.837 -18.460 -23.471  0.00  0.00    +0.152 HD
ATOM     13  H   UNL     1      34.092 -15.582 -19.954  0.00  0.00    +0.171 HD
ENDROOT
BRANCH   3  14
ATOM     14  C   UNL     1      32.633 -13.846 -23.922  0.00  0.00    +0.140 C 
BRANCH  14  15
ATOM     15  C   UNL     1      33.599 -12.830 -24.510  0.00  0.00    +0.166 C 
BRANCH  15  16
ATOM     16  O   UNL     1      33.759 -11.763 -23.583  0.00  0.00    -0.354 OA
BRANCH  16  17
ATOM     17  C   UNL     1      33.532 -10.503 -24.197  0.00  0.00    +0.115 C 
ATOM     18  C   UNL     1      32.588  -9.686 -23.328  0.00  0.00    +0.032 C 
ATOM     19  C   UNL     1      34.865  -9.798 -24.403  0.00  0.00    +0.032 C 
ENDBRANCH  16  17
ENDBRANCH  15  16
ENDBRANCH  14  15
ENDBRANCH   3  14
TORSDOF 4
ENDMDL
MODEL 7
REMARK VINA RESULT:      -7.0     10.203     12.277
REMARK  Name = 11528958
REMARK  4 active torsions:
REMARK  status: ('A' for Active; 'I' for Inactive)
REMARK    1  A    between atoms: N_3  and  C_14
REMARK    2  A    between atoms: C_14  and  C_15
REMARK    3  A    between atoms: C_15  and  O_16
REMARK    4  A    between atoms: O_16  and  C_17
REMARK                            x       y       z     vdW  Elec       q    Type
REMARK                         _______ _______ _______ _____ _____    ______ ____
ROOT
ATOM      1  S   UNL     1      37.147 -21.863 -16.921  0.00  0.00    -0.013 S 
ATOM      2  O   UNL     1      40.403 -25.198 -15.275  0.00  0.00    -0.266 OA
ATOM      3  N   UNL     1      36.630 -23.564 -14.795  0.00  0.00    -0.305 N 
ATOM      4  N   UNL     1      38.510 -26.115 -13.169  0.00  0.00    -0.307 N 
ATOM      5  N   UNL     1      38.756 -23.697 -15.908  0.00  0.00    -0.301 N 
ATOM      6  C   UNL     1      37.096 -24.596 -13.964  0.00  0.00    +0.081 A 
ATOM      7  C   UNL     1      38.349 -25.143 -14.118  0.00  0.00    +0.121 A 
ATOM      8  C   UNL     1      37.490 -23.086 -15.815  0.00  0.00    +0.162 A 
ATOM      9  C   UNL     1      36.473 -25.263 -12.879  0.00  0.00    +0.035 C 
ATOM     10  C   UNL     1      39.282 -24.725 -15.118  0.00  0.00    +0.274 A 
ATOM     11  C   UNL     1      37.371 -26.197 -12.408  0.00  0.00    +0.064 C 
ATOM     12  H   UNL     1      39.315 -26.669 -13.050  0.00  0.00    +0.152 HD
ATOM     13  H   UNL     1      39.346 -23.358 -16.619  0.00  0.00    +0.171 HD
ENDROOT
BRANCH   3  14
ATOM     14  C   UNL     1      35.279 -23.038 -14.560  0.00  0.00    +0.140 C 
BRANCH  14  15
ATOM     15  C   UNL     1      34.264 -23.750 -15.441  0.00  0.00    +0.166 C 
BRANCH  15  16
ATOM     16  O   UNL     1      33.090 -23.995 -14.678  0.00  0.00    -0.354 OA
BRANCH  16  17
ATOM     17  C   UNL     1      31.915 -23.724 -15.429  0.00  0.00    +0.115 C 
ATOM     18  C   UNL     1      31.051 -22.731 -14.668  0.00  0.00    +0.032 C 
ATOM     19  C   UNL     1      32.308 -23.198 -16.801  0.00  0.00    +0.032 C 
ENDBRANCH  16  17
ENDBRANCH  15  16
ENDBRANCH  14  15
ENDBRANCH   3  14
TORSDOF 4
ENDMDL
MODEL 8
REMARK VINA RESULT:      -7.0      8.053     10.271
REMARK  Name = 11528958
REMARK  4 active torsions:
REMARK  status: ('A' for Active; 'I' for Inactive)
REMARK    1  A    between atoms: N_3  and  C_14
REMARK    2  A    between atoms: C_14  and  C_15
REMARK    3  A    between atoms: C_15  and  O_16
REMARK    4  A    between atoms: O_16  and  C_17
REMARK                            x       y       z     vdW  Elec       q    Type
REMARK                         _______ _______ _______ _____ _____    ______ ____
ROOT
ATOM      1  S   UNL     1      33.148 -24.200 -14.029  0.00  0.00    -0.013 S 
ATOM      2  O   UNL     1      32.669 -22.774 -18.737  0.00  0.00    -0.266 OA
ATOM      3  N   UNL     1      35.215 -23.065 -15.485  0.00  0.00    -0.305 N 
ATOM      4  N   UNL     1      35.499 -21.855 -18.823  0.00  0.00    -0.307 N 
ATOM      5  N   UNL     1      33.077 -23.381 -16.539  0.00  0.00    -0.301 N 
ATOM      6  C   UNL     1      35.642 -22.521 -16.707  0.00  0.00    +0.081 A 
ATOM      7  C   UNL     1      34.801 -22.421 -17.792  0.00  0.00    +0.121 A 
ATOM      8  C   UNL     1      33.875 -23.518 -15.386  0.00  0.00    +0.162 A 
ATOM      9  C   UNL     1      36.899 -21.995 -17.097  0.00  0.00    +0.035 C 
ATOM     10  C   UNL     1      33.437 -22.852 -17.783  0.00  0.00    +0.274 A 
ATOM     11  C   UNL     1      36.781 -21.591 -18.410  0.00  0.00    +0.064 C 
ATOM     12  H   UNL     1      35.139 -21.666 -19.720  0.00  0.00    +0.152 HD
ATOM     13  H   UNL     1      32.149 -23.698 -16.460  0.00  0.00    +0.171 HD
ENDROOT
BRANCH   3  14
ATOM     14  C   UNL     1      36.178 -23.133 -14.379  0.00  0.00    +0.140 C 
BRANCH  14  15
ATOM     15  C   UNL     1      36.987 -24.419 -14.449  0.00  0.00    +0.166 C 
BRANCH  15  16
ATOM     16  O   UNL     1      38.362 -24.104 -14.275  0.00  0.00    -0.354 OA
BRANCH  16  17
ATOM     17  C   UNL     1      39.001 -25.027 -13.405  0.00  0.00    +0.115 C 
ATOM     18  C   UNL     1      37.955 -25.945 -12.791  0.00  0.00    +0.032 C 
ATOM     19  C   UNL     1      40.050 -25.806 -14.184  0.00  0.00    +0.032 C 
ENDBRANCH  16  17
ENDBRANCH  15  16
ENDBRANCH  14  15
ENDBRANCH   3  14
TORSDOF 4
ENDMDL
MODEL 9
REMARK VINA RESULT:      -6.9      5.955      7.997
REMARK  Name = 11528958
REMARK  4 active torsions:
REMARK  status: ('A' for Active; 'I' for Inactive)
REMARK    1  A    between atoms: N_3  and  C_14
REMARK    2  A    between atoms: C_14  and  C_15
REMARK    3  A    between atoms: C_15  and  O_16
REMARK    4  A    between atoms: O_16  and  C_17
REMARK                            x       y       z     vdW  Elec       q    Type
REMARK                         _______ _______ _______ _____ _____    ______ ____
ROOT
ATOM      1  S   UNL     1      31.445 -11.144 -19.009  0.00  0.00    -0.013 S 
ATOM      2  O   UNL     1      33.073  -6.510 -19.554  0.00  0.00    -0.266 OA
ATOM      3  N   UNL     1      31.638  -9.887 -21.471  0.00  0.00    -0.305 N 
ATOM      4  N   UNL     1      32.709  -6.651 -22.505  0.00  0.00    -0.307 N 
ATOM      5  N   UNL     1      32.288  -8.688 -19.491  0.00  0.00    -0.301 N 
ATOM      6  C   UNL     1      31.985  -8.728 -22.184  0.00  0.00    +0.081 A 
ATOM      7  C   UNL     1      32.463  -7.602 -21.553  0.00  0.00    +0.121 A 
ATOM      8  C   UNL     1      31.793  -9.877 -20.062  0.00  0.00    +0.162 A 
ATOM      9  C   UNL     1      31.939  -8.448 -23.573  0.00  0.00    +0.035 C 
ATOM     10  C   UNL     1      32.650  -7.501 -20.139  0.00  0.00    +0.274 A 
ATOM     11  C   UNL     1      32.392  -7.156 -23.742  0.00  0.00    +0.064 C 
ATOM     12  H   UNL     1      33.057  -5.747 -22.332  0.00  0.00    +0.152 HD
ATOM     13  H   UNL     1      32.392  -8.691 -18.512  0.00  0.00    +0.171 HD
ENDROOT
BRANCH   3  14
ATOM     14  C   UNL     1      31.137 -11.044 -22.224  0.00  0.00    +0.140 C 
BRANCH  14  15
ATOM     15  C   UNL     1      32.274 -11.990 -22.575  0.00  0.00    +0.166 C 
BRANCH  15  16
ATOM     16  O   UNL     1      31.978 -13.276 -22.044  0.00  0.00    -0.354 OA
BRANCH  16  17
ATOM     17  C   UNL     1      33.148 -13.923 -21.566  0.00  0.00    +0.115 C 
ATOM     18  C   UNL     1      32.746 -15.099 -20.688  0.00  0.00    +0.032 C 
ATOM     19  C   UNL     1      33.997 -14.364 -22.749  0.00  0.00    +0.032 C 
ENDBRANCH  16  17
ENDBRANCH  15  16
ENDBRANCH  14  15
ENDBRANCH   3  14
TORSDOF 4
ENDMDL
