MODEL 1
REMARK VINA RESULT:      -8.2      0.000      0.000
REMARK  Name = 5351344
REMARK  7 active torsions:
REMARK  status: ('A' for Active; 'I' for Inactive)
REMARK    1  A    between atoms: C_1  and  C_13
REMARK    2  A    between atoms: C_2  and  O_7
REMARK    3  A    between atoms: C_3  and  O_9
REMARK    4  A    between atoms: C_4  and  O_11
REMARK    5  A    between atoms: C_14  and  C_15
REMARK    6  A    between atoms: C_18  and  O_23
REMARK    7  A    between atoms: C_19  and  O_21
REMARK                            x       y       z     vdW  Elec       q    Type
REMARK                         _______ _______ _______ _____ _____    ______ ____
ROOT
ATOM      1  C   UNL     1      33.919 -22.990 -16.417  0.00  0.00    +0.006 C 
ATOM      2  C   UNL     1      35.210 -22.136 -18.715  0.00  0.00    +0.206 C 
ATOM      3  C   UNL     1      33.838 -22.389 -18.739  0.00  0.00    +0.175 C 
ATOM      4  C   UNL     1      35.932 -22.314 -17.535  0.00  0.00    +0.175 C 
ATOM      5  C   UNL     1      33.189 -22.819 -17.582  0.00  0.00    +0.040 C 
ATOM      6  C   UNL     1      35.283 -22.744 -16.378  0.00  0.00    +0.040 C 
ENDROOT
BRANCH   2   7
ATOM      7  O   UNL     1      35.845 -21.716 -19.846  0.00  0.00    -0.465 OA
ATOM      8  C   UNL     1      36.251 -20.350 -19.891  0.00  0.00    +0.253 C 
ENDBRANCH   2   7
BRANCH   3   9
ATOM      9  O   UNL     1      33.122 -22.219 -19.885  0.00  0.00    -0.468 OA
ATOM     10  C   UNL     1      32.760 -20.884 -20.231  0.00  0.00    +0.253 C 
ENDBRANCH   3   9
BRANCH   4  11
ATOM     11  O   UNL     1      37.273 -22.071 -17.499  0.00  0.00    -0.468 OA
ATOM     12  C   UNL     1      37.959 -22.405 -16.294  0.00  0.00    +0.253 C 
ENDBRANCH   4  11
BRANCH   1  13
ATOM     13  C   UNL     1      33.233 -23.445 -15.195  0.00  0.00    +0.000 C 
ATOM     14  C   UNL     1      33.763 -24.271 -14.263  0.00  0.00    +0.000 C 
BRANCH  14  15
ATOM     15  C   UNL     1      35.098 -24.847 -14.315  0.00  0.00    +0.003 C 
ATOM     16  C   UNL     1      35.398 -25.828 -15.261  0.00  0.00    +0.040 C 
ATOM     17  C   UNL     1      36.078 -24.418 -13.420  0.00  0.00    +0.003 C 
ATOM     18  C   UNL     1      36.677 -26.380 -15.310  0.00  0.00    +0.168 C 
ATOM     19  C   UNL     1      37.658 -25.951 -14.416  0.00  0.00    +0.172 C 
ATOM     20  C   UNL     1      37.358 -24.970 -13.470  0.00  0.00    +0.040 C 
BRANCH  19  21
ATOM     21  O   UNL     1      38.911 -26.482 -14.455  0.00  0.00    -0.468 OA
ATOM     22  C   UNL     1      39.970 -25.616 -14.858  0.00  0.00    +0.253 C 
ENDBRANCH  19  21
BRANCH  18  23
ATOM     23  O   UNL     1      36.958 -27.337 -16.238  0.00  0.00    -0.503 OA
ATOM     24  H   UNL     1      36.904 -28.243 -16.008  0.00  0.00    +0.292 HD
ENDBRANCH  18  23
ENDBRANCH  14  15
ENDBRANCH   1  13
TORSDOF 7
ENDMDL
MODEL 2
REMARK VINA RESULT:      -8.2      0.024      2.629
REMARK  Name = 5351344
REMARK  7 active torsions:
REMARK  status: ('A' for Active; 'I' for Inactive)
REMARK    1  A    between atoms: C_1  and  C_13
REMARK    2  A    between atoms: C_2  and  O_7
REMARK    3  A    between atoms: C_3  and  O_9
REMARK    4  A    between atoms: C_4  and  O_11
REMARK    5  A    between atoms: C_14  and  C_15
REMARK    6  A    between atoms: C_18  and  O_23
REMARK    7  A    between atoms: C_19  and  O_21
REMARK                            x       y       z     vdW  Elec       q    Type
REMARK                         _______ _______ _______ _____ _____    ______ ____
ROOT
ATOM      1  C   UNL     1      33.917 -22.979 -16.400  0.00  0.00    +0.006 C 
ATOM      2  C   UNL     1      35.194 -22.140 -18.711  0.00  0.00    +0.206 C 
ATOM      3  C   UNL     1      35.923 -22.307 -17.533  0.00  0.00    +0.175 C 
ATOM      4  C   UNL     1      33.822 -22.394 -18.725  0.00  0.00    +0.175 C 
ATOM      5  C   UNL     1      35.279 -22.730 -16.370  0.00  0.00    +0.040 C 
ATOM      6  C   UNL     1      33.179 -22.816 -17.562  0.00  0.00    +0.040 C 
ENDROOT
BRANCH   2   7
ATOM      7  O   UNL     1      35.822 -21.726 -19.848  0.00  0.00    -0.465 OA
ATOM      8  C   UNL     1      36.236 -20.363 -19.900  0.00  0.00    +0.253 C 
ENDBRANCH   2   7
BRANCH   3   9
ATOM      9  O   UNL     1      37.262 -22.062 -17.506  0.00  0.00    -0.468 OA
ATOM     10  C   UNL     1      37.961 -22.411 -16.312  0.00  0.00    +0.253 C 
ENDBRANCH   3   9
BRANCH   4  11
ATOM     11  O   UNL     1      33.099 -22.234 -19.869  0.00  0.00    -0.468 OA
ATOM     12  C   UNL     1      32.740 -20.901 -20.226  0.00  0.00    +0.253 C 
ENDBRANCH   4  11
BRANCH   1  13
ATOM     13  C   UNL     1      33.237 -23.425 -15.171  0.00  0.00    +0.000 C 
ATOM     14  C   UNL     1      33.771 -24.248 -14.238  0.00  0.00    +0.000 C 
BRANCH  14  15
ATOM     15  C   UNL     1      35.104 -24.827 -14.294  0.00  0.00    +0.003 C 
ATOM     16  C   UNL     1      35.398 -25.809 -15.240  0.00  0.00    +0.040 C 
ATOM     17  C   UNL     1      36.089 -24.399 -13.404  0.00  0.00    +0.003 C 
ATOM     18  C   UNL     1      36.676 -26.364 -15.294  0.00  0.00    +0.168 C 
ATOM     19  C   UNL     1      37.661 -25.937 -14.404  0.00  0.00    +0.172 C 
ATOM     20  C   UNL     1      37.367 -24.955 -13.457  0.00  0.00    +0.040 C 
BRANCH  19  21
ATOM     21  O   UNL     1      38.913 -26.471 -14.447  0.00  0.00    -0.468 OA
ATOM     22  C   UNL     1      39.967 -25.619 -14.894  0.00  0.00    +0.253 C 
ENDBRANCH  19  21
BRANCH  18  23
ATOM     23  O   UNL     1      36.951 -27.323 -16.223  0.00  0.00    -0.503 OA
ATOM     24  H   UNL     1      37.151 -27.079 -17.104  0.00  0.00    +0.292 HD
ENDBRANCH  18  23
ENDBRANCH  14  15
ENDBRANCH   1  13
TORSDOF 7
ENDMDL
MODEL 3
REMARK VINA RESULT:      -8.1      1.377      3.117
REMARK  Name = 5351344
REMARK  7 active torsions:
REMARK  status: ('A' for Active; 'I' for Inactive)
REMARK    1  A    between atoms: C_1  and  C_13
REMARK    2  A    between atoms: C_2  and  O_7
REMARK    3  A    between atoms: C_3  and  O_9
REMARK    4  A    between atoms: C_4  and  O_11
REMARK    5  A    between atoms: C_14  and  C_15
REMARK    6  A    between atoms: C_18  and  O_23
REMARK    7  A    between atoms: C_19  and  O_21
REMARK                            x       y       z     vdW  Elec       q    Type
REMARK                         _______ _______ _______ _____ _____    ______ ____
ROOT
ATOM      1  C   UNL     1      33.557 -23.411 -14.853  0.00  0.00    +0.006 C 
ATOM      2  C   UNL     1      33.341 -22.918 -17.571  0.00  0.00    +0.206 C 
ATOM      3  C   UNL     1      34.593 -22.897 -16.956  0.00  0.00    +0.175 C 
ATOM      4  C   UNL     1      32.198 -23.187 -16.818  0.00  0.00    +0.175 C 
ATOM      5  C   UNL     1      34.701 -23.145 -15.587  0.00  0.00    +0.040 C 
ATOM      6  C   UNL     1      32.306 -23.435 -15.450  0.00  0.00    +0.040 C 
ENDROOT
BRANCH   2   7
ATOM      7  O   UNL     1      33.235 -22.676 -18.908  0.00  0.00    -0.465 OA
ATOM      8  C   UNL     1      33.241 -21.311 -19.321  0.00  0.00    +0.253 C 
ENDBRANCH   2   7
BRANCH   3   9
ATOM      9  O   UNL     1      35.716 -22.635 -17.679  0.00  0.00    -0.468 OA
ATOM     10  C   UNL     1      36.798 -22.008 -16.993  0.00  0.00    +0.253 C 
ENDBRANCH   3   9
BRANCH   4  11
ATOM     11  O   UNL     1      30.969 -23.211 -17.407  0.00  0.00    -0.468 OA
ATOM     12  C   UNL     1      29.853 -22.859 -16.592  0.00  0.00    +0.253 C 
ENDBRANCH   4  11
BRANCH   1  13
ATOM     13  C   UNL     1      33.671 -23.673 -13.407  0.00  0.00    +0.000 C 
ATOM     14  C   UNL     1      34.726 -24.267 -12.802  0.00  0.00    +0.000 C 
BRANCH  14  15
ATOM     15  C   UNL     1      35.921 -24.745 -13.479  0.00  0.00    +0.003 C 
ATOM     16  C   UNL     1      35.820 -25.731 -14.461  0.00  0.00    +0.040 C 
ATOM     17  C   UNL     1      37.169 -24.216 -13.148  0.00  0.00    +0.003 C 
ATOM     18  C   UNL     1      36.966 -26.189 -15.110  0.00  0.00    +0.168 C 
ATOM     19  C   UNL     1      38.214 -25.661 -14.779  0.00  0.00    +0.172 C 
ATOM     20  C   UNL     1      38.315 -24.674 -13.797  0.00  0.00    +0.040 C 
BRANCH  19  21
ATOM     21  O   UNL     1      39.340 -26.099 -15.406  0.00  0.00    -0.468 OA
ATOM     22  C   UNL     1      40.559 -26.039 -14.668  0.00  0.00    +0.253 C 
ENDBRANCH  19  21
BRANCH  18  23
ATOM     23  O   UNL     1      36.854 -27.153 -16.066  0.00  0.00    -0.503 OA
ATOM     24  H   UNL     1      37.581 -27.349 -16.622  0.00  0.00    +0.292 HD
ENDBRANCH  18  23
ENDBRANCH  14  15
ENDBRANCH   1  13
TORSDOF 7
ENDMDL
MODEL 4
REMARK VINA RESULT:      -8.1      1.388      2.086
REMARK  Name = 5351344
REMARK  7 active torsions:
REMARK  status: ('A' for Active; 'I' for Inactive)
REMARK    1  A    between atoms: C_1  and  C_13
REMARK    2  A    between atoms: C_2  and  O_7
REMARK    3  A    between atoms: C_3  and  O_9
REMARK    4  A    between atoms: C_4  and  O_11
REMARK    5  A    between atoms: C_14  and  C_15
REMARK    6  A    between atoms: C_18  and  O_23
REMARK    7  A    between atoms: C_19  and  O_21
REMARK                            x       y       z     vdW  Elec       q    Type
REMARK                         _______ _______ _______ _____ _____    ______ ____
ROOT
ATOM      1  C   UNL     1      33.529 -23.420 -14.874  0.00  0.00    +0.006 C 
ATOM      2  C   UNL     1      33.295 -22.924 -17.589  0.00  0.00    +0.206 C 
ATOM      3  C   UNL     1      32.160 -23.218 -16.834  0.00  0.00    +0.175 C 
ATOM      4  C   UNL     1      34.548 -22.880 -16.978  0.00  0.00    +0.175 C 
ATOM      5  C   UNL     1      32.278 -23.469 -15.467  0.00  0.00    +0.040 C 
ATOM      6  C   UNL     1      34.666 -23.130 -15.611  0.00  0.00    +0.040 C 
ENDROOT
BRANCH   2   7
ATOM      7  O   UNL     1      33.180 -22.679 -18.926  0.00  0.00    -0.465 OA
ATOM      8  C   UNL     1      33.187 -21.314 -19.337  0.00  0.00    +0.253 C 
ENDBRANCH   2   7
BRANCH   3   9
ATOM      9  O   UNL     1      30.931 -23.265 -17.419  0.00  0.00    -0.468 OA
ATOM     10  C   UNL     1      29.822 -22.832 -16.634  0.00  0.00    +0.253 C 
ENDBRANCH   3   9
BRANCH   4  11
ATOM     11  O   UNL     1      35.665 -22.593 -17.704  0.00  0.00    -0.468 OA
ATOM     12  C   UNL     1      36.807 -22.136 -16.983  0.00  0.00    +0.253 C 
ENDBRANCH   4  11
BRANCH   1  13
ATOM     13  C   UNL     1      33.654 -23.685 -13.429  0.00  0.00    +0.000 C 
ATOM     14  C   UNL     1      34.719 -24.267 -12.831  0.00  0.00    +0.000 C 
BRANCH  14  15
ATOM     15  C   UNL     1      35.917 -24.728 -13.516  0.00  0.00    +0.003 C 
ATOM     16  C   UNL     1      35.829 -25.747 -14.466  0.00  0.00    +0.040 C 
ATOM     17  C   UNL     1      37.153 -24.151 -13.225  0.00  0.00    +0.003 C 
ATOM     18  C   UNL     1      36.977 -26.189 -15.122  0.00  0.00    +0.168 C 
ATOM     19  C   UNL     1      38.214 -25.612 -14.831  0.00  0.00    +0.172 C 
ATOM     20  C   UNL     1      38.301 -24.593 -13.881  0.00  0.00    +0.040 C 
BRANCH  19  21
ATOM     21  O   UNL     1      39.342 -26.035 -15.465  0.00  0.00    -0.468 OA
ATOM     22  C   UNL     1      40.544 -26.064 -14.699  0.00  0.00    +0.253 C 
ENDBRANCH  19  21
BRANCH  18  23
ATOM     23  O   UNL     1      36.879 -27.185 -16.046  0.00  0.00    -0.503 OA
ATOM     24  H   UNL     1      36.285 -27.100 -16.765  0.00  0.00    +0.292 HD
ENDBRANCH  18  23
ENDBRANCH  14  15
ENDBRANCH   1  13
TORSDOF 7
ENDMDL
MODEL 5
REMARK VINA RESULT:      -8.0      9.175     14.206
REMARK  Name = 5351344
REMARK  7 active torsions:
REMARK  status: ('A' for Active; 'I' for Inactive)
REMARK    1  A    between atoms: C_1  and  C_13
REMARK    2  A    between atoms: C_2  and  O_7
REMARK    3  A    between atoms: C_3  and  O_9
REMARK    4  A    between atoms: C_4  and  O_11
REMARK    5  A    between atoms: C_14  and  C_15
REMARK    6  A    between atoms: C_18  and  O_23
REMARK    7  A    between atoms: C_19  and  O_21
REMARK                            x       y       z     vdW  Elec       q    Type
REMARK                         _______ _______ _______ _____ _____    ______ ____
ROOT
ATOM      1  C   UNL     1      33.572 -14.930 -25.265  0.00  0.00    +0.006 C 
ATOM      2  C   UNL     1      34.500 -16.002 -22.885  0.00  0.00    +0.206 C 
ATOM      3  C   UNL     1      34.744 -16.662 -24.089  0.00  0.00    +0.175 C 
ATOM      4  C   UNL     1      33.788 -14.802 -22.878  0.00  0.00    +0.175 C 
ATOM      5  C   UNL     1      34.276 -16.122 -25.287  0.00  0.00    +0.040 C 
ATOM      6  C   UNL     1      33.320 -14.262 -24.076  0.00  0.00    +0.040 C 
ENDROOT
BRANCH   2   7
ATOM      7  O   UNL     1      34.957 -16.529 -21.713  0.00  0.00    -0.465 OA
ATOM      8  C   UNL     1      34.146 -17.524 -21.091  0.00  0.00    +0.253 C 
ENDBRANCH   2   7
BRANCH   3   9
ATOM      9  O   UNL     1      35.437 -17.835 -24.108  0.00  0.00    -0.468 OA
ATOM     10  C   UNL     1      34.710 -19.012 -24.457  0.00  0.00    +0.253 C 
ENDBRANCH   3   9
BRANCH   4  11
ATOM     11  O   UNL     1      33.543 -14.147 -21.709  0.00  0.00    -0.468 OA
ATOM     12  C   UNL     1      32.305 -13.447 -21.605  0.00  0.00    +0.253 C 
ENDBRANCH   4  11
BRANCH   1  13
ATOM     13  C   UNL     1      33.077 -14.360 -26.530  0.00  0.00    +0.000 C 
ATOM     14  C   UNL     1      33.126 -13.050 -26.868  0.00  0.00    +0.000 C 
BRANCH  14  15
ATOM     15  C   UNL     1      33.674 -11.989 -26.037  0.00  0.00    +0.003 C 
ATOM     16  C   UNL     1      32.986 -11.569 -24.899  0.00  0.00    +0.040 C 
ATOM     17  C   UNL     1      34.889 -11.393 -26.378  0.00  0.00    +0.003 C 
ATOM     18  C   UNL     1      33.511 -10.552 -24.103  0.00  0.00    +0.168 C 
ATOM     19  C   UNL     1      34.726  -9.955 -24.443  0.00  0.00    +0.172 C 
ATOM     20  C   UNL     1      35.414 -10.376 -25.582  0.00  0.00    +0.040 C 
BRANCH  19  21
ATOM     21  O   UNL     1      35.249  -8.962 -23.673  0.00  0.00    -0.468 OA
ATOM     22  C   UNL     1      34.719  -7.651 -23.857  0.00  0.00    +0.253 C 
ENDBRANCH  19  21
BRANCH  18  23
ATOM     23  O   UNL     1      32.830 -10.150 -22.994  0.00  0.00    -0.503 OA
ATOM     24  H   UNL     1      33.189 -10.300 -22.142  0.00  0.00    +0.292 HD
ENDBRANCH  18  23
ENDBRANCH  14  15
ENDBRANCH   1  13
TORSDOF 7
ENDMDL
MODEL 6
REMARK VINA RESULT:      -8.0      9.181     14.174
REMARK  Name = 5351344
REMARK  7 active torsions:
REMARK  status: ('A' for Active; 'I' for Inactive)
REMARK    1  A    between atoms: C_1  and  C_13
REMARK    2  A    between atoms: C_2  and  O_7
REMARK    3  A    between atoms: C_3  and  O_9
REMARK    4  A    between atoms: C_4  and  O_11
REMARK    5  A    between atoms: C_14  and  C_15
REMARK    6  A    between atoms: C_18  and  O_23
REMARK    7  A    between atoms: C_19  and  O_21
REMARK                            x       y       z     vdW  Elec       q    Type
REMARK                         _______ _______ _______ _____ _____    ______ ____
ROOT
ATOM      1  C   UNL     1      33.570 -14.918 -25.268  0.00  0.00    +0.006 C 
ATOM      2  C   UNL     1      34.502 -15.997 -22.892  0.00  0.00    +0.206 C 
ATOM      3  C   UNL     1      33.792 -14.796 -22.882  0.00  0.00    +0.175 C 
ATOM      4  C   UNL     1      34.743 -16.654 -24.099  0.00  0.00    +0.175 C 
ATOM      5  C   UNL     1      33.323 -14.253 -24.078  0.00  0.00    +0.040 C 
ATOM      6  C   UNL     1      34.274 -16.112 -25.295  0.00  0.00    +0.040 C 
ENDROOT
BRANCH   2   7
ATOM      7  O   UNL     1      34.960 -16.528 -21.723  0.00  0.00    -0.465 OA
ATOM      8  C   UNL     1      34.117 -17.471 -21.066  0.00  0.00    +0.253 C 
ENDBRANCH   2   7
BRANCH   3   9
ATOM      9  O   UNL     1      33.550 -14.144 -21.711  0.00  0.00    -0.468 OA
ATOM     10  C   UNL     1      32.301 -13.465 -21.593  0.00  0.00    +0.253 C 
ENDBRANCH   3   9
BRANCH   4  11
ATOM     11  O   UNL     1      35.435 -17.828 -24.123  0.00  0.00    -0.468 OA
ATOM     12  C   UNL     1      34.694 -19.011 -24.413  0.00  0.00    +0.253 C 
ENDBRANCH   4  11
BRANCH   1  13
ATOM     13  C   UNL     1      33.075 -14.345 -26.532  0.00  0.00    +0.000 C 
ATOM     14  C   UNL     1      33.122 -13.034 -26.866  0.00  0.00    +0.000 C 
BRANCH  14  15
ATOM     15  C   UNL     1      33.670 -11.975 -26.033  0.00  0.00    +0.003 C 
ATOM     16  C   UNL     1      32.985 -11.561 -24.891  0.00  0.00    +0.040 C 
ATOM     17  C   UNL     1      34.882 -11.375 -26.375  0.00  0.00    +0.003 C 
ATOM     18  C   UNL     1      33.510 -10.546 -24.092  0.00  0.00    +0.168 C 
ATOM     19  C   UNL     1      34.721  -9.945 -24.434  0.00  0.00    +0.172 C 
ATOM     20  C   UNL     1      35.407 -10.359 -25.577  0.00  0.00    +0.040 C 
BRANCH  19  21
ATOM     21  O   UNL     1      35.245  -8.953 -23.662  0.00  0.00    -0.468 OA
ATOM     22  C   UNL     1      34.714  -7.642 -23.842  0.00  0.00    +0.253 C 
ENDBRANCH  19  21
BRANCH  18  23
ATOM     23  O   UNL     1      32.831 -10.150 -22.979  0.00  0.00    -0.503 OA
ATOM     24  H   UNL     1      32.205 -10.723 -22.584  0.00  0.00    +0.292 HD
ENDBRANCH  18  23
ENDBRANCH  14  15
ENDBRANCH   1  13
TORSDOF 7
ENDMDL
MODEL 7
REMARK VINA RESULT:      -7.6      2.031      4.098
REMARK  Name = 5351344
REMARK  7 active torsions:
REMARK  status: ('A' for Active; 'I' for Inactive)
REMARK    1  A    between atoms: C_1  and  C_13
REMARK    2  A    between atoms: C_2  and  O_7
REMARK    3  A    between atoms: C_3  and  O_9
REMARK    4  A    between atoms: C_4  and  O_11
REMARK    5  A    between atoms: C_14  and  C_15
REMARK    6  A    between atoms: C_18  and  O_23
REMARK    7  A    between atoms: C_19  and  O_21
REMARK                            x       y       z     vdW  Elec       q    Type
REMARK                         _______ _______ _______ _____ _____    ______ ____
ROOT
ATOM      1  C   UNL     1      35.517 -22.575 -17.129  0.00  0.00    +0.006 C 
ATOM      2  C   UNL     1      32.801 -23.091 -17.313  0.00  0.00    +0.206 C 
ATOM      3  C   UNL     1      33.511 -23.487 -16.180  0.00  0.00    +0.175 C 
ATOM      4  C   UNL     1      33.459 -22.436 -18.355  0.00  0.00    +0.175 C 
ATOM      5  C   UNL     1      34.878 -23.227 -16.087  0.00  0.00    +0.040 C 
ATOM      6  C   UNL     1      34.826 -22.176 -18.262  0.00  0.00    +0.040 C 
ENDROOT
BRANCH   2   7
ATOM      7  O   UNL     1      31.465 -23.346 -17.404  0.00  0.00    -0.465 OA
ATOM      8  C   UNL     1      30.603 -22.593 -16.553  0.00  0.00    +0.253 C 
ENDBRANCH   2   7
BRANCH   3   9
ATOM      9  O   UNL     1      32.881 -24.128 -15.156  0.00  0.00    -0.468 OA
ATOM     10  C   UNL     1      33.194 -23.699 -13.832  0.00  0.00    +0.253 C 
ENDBRANCH   3   9
BRANCH   4  11
ATOM     11  O   UNL     1      32.777 -22.044 -19.468  0.00  0.00    -0.468 OA
ATOM     12  C   UNL     1      33.165 -20.808 -20.064  0.00  0.00    +0.253 C 
ENDBRANCH   4  11
BRANCH   1  13
ATOM     13  C   UNL     1      36.961 -22.300 -17.031  0.00  0.00    +0.000 C 
ATOM     14  C   UNL     1      37.758 -22.666 -16.000  0.00  0.00    +0.000 C 
BRANCH  14  15
ATOM     15  C   UNL     1      37.319 -23.391 -14.818  0.00  0.00    +0.003 C 
ATOM     16  C   UNL     1      37.276 -24.785 -14.830  0.00  0.00    +0.040 C 
ATOM     17  C   UNL     1      36.944 -22.691 -13.670  0.00  0.00    +0.003 C 
ATOM     18  C   UNL     1      36.855 -25.480 -13.697  0.00  0.00    +0.168 C 
ATOM     19  C   UNL     1      36.479 -24.781 -12.550  0.00  0.00    +0.172 C 
ATOM     20  C   UNL     1      36.523 -23.386 -12.537  0.00  0.00    +0.040 C 
BRANCH  19  21
ATOM     21  O   UNL     1      36.067 -25.448 -11.436  0.00  0.00    -0.468 OA
ATOM     22  C   UNL     1      35.526 -24.665 -10.374  0.00  0.00    +0.253 C 
ENDBRANCH  19  21
BRANCH  18  23
ATOM     23  O   UNL     1      36.816 -26.841 -13.722  0.00  0.00    -0.503 OA
ATOM     24  H   UNL     1      36.828 -27.295 -14.541  0.00  0.00    +0.292 HD
ENDBRANCH  18  23
ENDBRANCH  14  15
ENDBRANCH   1  13
TORSDOF 7
ENDMDL
MODEL 8
REMARK VINA RESULT:      -7.6     10.158     14.484
REMARK  Name = 5351344
REMARK  7 active torsions:
REMARK  status: ('A' for Active; 'I' for Inactive)
REMARK    1  A    between atoms: C_1  and  C_13
REMARK    2  A    between atoms: C_2  and  O_7
REMARK    3  A    between atoms: C_3  and  O_9
REMARK    4  A    between atoms: C_4  and  O_11
REMARK    5  A    between atoms: C_14  and  C_15
REMARK    6  A    between atoms: C_18  and  O_23
REMARK    7  A    between atoms: C_19  and  O_21
REMARK                            x       y       z     vdW  Elec       q    Type
REMARK                         _______ _______ _______ _____ _____    ______ ____
ROOT
ATOM      1  C   UNL     1      32.064 -13.048 -21.387  0.00  0.00    +0.006 C 
ATOM      2  C   UNL     1      34.133 -14.233 -22.798  0.00  0.00    +0.206 C 
ATOM      3  C   UNL     1      33.197 -13.444 -23.465  0.00  0.00    +0.175 C 
ATOM      4  C   UNL     1      34.028 -14.427 -21.420  0.00  0.00    +0.175 C 
ATOM      5  C   UNL     1      32.155 -12.847 -22.754  0.00  0.00    +0.040 C 
ATOM      6  C   UNL     1      32.986 -13.831 -20.709  0.00  0.00    +0.040 C 
ENDROOT
BRANCH   2   7
ATOM      7  O   UNL     1      35.151 -14.817 -23.492  0.00  0.00    -0.465 OA
ATOM      8  C   UNL     1      34.880 -16.076 -24.103  0.00  0.00    +0.253 C 
ENDBRANCH   2   7
BRANCH   3   9
ATOM      9  O   UNL     1      33.288 -13.247 -24.810  0.00  0.00    -0.468 OA
ATOM     10  C   UNL     1      33.827 -12.001 -25.247  0.00  0.00    +0.253 C 
ENDBRANCH   3   9
BRANCH   4  11
ATOM     11  O   UNL     1      34.936 -15.197 -20.757  0.00  0.00    -0.468 OA
ATOM     12  C   UNL     1      34.657 -16.592 -20.663  0.00  0.00    +0.253 C 
ENDBRANCH   4  11
BRANCH   1  13
ATOM     13  C   UNL     1      30.964 -12.418 -20.636  0.00  0.00    +0.000 C 
ATOM     14  C   UNL     1      30.774 -11.085 -20.499  0.00  0.00    +0.000 C 
BRANCH  14  15
ATOM     15  C   UNL     1      31.625 -10.054 -21.072  0.00  0.00    +0.003 C 
ATOM     16  C   UNL     1      32.231  -9.110 -20.244  0.00  0.00    +0.040 C 
ATOM     17  C   UNL     1      31.838 -10.011 -22.451  0.00  0.00    +0.003 C 
ATOM     18  C   UNL     1      33.047  -8.121 -20.793  0.00  0.00    +0.168 C 
ATOM     19  C   UNL     1      33.259  -8.077 -22.171  0.00  0.00    +0.172 C 
ATOM     20  C   UNL     1      32.653  -9.022 -23.000  0.00  0.00    +0.040 C 
BRANCH  19  21
ATOM     21  O   UNL     1      34.054  -7.118 -22.719  0.00  0.00    -0.468 OA
ATOM     22  C   UNL     1      34.448  -7.300 -24.078  0.00  0.00    +0.253 C 
ENDBRANCH  19  21
BRANCH  18  23
ATOM     23  O   UNL     1      33.632  -7.204 -19.973  0.00  0.00    -0.503 OA
ATOM     24  H   UNL     1      33.105  -6.682 -19.402  0.00  0.00    +0.292 HD
ENDBRANCH  18  23
ENDBRANCH  14  15
ENDBRANCH   1  13
TORSDOF 7
ENDMDL
MODEL 9
REMARK VINA RESULT:      -7.6     10.135     14.615
REMARK  Name = 5351344
REMARK  7 active torsions:
REMARK  status: ('A' for Active; 'I' for Inactive)
REMARK    1  A    between atoms: C_1  and  C_13
REMARK    2  A    between atoms: C_2  and  O_7
REMARK    3  A    between atoms: C_3  and  O_9
REMARK    4  A    between atoms: C_4  and  O_11
REMARK    5  A    between atoms: C_14  and  C_15
REMARK    6  A    between atoms: C_18  and  O_23
REMARK    7  A    between atoms: C_19  and  O_21
REMARK                            x       y       z     vdW  Elec       q    Type
REMARK                         _______ _______ _______ _____ _____    ______ ____
ROOT
ATOM      1  C   UNL     1      32.070 -13.063 -21.359  0.00  0.00    +0.006 C 
ATOM      2  C   UNL     1      34.149 -14.245 -22.757  0.00  0.00    +0.206 C 
ATOM      3  C   UNL     1      34.025 -14.453 -21.383  0.00  0.00    +0.175 C 
ATOM      4  C   UNL     1      33.227 -13.441 -23.427  0.00  0.00    +0.175 C 
ATOM      5  C   UNL     1      32.978 -13.858 -20.680  0.00  0.00    +0.040 C 
ATOM      6  C   UNL     1      32.180 -12.845 -22.724  0.00  0.00    +0.040 C 
ENDROOT
BRANCH   2   7
ATOM      7  O   UNL     1      35.173 -14.826 -23.445  0.00  0.00    -0.465 OA
ATOM      8  C   UNL     1      34.892 -16.060 -24.102  0.00  0.00    +0.253 C 
ENDBRANCH   2   7
BRANCH   3   9
ATOM      9  O   UNL     1      34.919 -15.236 -20.717  0.00  0.00    -0.468 OA
ATOM     10  C   UNL     1      34.645 -16.635 -20.668  0.00  0.00    +0.253 C 
ENDBRANCH   3   9
BRANCH   4  11
ATOM     11  O   UNL     1      33.338 -13.229 -24.769  0.00  0.00    -0.468 OA
ATOM     12  C   UNL     1      33.842 -11.961 -25.185  0.00  0.00    +0.253 C 
ENDBRANCH   4  11
BRANCH   1  13
ATOM     13  C   UNL     1      30.963 -12.434 -20.616  0.00  0.00    +0.000 C 
ATOM     14  C   UNL     1      30.770 -11.101 -20.484  0.00  0.00    +0.000 C 
BRANCH  14  15
ATOM     15  C   UNL     1      31.622 -10.069 -21.055  0.00  0.00    +0.003 C 
ATOM     16  C   UNL     1      32.207  -9.111 -20.227  0.00  0.00    +0.040 C 
ATOM     17  C   UNL     1      31.856 -10.039 -22.430  0.00  0.00    +0.003 C 
ATOM     18  C   UNL     1      33.024  -8.122 -20.774  0.00  0.00    +0.168 C 
ATOM     19  C   UNL     1      33.258  -8.091 -22.149  0.00  0.00    +0.172 C 
ATOM     20  C   UNL     1      32.672  -9.050 -22.977  0.00  0.00    +0.040 C 
BRANCH  19  21
ATOM     21  O   UNL     1      34.054  -7.131 -22.694  0.00  0.00    -0.468 OA
ATOM     22  C   UNL     1      34.634  -7.415 -23.966  0.00  0.00    +0.253 C 
ENDBRANCH  19  21
BRANCH  18  23
ATOM     23  O   UNL     1      33.589  -7.192 -19.954  0.00  0.00    -0.503 OA
ATOM     24  H   UNL     1      33.699  -6.310 -20.251  0.00  0.00    +0.292 HD
ENDBRANCH  18  23
ENDBRANCH  14  15
ENDBRANCH   1  13
TORSDOF 7
ENDMDL
