MODEL 1
REMARK VINA RESULT:      -9.9      0.000      0.000
REMARK  Name = 44595079
REMARK  6 active torsions:
REMARK  status: ('A' for Active; 'I' for Inactive)
REMARK    1  A    between atoms: N_1  and  C_33
REMARK    2  A    between atoms: N_3  and  C_14
REMARK    3  A    between atoms: C_6  and  C_30
REMARK    4  A    between atoms: C_11  and  N_18
REMARK    5  A    between atoms: N_17  and  S_23
REMARK    6  A    between atoms: S_23  and  C_26
REMARK                            x       y       z     vdW  Elec       q    Type
REMARK                         _______ _______ _______ _____ _____    ______ ____
ROOT
ATOM      1  N   UNL     1      33.511 -14.111 -22.208  0.00  0.00    -0.309 N 
ATOM      2  N   UNL     1      34.194 -16.232 -23.015  0.00  0.00    -0.322 NA
ATOM      3  N   UNL     1      34.871 -18.321 -23.836  0.00  0.00    -0.247 N 
ATOM      4  N   UNL     1      34.514 -16.591 -25.375  0.00  0.00    -0.169 NA
ATOM      5  C   UNL     1      33.854 -14.957 -23.292  0.00  0.00    +0.199 C 
ATOM      6  C   UNL     1      33.820 -14.432 -24.568  0.00  0.00    +0.118 C 
ATOM      7  C   UNL     1      34.509 -16.983 -24.087  0.00  0.00    +0.150 C 
ATOM      8  C   UNL     1      34.164 -15.304 -25.581  0.00  0.00    +0.120 C 
ATOM      9  H   UNL     1      33.261 -13.180 -22.407  0.00  0.00    +0.149 HD
ATOM     10  H   UNL     1      35.092 -18.830 -24.648  0.00  0.00    +0.165 HD
ENDROOT
BRANCH   3  14
ATOM     11  C   UNL     1      35.196 -20.567 -20.302  0.00  0.00    +0.048 C 
ATOM     12  C   UNL     1      36.329 -19.971 -20.856  0.00  0.00    +0.016 C 
ATOM     13  C   UNL     1      33.955 -20.417 -20.921  0.00  0.00    +0.016 C 
ATOM     14  C   UNL     1      34.979 -19.073 -22.648  0.00  0.00    +0.058 C 
ATOM     15  C   UNL     1      36.220 -19.224 -22.029  0.00  0.00    +0.017 C 
ATOM     16  C   UNL     1      33.847 -19.671 -22.094  0.00  0.00    +0.017 C 
BRANCH  11  18
ATOM     17  N   UNL     1      35.547 -23.011 -16.864  0.00  0.00    -0.156 NA
ATOM     18  N   UNL     1      35.304 -21.317 -19.125  0.00  0.00    -0.305 N 
ATOM     19  C   UNL     1      34.197 -22.682 -17.403  0.00  0.00    +0.117 C 
ATOM     20  C   UNL     1      36.487 -21.868 -17.041  0.00  0.00    +0.117 C 
ATOM     21  C   UNL     1      34.307 -22.372 -18.894  0.00  0.00    +0.110 C 
ATOM     22  C   UNL     1      36.624 -21.543 -18.526  0.00  0.00    +0.110 C 
BRANCH  17  23
ATOM     23  S   UNL     1      35.561 -23.741 -15.315  0.00  0.00    +0.044 S 
ATOM     24  O   UNL     1      35.680 -25.173 -15.477  0.00  0.00    -0.157 OA
ATOM     25  O   UNL     1      34.513 -23.150 -14.513  0.00  0.00    -0.157 OA
BRANCH  23  26
ATOM     26  C   UNL     1      37.117 -23.124 -14.726  0.00  0.00    +0.169 C 
ATOM     27  C   UNL     1      37.589 -23.882 -13.506  0.00  0.00    +0.029 C 
ENDBRANCH  23  26
ENDBRANCH  17  23
ENDBRANCH  11  18
ENDBRANCH   3  14
BRANCH   6  30
ATOM     28  O   UNL     1      33.189 -12.245 -23.967  0.00  0.00    -0.270 OA
ATOM     29  N   UNL     1      33.416 -12.676 -26.207  0.00  0.00    -0.325 N 
ATOM     30  C   UNL     1      33.450 -13.059 -24.870  0.00  0.00    +0.248 C 
ATOM     31  H   UNL     1      33.170 -11.754 -26.450  0.00  0.00    +0.145 HD
ATOM     32  H   UNL     1      33.638 -13.328 -26.912  0.00  0.00    +0.145 HD
ENDBRANCH   6  30
BRANCH   1  33
ATOM     33  C   UNL     1      33.506 -14.541 -20.817  0.00  0.00    +0.071 C 
ATOM     34  C   UNL     1      32.517 -15.553 -20.317  0.00  0.00    +0.021 C 
ATOM     35  C   UNL     1      32.416 -14.122 -19.874  0.00  0.00    +0.021 C 
ENDBRANCH   1  33
TORSDOF 6
ENDMDL
MODEL 2
REMARK VINA RESULT:      -9.9      1.058      1.297
REMARK  Name = 44595079
REMARK  6 active torsions:
REMARK  status: ('A' for Active; 'I' for Inactive)
REMARK    1  A    between atoms: N_1  and  C_33
REMARK    2  A    between atoms: N_3  and  C_14
REMARK    3  A    between atoms: C_6  and  C_30
REMARK    4  A    between atoms: C_11  and  N_18
REMARK    5  A    between atoms: N_17  and  S_23
REMARK    6  A    between atoms: S_23  and  C_26
REMARK                            x       y       z     vdW  Elec       q    Type
REMARK                         _______ _______ _______ _____ _____    ______ ____
ROOT
ATOM      1  N   UNL     1      33.502 -14.417 -22.255  0.00  0.00    -0.309 N 
ATOM      2  N   UNL     1      34.169 -16.576 -22.970  0.00  0.00    -0.322 NA
ATOM      3  N   UNL     1      34.831 -18.703 -23.701  0.00  0.00    -0.247 N 
ATOM      4  N   UNL     1      34.537 -17.024 -25.308  0.00  0.00    -0.169 NA
ATOM      5  C   UNL     1      33.856 -15.307 -23.300  0.00  0.00    +0.199 C 
ATOM      6  C   UNL     1      33.860 -14.827 -24.595  0.00  0.00    +0.118 C 
ATOM      7  C   UNL     1      34.497 -17.370 -24.008  0.00  0.00    +0.150 C 
ATOM      8  C   UNL     1      34.212 -15.740 -25.567  0.00  0.00    +0.120 C 
ATOM      9  H   UNL     1      33.271 -13.490 -22.493  0.00  0.00    +0.149 HD
ATOM     10  H   UNL     1      35.062 -19.244 -24.489  0.00  0.00    +0.165 HD
ENDROOT
BRANCH   3  14
ATOM     11  C   UNL     1      35.038 -20.826 -20.082  0.00  0.00    +0.048 C 
ATOM     12  C   UNL     1      36.210 -20.445 -20.736  0.00  0.00    +0.016 C 
ATOM     13  C   UNL     1      33.797 -20.502 -20.631  0.00  0.00    +0.016 C 
ATOM     14  C   UNL     1      34.900 -19.414 -22.485  0.00  0.00    +0.058 C 
ATOM     15  C   UNL     1      36.141 -19.738 -21.937  0.00  0.00    +0.017 C 
ATOM     16  C   UNL     1      33.729 -19.796 -21.832  0.00  0.00    +0.017 C 
BRANCH  11  18
ATOM     17  N   UNL     1      35.278 -23.150 -16.553  0.00  0.00    -0.156 NA
ATOM     18  N   UNL     1      35.107 -21.534 -18.878  0.00  0.00    -0.305 N 
ATOM     19  C   UNL     1      33.948 -22.860 -17.160  0.00  0.00    +0.117 C 
ATOM     20  C   UNL     1      36.207 -21.997 -16.728  0.00  0.00    +0.117 C 
ATOM     21  C   UNL     1      34.117 -22.598 -18.654  0.00  0.00    +0.110 C 
ATOM     22  C   UNL     1      36.404 -21.719 -18.216  0.00  0.00    +0.110 C 
BRANCH  17  23
ATOM     23  S   UNL     1      35.237 -23.828 -14.980  0.00  0.00    +0.044 S 
ATOM     24  O   UNL     1      36.088 -23.043 -14.114  0.00  0.00    -0.157 OA
ATOM     25  O   UNL     1      35.377 -25.263 -15.090  0.00  0.00    -0.157 OA
BRANCH  23  26
ATOM     26  C   UNL     1      33.550 -23.472 -14.563  0.00  0.00    +0.169 C 
ATOM     27  C   UNL     1      32.900 -24.632 -13.844  0.00  0.00    +0.029 C 
ENDBRANCH  23  26
ENDBRANCH  17  23
ENDBRANCH  11  18
ENDBRANCH   3  14
BRANCH   6  30
ATOM     28  O   UNL     1      33.650 -12.526 -24.144  0.00  0.00    -0.270 OA
ATOM     29  N   UNL     1      33.057 -13.226 -26.245  0.00  0.00    -0.325 N 
ATOM     30  C   UNL     1      33.519 -13.461 -24.953  0.00  0.00    +0.248 C 
ATOM     31  H   UNL     1      32.816 -12.312 -26.524  0.00  0.00    +0.145 HD
ATOM     32  H   UNL     1      32.971 -13.973 -26.881  0.00  0.00    +0.145 HD
ENDBRANCH   6  30
BRANCH   1  33
ATOM     33  C   UNL     1      33.459 -14.797 -20.850  0.00  0.00    +0.071 C 
ATOM     34  C   UNL     1      32.355 -15.659 -20.309  0.00  0.00    +0.021 C 
ATOM     35  C   UNL     1      32.441 -14.213 -19.915  0.00  0.00    +0.021 C 
ENDBRANCH   1  33
TORSDOF 6
ENDMDL
MODEL 3
REMARK VINA RESULT:      -8.9      4.503      7.442
REMARK  Name = 44595079
REMARK  6 active torsions:
REMARK  status: ('A' for Active; 'I' for Inactive)
REMARK    1  A    between atoms: N_1  and  C_33
REMARK    2  A    between atoms: N_3  and  C_14
REMARK    3  A    between atoms: C_6  and  C_30
REMARK    4  A    between atoms: C_11  and  N_18
REMARK    5  A    between atoms: N_17  and  S_23
REMARK    6  A    between atoms: S_23  and  C_26
REMARK                            x       y       z     vdW  Elec       q    Type
REMARK                         _______ _______ _______ _____ _____    ______ ____
ROOT
ATOM      1  N   UNL     1      34.519  -8.436 -24.787  0.00  0.00    -0.309 N 
ATOM      2  N   UNL     1      32.913  -9.413 -23.344  0.00  0.00    -0.322 NA
ATOM      3  N   UNL     1      31.311 -10.356 -21.916  0.00  0.00    -0.247 N 
ATOM      4  N   UNL     1      31.042  -8.117 -22.551  0.00  0.00    -0.169 NA
ATOM      5  C   UNL     1      33.330  -8.325 -24.023  0.00  0.00    +0.199 C 
ATOM      6  C   UNL     1      32.667  -7.115 -24.017  0.00  0.00    +0.118 C 
ATOM      7  C   UNL     1      31.778  -9.242 -22.639  0.00  0.00    +0.150 C 
ATOM      8  C   UNL     1      31.518  -7.069 -23.256  0.00  0.00    +0.120 C 
ATOM      9  H   UNL     1      34.827  -7.644 -25.284  0.00  0.00    +0.149 HD
ATOM     10  H   UNL     1      30.481 -10.185 -21.417  0.00  0.00    +0.165 HD
ENDROOT
BRANCH   3  14
ATOM     11  C   UNL     1      32.773 -14.269 -21.473  0.00  0.00    +0.048 C 
ATOM     12  C   UNL     1      32.332 -13.558 -20.357  0.00  0.00    +0.016 C 
ATOM     13  C   UNL     1      32.728 -13.681 -22.737  0.00  0.00    +0.016 C 
ATOM     14  C   UNL     1      31.800 -11.671 -21.768  0.00  0.00    +0.058 C 
ATOM     15  C   UNL     1      31.845 -12.260 -20.504  0.00  0.00    +0.017 C 
ATOM     16  C   UNL     1      32.242 -12.382 -22.884  0.00  0.00    +0.017 C 
BRANCH  11  18
ATOM     17  N   UNL     1      34.338 -18.151 -20.840  0.00  0.00    -0.156 NA
ATOM     18  N   UNL     1      33.261 -15.572 -21.326  0.00  0.00    -0.305 N 
ATOM     19  C   UNL     1      35.104 -17.168 -21.657  0.00  0.00    +0.117 C 
ATOM     20  C   UNL     1      32.870 -17.984 -21.041  0.00  0.00    +0.117 C 
ATOM     21  C   UNL     1      34.718 -15.750 -21.243  0.00  0.00    +0.110 C 
ATOM     22  C   UNL     1      32.453 -16.576 -20.623  0.00  0.00    +0.110 C 
BRANCH  17  23
ATOM     23  S   UNL     1      34.909 -19.764 -20.905  0.00  0.00    +0.044 S 
ATOM     24  O   UNL     1      35.997 -19.910 -19.964  0.00  0.00    -0.157 OA
ATOM     25  O   UNL     1      35.043 -20.154 -22.291  0.00  0.00    -0.157 OA
BRANCH  23  26
ATOM     26  C   UNL     1      33.490 -20.593 -20.236  0.00  0.00    +0.169 C 
ATOM     27  C   UNL     1      33.890 -21.753 -19.353  0.00  0.00    +0.029 C 
ENDBRANCH  23  26
ENDBRANCH  17  23
ENDBRANCH  11  18
ENDBRANCH   3  14
BRANCH   6  30
ATOM     28  O   UNL     1      34.204  -5.929 -25.349  0.00  0.00    -0.270 OA
ATOM     29  N   UNL     1      32.279  -4.830 -24.766  0.00  0.00    -0.325 N 
ATOM     30  C   UNL     1      33.117  -5.941 -24.746  0.00  0.00    +0.248 C 
ATOM     31  H   UNL     1      32.550  -4.016 -25.250  0.00  0.00    +0.145 HD
ATOM     32  H   UNL     1      31.414  -4.857 -24.296  0.00  0.00    +0.145 HD
ENDBRANCH   6  30
BRANCH   1  33
ATOM     33  C   UNL     1      35.311  -9.654 -24.877  0.00  0.00    +0.071 C 
ATOM     34  C   UNL     1      35.718 -10.223 -26.205  0.00  0.00    +0.021 C 
ATOM     35  C   UNL     1      34.710 -10.943 -25.358  0.00  0.00    +0.021 C 
ENDBRANCH   1  33
TORSDOF 6
ENDMDL
MODEL 4
REMARK VINA RESULT:      -8.3      3.296     10.635
REMARK  Name = 44595079
REMARK  6 active torsions:
REMARK  status: ('A' for Active; 'I' for Inactive)
REMARK    1  A    between atoms: N_1  and  C_33
REMARK    2  A    between atoms: N_3  and  C_14
REMARK    3  A    between atoms: C_6  and  C_30
REMARK    4  A    between atoms: C_11  and  N_18
REMARK    5  A    between atoms: N_17  and  S_23
REMARK    6  A    between atoms: S_23  and  C_26
REMARK                            x       y       z     vdW  Elec       q    Type
REMARK                         _______ _______ _______ _____ _____    ______ ____
ROOT
ATOM      1  N   UNL     1      33.043 -23.141 -15.028  0.00  0.00    -0.309 N 
ATOM      2  N   UNL     1      35.089 -22.661 -16.124  0.00  0.00    -0.322 NA
ATOM      3  N   UNL     1      37.125 -22.201 -17.191  0.00  0.00    -0.247 N 
ATOM      4  N   UNL     1      37.172 -23.470 -15.222  0.00  0.00    -0.169 NA
ATOM      5  C   UNL     1      34.455 -23.255 -15.093  0.00  0.00    +0.199 C 
ATOM      6  C   UNL     1      35.100 -23.964 -14.100  0.00  0.00    +0.118 C 
ATOM      7  C   UNL     1      36.428 -22.807 -16.128  0.00  0.00    +0.150 C 
ATOM      8  C   UNL     1      36.473 -24.040 -14.218  0.00  0.00    +0.120 C 
ATOM      9  H   UNL     1      32.577 -23.573 -14.276  0.00  0.00    +0.149 HD
ATOM     10  H   UNL     1      38.099 -22.333 -17.152  0.00  0.00    +0.165 HD
ENDROOT
BRANCH   3  14
ATOM     11  C   UNL     1      35.863 -19.945 -20.501  0.00  0.00    +0.048 C 
ATOM     12  C   UNL     1      35.076 -20.998 -20.033  0.00  0.00    +0.016 C 
ATOM     13  C   UNL     1      37.068 -19.641 -19.869  0.00  0.00    +0.016 C 
ATOM     14  C   UNL     1      36.701 -21.442 -18.301  0.00  0.00    +0.058 C 
ATOM     15  C   UNL     1      35.495 -21.746 -18.933  0.00  0.00    +0.017 C 
ATOM     16  C   UNL     1      37.487 -20.390 -18.770  0.00  0.00    +0.017 C 
BRANCH  11  18
ATOM     17  N   UNL     1      34.388 -17.714 -23.782  0.00  0.00    -0.156 NA
ATOM     18  N   UNL     1      35.443 -19.194 -21.605  0.00  0.00    -0.305 N 
ATOM     19  C   UNL     1      34.746 -19.148 -23.964  0.00  0.00    +0.117 C 
ATOM     20  C   UNL     1      35.304 -17.054 -22.808  0.00  0.00    +0.117 C 
ATOM     21  C   UNL     1      34.634 -19.875 -22.626  0.00  0.00    +0.110 C 
ATOM     22  C   UNL     1      35.203 -17.754 -21.455  0.00  0.00    +0.110 C 
BRANCH  17  23
ATOM     23  S   UNL     1      34.098 -16.839 -25.226  0.00  0.00    +0.044 S 
ATOM     24  O   UNL     1      32.996 -17.455 -25.929  0.00  0.00    -0.157 OA
ATOM     25  O   UNL     1      35.365 -16.579 -25.873  0.00  0.00    -0.157 OA
BRANCH  23  26
ATOM     26  C   UNL     1      33.519 -15.317 -24.522  0.00  0.00    +0.169 C 
ATOM     27  C   UNL     1      33.093 -14.338 -25.593  0.00  0.00    +0.029 C 
ENDBRANCH  23  26
ENDBRANCH  17  23
ENDBRANCH  11  18
ENDBRANCH   3  14
BRANCH   6  30
ATOM     28  O   UNL     1      33.194 -24.819 -13.013  0.00  0.00    -0.270 OA
ATOM     29  N   UNL     1      35.186 -24.983 -11.889  0.00  0.00    -0.325 N 
ATOM     30  C   UNL     1      34.419 -24.602 -12.986  0.00  0.00    +0.248 C 
ATOM     31  H   UNL     1      34.758 -25.417 -11.116  0.00  0.00    +0.145 HD
ATOM     32  H   UNL     1      36.157 -24.818 -11.886  0.00  0.00    +0.145 HD
ENDBRANCH   6  30
BRANCH   1  33
ATOM     33  C   UNL     1      32.245 -22.421 -16.010  0.00  0.00    +0.071 C 
ATOM     34  C   UNL     1      30.913 -22.942 -16.465  0.00  0.00    +0.021 C 
ATOM     35  C   UNL     1      32.078 -22.936 -17.410  0.00  0.00    +0.021 C 
ENDBRANCH   1  33
TORSDOF 6
ENDMDL
MODEL 5
REMARK VINA RESULT:      -7.9      7.036     13.860
REMARK  Name = 44595079
REMARK  6 active torsions:
REMARK  status: ('A' for Active; 'I' for Inactive)
REMARK    1  A    between atoms: N_1  and  C_33
REMARK    2  A    between atoms: N_3  and  C_14
REMARK    3  A    between atoms: C_6  and  C_30
REMARK    4  A    between atoms: C_11  and  N_18
REMARK    5  A    between atoms: N_17  and  S_23
REMARK    6  A    between atoms: S_23  and  C_26
REMARK                            x       y       z     vdW  Elec       q    Type
REMARK                         _______ _______ _______ _____ _____    ______ ____
ROOT
ATOM      1  N   UNL     1      34.200 -14.559 -23.620  0.00  0.00    -0.309 N 
ATOM      2  N   UNL     1      33.037 -13.315 -21.971  0.00  0.00    -0.322 NA
ATOM      3  N   UNL     1      31.887 -12.105 -20.326  0.00  0.00    -0.247 N 
ATOM      4  N   UNL     1      32.415 -14.344 -19.884  0.00  0.00    -0.169 NA
ATOM      5  C   UNL     1      33.590 -14.488 -22.342  0.00  0.00    +0.199 C 
ATOM      6  C   UNL     1      33.596 -15.618 -21.550  0.00  0.00    +0.118 C 
ATOM      7  C   UNL     1      32.475 -13.313 -20.747  0.00  0.00    +0.150 C 
ATOM      8  C   UNL     1      32.988 -15.487 -20.319  0.00  0.00    +0.120 C 
ATOM      9  H   UNL     1      34.604 -15.415 -23.894  0.00  0.00    +0.149 HD
ATOM     10  H   UNL     1      31.490 -12.151 -19.427  0.00  0.00    +0.165 HD
ENDROOT
BRANCH   3  14
ATOM     11  C   UNL     1      31.507  -8.343 -22.156  0.00  0.00    +0.048 C 
ATOM     12  C   UNL     1      31.142  -9.497 -22.849  0.00  0.00    +0.016 C 
ATOM     13  C   UNL     1      31.998  -8.439 -20.854  0.00  0.00    +0.016 C 
ATOM     14  C   UNL     1      31.758 -10.842 -20.939  0.00  0.00    +0.058 C 
ATOM     15  C   UNL     1      31.267 -10.746 -22.241  0.00  0.00    +0.017 C 
ATOM     16  C   UNL     1      32.124  -9.688 -20.246  0.00  0.00    +0.017 C 
BRANCH  11  18
ATOM     17  N   UNL     1      30.926  -4.607 -24.058  0.00  0.00    -0.156 NA
ATOM     18  N   UNL     1      31.381  -7.090 -22.765  0.00  0.00    -0.305 N 
ATOM     19  C   UNL     1      31.577  -5.723 -24.801  0.00  0.00    +0.117 C 
ATOM     20  C   UNL     1      31.299  -4.637 -22.615  0.00  0.00    +0.117 C 
ATOM     21  C   UNL     1      31.127  -7.057 -24.213  0.00  0.00    +0.110 C 
ATOM     22  C   UNL     1      30.850  -5.958 -21.997  0.00  0.00    +0.110 C 
BRANCH  17  23
ATOM     23  S   UNL     1      31.018  -3.071 -24.809  0.00  0.00    +0.044 S 
ATOM     24  O   UNL     1      31.923  -2.237 -24.050  0.00  0.00    -0.157 OA
ATOM     25  O   UNL     1      29.680  -2.636 -25.143  0.00  0.00    -0.157 OA
BRANCH  23  26
ATOM     26  C   UNL     1      31.834  -3.540 -26.313  0.00  0.00    +0.169 C 
ATOM     27  C   UNL     1      31.645  -2.500 -27.394  0.00  0.00    +0.029 C 
ENDBRANCH  23  26
ENDBRANCH  17  23
ENDBRANCH  11  18
ENDBRANCH   3  14
BRANCH   6  30
ATOM     28  O   UNL     1      34.103 -17.301 -23.118  0.00  0.00    -0.270 OA
ATOM     29  N   UNL     1      34.876 -17.611 -20.982  0.00  0.00    -0.325 N 
ATOM     30  C   UNL     1      34.189 -16.884 -21.949  0.00  0.00    +0.248 C 
ATOM     31  H   UNL     1      35.291 -18.473 -21.215  0.00  0.00    +0.145 HD
ATOM     32  H   UNL     1      34.948 -17.263 -20.063  0.00  0.00    +0.145 HD
ENDBRANCH   6  30
BRANCH   1  33
ATOM     33  C   UNL     1      34.261 -13.441 -24.550  0.00  0.00    +0.071 C 
ATOM     34  C   UNL     1      33.098 -12.509 -24.726  0.00  0.00    +0.021 C 
ATOM     35  C   UNL     1      33.481 -13.449 -25.832  0.00  0.00    +0.021 C 
ENDBRANCH   1  33
TORSDOF 6
ENDMDL
MODEL 6
REMARK VINA RESULT:      -7.9      7.334     13.823
REMARK  Name = 44595079
REMARK  6 active torsions:
REMARK  status: ('A' for Active; 'I' for Inactive)
REMARK    1  A    between atoms: N_1  and  C_33
REMARK    2  A    between atoms: N_3  and  C_14
REMARK    3  A    between atoms: C_6  and  C_30
REMARK    4  A    between atoms: C_11  and  N_18
REMARK    5  A    between atoms: N_17  and  S_23
REMARK    6  A    between atoms: S_23  and  C_26
REMARK                            x       y       z     vdW  Elec       q    Type
REMARK                         _______ _______ _______ _____ _____    ______ ____
ROOT
ATOM      1  N   UNL     1      33.925 -14.102 -25.214  0.00  0.00    -0.309 N 
ATOM      2  N   UNL     1      33.131 -13.171 -23.185  0.00  0.00    -0.322 NA
ATOM      3  N   UNL     1      32.349 -12.271 -21.166  0.00  0.00    -0.247 N 
ATOM      4  N   UNL     1      32.957 -14.533 -21.205  0.00  0.00    -0.169 NA
ATOM      5  C   UNL     1      33.595 -14.252 -23.843  0.00  0.00    +0.199 C 
ATOM      6  C   UNL     1      33.766 -15.491 -23.260  0.00  0.00    +0.118 C 
ATOM      7  C   UNL     1      32.836 -13.378 -21.887  0.00  0.00    +0.150 C 
ATOM      8  C   UNL     1      33.427 -15.573 -21.925  0.00  0.00    +0.120 C 
ATOM      9  H   UNL     1      34.264 -14.890 -25.698  0.00  0.00    +0.149 HD
ATOM     10  H   UNL     1      32.148 -12.469 -20.224  0.00  0.00    +0.165 HD
ENDROOT
BRANCH   3  14
ATOM     11  C   UNL     1      31.597  -8.283 -22.251  0.00  0.00    +0.048 C 
ATOM     12  C   UNL     1      31.696  -9.268 -23.235  0.00  0.00    +0.016 C 
ATOM     13  C   UNL     1      31.746  -8.624 -20.907  0.00  0.00    +0.016 C 
ATOM     14  C   UNL     1      32.094 -10.933 -21.530  0.00  0.00    +0.058 C 
ATOM     15  C   UNL     1      31.945 -10.592 -22.874  0.00  0.00    +0.017 C 
ATOM     16  C   UNL     1      31.996  -9.948 -20.547  0.00  0.00    +0.017 C 
BRANCH  11  18
ATOM     17  N   UNL     1      31.035  -4.212 -23.260  0.00  0.00    -0.156 NA
ATOM     18  N   UNL     1      31.347  -6.955 -22.612  0.00  0.00    -0.305 N 
ATOM     19  C   UNL     1      30.495  -4.737 -21.975  0.00  0.00    +0.117 C 
ATOM     20  C   UNL     1      30.957  -5.243 -24.334  0.00  0.00    +0.117 C 
ATOM     21  C   UNL     1      31.309  -5.951 -21.539  0.00  0.00    +0.110 C 
ATOM     22  C   UNL     1      31.775  -6.467 -23.929  0.00  0.00    +0.110 C 
BRANCH  17  23
ATOM     23  S   UNL     1      30.491  -2.649 -23.703  0.00  0.00    +0.044 S 
ATOM     24  O   UNL     1      29.859  -2.035 -22.557  0.00  0.00    -0.157 OA
ATOM     25  O   UNL     1      29.827  -2.734 -24.984  0.00  0.00    -0.157 OA
BRANCH  23  26
ATOM     26  C   UNL     1      32.062  -1.863 -23.951  0.00  0.00    +0.169 C 
ATOM     27  C   UNL     1      32.495  -1.932 -25.398  0.00  0.00    +0.029 C 
ENDBRANCH  23  26
ENDBRANCH  17  23
ENDBRANCH  11  18
ENDBRANCH   3  14
BRANCH   6  30
ATOM     28  O   UNL     1      33.813 -16.981 -25.083  0.00  0.00    -0.270 OA
ATOM     29  N   UNL     1      35.278 -17.398 -23.369  0.00  0.00    -0.325 N 
ATOM     30  C   UNL     1      34.263 -16.659 -23.969  0.00  0.00    +0.248 C 
ATOM     31  H   UNL     1      35.639 -18.195 -23.820  0.00  0.00    +0.145 HD
ATOM     32  H   UNL     1      35.635 -17.123 -22.493  0.00  0.00    +0.145 HD
ENDBRANCH   6  30
BRANCH   1  33
ATOM     33  C   UNL     1      33.791 -12.851 -25.946  0.00  0.00    +0.071 C 
ATOM     34  C   UNL     1      32.764 -12.687 -27.028  0.00  0.00    +0.021 C 
ATOM     35  C   UNL     1      34.223 -12.735 -27.379  0.00  0.00    +0.021 C 
ENDBRANCH   1  33
TORSDOF 6
ENDMDL
MODEL 7
REMARK VINA RESULT:      -7.7      5.644     11.951
REMARK  Name = 44595079
REMARK  6 active torsions:
REMARK  status: ('A' for Active; 'I' for Inactive)
REMARK    1  A    between atoms: N_1  and  C_33
REMARK    2  A    between atoms: N_3  and  C_14
REMARK    3  A    between atoms: C_6  and  C_30
REMARK    4  A    between atoms: C_11  and  N_18
REMARK    5  A    between atoms: N_17  and  S_23
REMARK    6  A    between atoms: S_23  and  C_26
REMARK                            x       y       z     vdW  Elec       q    Type
REMARK                         _______ _______ _______ _____ _____    ______ ____
ROOT
ATOM      1  N   UNL     1      34.782 -16.710 -20.661  0.00  0.00    -0.309 N 
ATOM      2  N   UNL     1      34.396 -15.789 -22.811  0.00  0.00    -0.322 NA
ATOM      3  N   UNL     1      34.019 -14.901 -24.947  0.00  0.00    -0.247 N 
ATOM      4  N   UNL     1      34.678 -17.143 -24.784  0.00  0.00    -0.169 NA
ATOM      5  C   UNL     1      34.747 -16.860 -22.070  0.00  0.00    +0.199 C 
ATOM      6  C   UNL     1      35.073 -18.089 -22.606  0.00  0.00    +0.118 C 
ATOM      7  C   UNL     1      34.382 -15.997 -24.141  0.00  0.00    +0.150 C 
ATOM      8  C   UNL     1      35.021 -18.173 -23.982  0.00  0.00    +0.120 C 
ATOM      9  H   UNL     1      35.039 -17.490 -20.118  0.00  0.00    +0.149 HD
ATOM     10  H   UNL     1      34.022 -15.099 -25.910  0.00  0.00    +0.165 HD
ENDROOT
BRANCH   3  14
ATOM     11  C   UNL     1      32.927 -10.947 -24.039  0.00  0.00    +0.048 C 
ATOM     12  C   UNL     1      33.796 -11.206 -25.100  0.00  0.00    +0.016 C 
ATOM     13  C   UNL     1      32.420 -12.003 -23.281  0.00  0.00    +0.016 C 
ATOM     14  C   UNL     1      33.650 -13.574 -24.643  0.00  0.00    +0.058 C 
ATOM     15  C   UNL     1      34.157 -12.518 -25.402  0.00  0.00    +0.017 C 
ATOM     16  C   UNL     1      32.782 -13.315 -23.583  0.00  0.00    +0.017 C 
BRANCH  11  18
ATOM     17  N   UNL     1      31.847  -7.014 -22.911  0.00  0.00    -0.156 NA
ATOM     18  N   UNL     1      32.563  -9.631 -23.736  0.00  0.00    -0.305 N 
ATOM     19  C   UNL     1      30.785  -8.026 -23.173  0.00  0.00    +0.117 C 
ATOM     20  C   UNL     1      33.012  -7.214 -23.819  0.00  0.00    +0.117 C 
ATOM     21  C   UNL     1      31.347  -9.425 -22.936  0.00  0.00    +0.110 C 
ATOM     22  C   UNL     1      33.602  -8.604 -23.595  0.00  0.00    +0.110 C 
BRANCH  17  23
ATOM     23  S   UNL     1      31.300  -5.397 -22.764  0.00  0.00    +0.044 S 
ATOM     24  O   UNL     1      32.399  -4.575 -22.309  0.00  0.00    -0.157 OA
ATOM     25  O   UNL     1      30.020  -5.398 -22.092  0.00  0.00    -0.157 OA
BRANCH  23  26
ATOM     26  C   UNL     1      31.019  -5.037 -24.479  0.00  0.00    +0.169 C 
ATOM     27  C   UNL     1      31.066  -3.550 -24.748  0.00  0.00    +0.029 C 
ENDBRANCH  23  26
ENDBRANCH  17  23
ENDBRANCH  11  18
ENDBRANCH   3  14
BRANCH   6  30
ATOM     28  O   UNL     1      36.580 -19.327 -21.286  0.00  0.00    -0.270 OA
ATOM     29  N   UNL     1      34.512 -20.252 -21.635  0.00  0.00    -0.325 N 
ATOM     30  C   UNL     1      35.456 -19.244 -21.810  0.00  0.00    +0.248 C 
ATOM     31  H   UNL     1      34.735 -21.049 -21.102  0.00  0.00    +0.145 HD
ATOM     32  H   UNL     1      33.619 -20.167 -22.044  0.00  0.00    +0.145 HD
ENDBRANCH   6  30
BRANCH   1  33
ATOM     33  C   UNL     1      34.461 -15.468 -19.972  0.00  0.00    +0.071 C 
ATOM     34  C   UNL     1      33.124 -14.808 -20.138  0.00  0.00    +0.021 C 
ATOM     35  C   UNL     1      34.353 -14.169 -20.715  0.00  0.00    +0.021 C 
ENDBRANCH   1  33
TORSDOF 6
ENDMDL
