MODEL 1
REMARK VINA RESULT:      -9.1      0.000      0.000
REMARK  Name = 44251605
REMARK  2 active torsions:
REMARK  status: ('A' for Active; 'I' for Inactive)
REMARK    1  A    between atoms: C_3  and  C_12
REMARK    2  A    between atoms: C_6  and  C_21
REMARK                            x       y       z     vdW  Elec       q    Type
REMARK                         _______ _______ _______ _____ _____    ______ ____
ROOT
ATOM      1  F   UNL     1      30.514 -22.402 -17.060  0.00  0.00    -0.204 F 
ATOM      2  F   UNL     1      35.088 -22.937 -18.114  0.00  0.00    -0.204 F 
ATOM      3  C   UNL     1      31.989 -23.239 -15.399  0.00  0.00    +0.025 C 
ATOM      4  C   UNL     1      33.279 -23.612 -15.021  0.00  0.00    +0.002 C 
ATOM      5  C   UNL     1      31.750 -22.764 -16.689  0.00  0.00    +0.140 C 
ATOM      6  C   UNL     1      34.329 -23.513 -15.934  0.00  0.00    +0.030 C 
ATOM      7  C   UNL     1      32.800 -22.664 -17.601  0.00  0.00    +0.059 C 
ATOM      8  C   UNL     1      34.090 -23.039 -17.225  0.00  0.00    +0.142 C 
ENDROOT
BRANCH   3  12
ATOM      9  S   UNL     1      28.761 -24.733 -16.272  0.00  0.00    -0.081 S 
ATOM     10  N   UNL     1      29.627 -22.619 -14.797  0.00  0.00    -0.251 NA
ATOM     11  N   UNL     1      27.612 -22.414 -15.945  0.00  0.00    -0.338 N 
ATOM     12  C   UNL     1      30.835 -23.350 -14.393  0.00  0.00    +0.108 C 
ATOM     13  C   UNL     1      30.431 -24.799 -14.046  0.00  0.00    +0.039 C 
ATOM     14  C   UNL     1      31.297 -22.659 -13.089  0.00  0.00    +0.029 C 
ATOM     15  C   UNL     1      29.981 -25.594 -15.261  0.00  0.00    +0.067 C 
ATOM     16  C   UNL     1      28.726 -23.120 -15.571  0.00  0.00    +0.148 C 
ATOM     17  H   UNL     1      26.943 -22.827 -16.537  0.00  0.00    +0.144 HD
ATOM     18  H   UNL     1      27.481 -21.494 -15.620  0.00  0.00    +0.144 HD
ENDBRANCH   3  12
BRANCH   6  21
ATOM     19  N   UNL     1      37.207 -25.593 -14.789  0.00  0.00    -0.222 NA
ATOM     20  N   UNL     1      37.972 -23.335 -15.143  0.00  0.00    -0.222 NA
ATOM     21  C   UNL     1      35.666 -23.903 -15.539  0.00  0.00    +0.041 C 
ATOM     22  C   UNL     1      35.974 -25.195 -15.166  0.00  0.00    +0.102 C 
ATOM     23  C   UNL     1      36.715 -23.007 -15.509  0.00  0.00    +0.102 C 
ATOM     24  C   UNL     1      38.144 -24.626 -14.801  0.00  0.00    +0.199 C 
ENDBRANCH   6  21
TORSDOF 2
ENDMDL
MODEL 2
REMARK VINA RESULT:      -9.0     15.238     16.720
REMARK  Name = 44251605
REMARK  2 active torsions:
REMARK  status: ('A' for Active; 'I' for Inactive)
REMARK    1  A    between atoms: C_3  and  C_12
REMARK    2  A    between atoms: C_6  and  C_21
REMARK                            x       y       z     vdW  Elec       q    Type
REMARK                         _______ _______ _______ _____ _____    ______ ____
ROOT
ATOM      1  F   UNL     1      34.372  -7.214 -22.887  0.00  0.00    -0.204 F 
ATOM      2  F   UNL     1      35.980 -10.667 -25.682  0.00  0.00    -0.204 F 
ATOM      3  C   UNL     1      33.019  -9.131 -23.246  0.00  0.00    +0.025 C 
ATOM      4  C   UNL     1      32.841 -10.375 -23.851  0.00  0.00    +0.002 C 
ATOM      5  C   UNL     1      34.193  -8.410 -23.464  0.00  0.00    +0.140 C 
ATOM      6  C   UNL     1      33.838 -10.899 -24.675  0.00  0.00    +0.030 C 
ATOM      7  C   UNL     1      35.190  -8.934 -24.288  0.00  0.00    +0.059 C 
ATOM      8  C   UNL     1      35.013 -10.178 -24.894  0.00  0.00    +0.142 C 
ENDROOT
BRANCH   3  12
ATOM      9  S   UNL     1      31.210  -6.052 -24.064  0.00  0.00    -0.081 S 
ATOM     10  N   UNL     1      32.222  -7.215 -21.824  0.00  0.00    -0.251 NA
ATOM     11  N   UNL     1      32.263  -4.893 -21.977  0.00  0.00    -0.338 N 
ATOM     12  C   UNL     1      31.920  -8.557 -22.341  0.00  0.00    +0.108 C 
ATOM     13  C   UNL     1      30.517  -8.522 -22.985  0.00  0.00    +0.039 C 
ATOM     14  C   UNL     1      31.845  -9.457 -21.086  0.00  0.00    +0.029 C 
ATOM     15  C   UNL     1      30.470  -7.686 -24.254  0.00  0.00    +0.067 C 
ATOM     16  C   UNL     1      31.961  -6.134 -22.475  0.00  0.00    +0.148 C 
ATOM     17  H   UNL     1      32.051  -4.087 -22.501  0.00  0.00    +0.144 HD
ATOM     18  H   UNL     1      32.693  -4.808 -21.095  0.00  0.00    +0.144 HD
ENDBRANCH   3  12
BRANCH   6  21
ATOM     19  N   UNL     1      33.538 -13.544 -27.288  0.00  0.00    -0.222 NA
ATOM     20  N   UNL     1      33.214 -14.550 -25.122  0.00  0.00    -0.222 NA
ATOM     21  C   UNL     1      33.650 -12.190 -25.301  0.00  0.00    +0.041 C 
ATOM     22  C   UNL     1      33.711 -12.357 -26.670  0.00  0.00    +0.102 C 
ATOM     23  C   UNL     1      33.397 -13.332 -24.570  0.00  0.00    +0.102 C 
ATOM     24  C   UNL     1      33.297 -14.583 -26.465  0.00  0.00    +0.199 C 
ENDBRANCH   6  21
TORSDOF 2
ENDMDL
MODEL 3
REMARK VINA RESULT:      -8.9     14.345     15.878
REMARK  Name = 44251605
REMARK  2 active torsions:
REMARK  status: ('A' for Active; 'I' for Inactive)
REMARK    1  A    between atoms: C_3  and  C_12
REMARK    2  A    between atoms: C_6  and  C_21
REMARK                            x       y       z     vdW  Elec       q    Type
REMARK                         _______ _______ _______ _____ _____    ______ ____
ROOT
ATOM      1  F   UNL     1      34.038  -7.122 -23.292  0.00  0.00    -0.204 F 
ATOM      2  F   UNL     1      35.958 -10.732 -25.659  0.00  0.00    -0.204 F 
ATOM      3  C   UNL     1      32.822  -9.151 -23.483  0.00  0.00    +0.025 C 
ATOM      4  C   UNL     1      32.745 -10.461 -23.956  0.00  0.00    +0.002 C 
ATOM      5  C   UNL     1      33.956  -8.381 -23.744  0.00  0.00    +0.140 C 
ATOM      6  C   UNL     1      33.801 -11.000 -24.692  0.00  0.00    +0.030 C 
ATOM      7  C   UNL     1      35.011  -8.920 -24.479  0.00  0.00    +0.059 C 
ATOM      8  C   UNL     1      34.934 -10.229 -24.954  0.00  0.00    +0.142 C 
ENDROOT
BRANCH   3  12
ATOM      9  S   UNL     1      32.401  -9.785 -19.900  0.00  0.00    -0.081 S 
ATOM     10  N   UNL     1      30.782  -9.575 -22.074  0.00  0.00    -0.251 NA
ATOM     11  N   UNL     1      30.193 -11.081 -20.400  0.00  0.00    -0.338 N 
ATOM     12  C   UNL     1      31.659  -8.560 -22.674  0.00  0.00    +0.108 C 
ATOM     13  C   UNL     1      32.090  -7.576 -21.565  0.00  0.00    +0.039 C 
ATOM     14  C   UNL     1      30.755  -7.793 -23.667  0.00  0.00    +0.029 C 
ATOM     15  C   UNL     1      33.012  -8.212 -20.537  0.00  0.00    +0.067 C 
ATOM     16  C   UNL     1      31.020 -10.128 -20.935  0.00  0.00    +0.148 C 
ATOM     17  H   UNL     1      30.405 -11.484 -19.527  0.00  0.00    +0.144 HD
ATOM     18  H   UNL     1      29.387 -11.363 -20.890  0.00  0.00    +0.144 HD
ENDBRANCH   3  12
BRANCH   6  21
ATOM     19  N   UNL     1      33.517 -13.902 -27.019  0.00  0.00    -0.222 NA
ATOM     20  N   UNL     1      33.667 -14.729 -24.760  0.00  0.00    -0.222 NA
ATOM     21  C   UNL     1      33.717 -12.359 -25.182  0.00  0.00    +0.041 C 
ATOM     22  C   UNL     1      33.601 -12.648 -26.527  0.00  0.00    +0.102 C 
ATOM     23  C   UNL     1      33.746 -13.449 -24.337  0.00  0.00    +0.102 C 
ATOM     24  C   UNL     1      33.556 -14.880 -26.093  0.00  0.00    +0.199 C 
ENDBRANCH   6  21
TORSDOF 2
ENDMDL
MODEL 4
REMARK VINA RESULT:      -8.8      2.479      6.201
REMARK  Name = 44251605
REMARK  2 active torsions:
REMARK  status: ('A' for Active; 'I' for Inactive)
REMARK    1  A    between atoms: C_3  and  C_12
REMARK    2  A    between atoms: C_6  and  C_21
REMARK                            x       y       z     vdW  Elec       q    Type
REMARK                         _______ _______ _______ _____ _____    ______ ____
ROOT
ATOM      1  F   UNL     1      36.748 -22.295 -17.971  0.00  0.00    -0.204 F 
ATOM      2  F   UNL     1      32.103 -23.051 -17.546  0.00  0.00    -0.204 F 
ATOM      3  C   UNL     1      35.871 -22.924 -15.857  0.00  0.00    +0.025 C 
ATOM      4  C   UNL     1      34.772 -23.269 -15.071  0.00  0.00    +0.002 C 
ATOM      5  C   UNL     1      35.696 -22.626 -17.209  0.00  0.00    +0.140 C 
ATOM      6  C   UNL     1      33.497 -23.312 -15.636  0.00  0.00    +0.030 C 
ATOM      7  C   UNL     1      34.422 -22.670 -17.773  0.00  0.00    +0.059 C 
ATOM      8  C   UNL     1      33.322 -23.013 -16.988  0.00  0.00    +0.142 C 
ENDROOT
BRANCH   3  12
ATOM      9  S   UNL     1      36.900 -25.185 -13.165  0.00  0.00    -0.081 S 
ATOM     10  N   UNL     1      37.269 -22.566 -13.797  0.00  0.00    -0.251 NA
ATOM     11  N   UNL     1      37.107 -23.147 -11.549  0.00  0.00    -0.338 N 
ATOM     12  C   UNL     1      37.273 -22.876 -15.233  0.00  0.00    +0.108 C 
ATOM     13  C   UNL     1      38.110 -24.155 -15.450  0.00  0.00    +0.039 C 
ATOM     14  C   UNL     1      38.026 -21.697 -15.891  0.00  0.00    +0.029 C 
ATOM     15  C   UNL     1      37.454 -25.397 -14.867  0.00  0.00    +0.067 C 
ATOM     16  C   UNL     1      37.119 -23.462 -12.883  0.00  0.00    +0.148 C 
ATOM     17  H   UNL     1      36.990 -23.856 -10.876  0.00  0.00    +0.144 HD
ATOM     18  H   UNL     1      37.216 -22.211 -11.263  0.00  0.00    +0.144 HD
ENDBRANCH   3  12
BRANCH   6  21
ATOM     19  N   UNL     1      31.335 -25.117 -13.189  0.00  0.00    -0.222 NA
ATOM     20  N   UNL     1      30.101 -23.252 -14.089  0.00  0.00    -0.222 NA
ATOM     21  C   UNL     1      32.358 -23.668 -14.817  0.00  0.00    +0.041 C 
ATOM     22  C   UNL     1      32.378 -24.754 -13.964  0.00  0.00    +0.102 C 
ATOM     23  C   UNL     1      31.182 -22.947 -14.838  0.00  0.00    +0.102 C 
ATOM     24  C   UNL     1      30.245 -24.333 -13.299  0.00  0.00    +0.199 C 
ENDBRANCH   6  21
TORSDOF 2
ENDMDL
MODEL 5
REMARK VINA RESULT:      -8.5      2.875      6.641
REMARK  Name = 44251605
REMARK  2 active torsions:
REMARK  status: ('A' for Active; 'I' for Inactive)
REMARK    1  A    between atoms: C_3  and  C_12
REMARK    2  A    between atoms: C_6  and  C_21
REMARK                            x       y       z     vdW  Elec       q    Type
REMARK                         _______ _______ _______ _____ _____    ______ ____
ROOT
ATOM      1  F   UNL     1      38.648 -23.412 -15.727  0.00  0.00    -0.204 F 
ATOM      2  F   UNL     1      34.661 -21.796 -17.681  0.00  0.00    -0.204 F 
ATOM      3  C   UNL     1      36.562 -24.194 -14.906  0.00  0.00    +0.025 C 
ATOM      4  C   UNL     1      35.169 -24.178 -14.968  0.00  0.00    +0.002 C 
ATOM      5  C   UNL     1      37.309 -23.402 -15.780  0.00  0.00    +0.140 C 
ATOM      6  C   UNL     1      34.522 -23.370 -15.903  0.00  0.00    +0.030 C 
ATOM      7  C   UNL     1      36.661 -22.595 -16.715  0.00  0.00    +0.059 C 
ATOM      8  C   UNL     1      35.268 -22.577 -16.777  0.00  0.00    +0.142 C 
ENDROOT
BRANCH   3  12
ATOM      9  S   UNL     1      36.825 -23.276 -11.370  0.00  0.00    -0.081 S 
ATOM     10  N   UNL     1      38.426 -24.439 -13.235  0.00  0.00    -0.251 NA
ATOM     11  N   UNL     1      39.415 -23.078 -11.625  0.00  0.00    -0.338 N 
ATOM     12  C   UNL     1      37.272 -25.083 -13.876  0.00  0.00    +0.108 C 
ATOM     13  C   UNL     1      36.349 -25.635 -12.768  0.00  0.00    +0.039 C 
ATOM     14  C   UNL     1      37.866 -26.287 -14.643  0.00  0.00    +0.029 C 
ATOM     15  C   UNL     1      35.678 -24.538 -11.956  0.00  0.00    +0.067 C 
ATOM     16  C   UNL     1      38.324 -23.679 -12.199  0.00  0.00    +0.148 C 
ATOM     17  H   UNL     1      39.301 -22.503 -10.835  0.00  0.00    +0.144 HD
ATOM     18  H   UNL     1      40.312 -23.223 -12.004  0.00  0.00    +0.144 HD
ENDBRANCH   3  12
BRANCH   6  21
ATOM     19  N   UNL     1      30.943 -23.800 -14.939  0.00  0.00    -0.222 NA
ATOM     20  N   UNL     1      31.044 -22.877 -17.164  0.00  0.00    -0.222 NA
ATOM     21  C   UNL     1      33.076 -23.355 -15.964  0.00  0.00    +0.041 C 
ATOM     22  C   UNL     1      32.293 -23.796 -14.916  0.00  0.00    +0.102 C 
ATOM     23  C   UNL     1      32.391 -22.902 -17.072  0.00  0.00    +0.102 C 
ATOM     24  C   UNL     1      30.393 -23.333 -16.077  0.00  0.00    +0.199 C 
ENDBRANCH   6  21
TORSDOF 2
ENDMDL
MODEL 6
REMARK VINA RESULT:      -8.3      2.800      6.545
REMARK  Name = 44251605
REMARK  2 active torsions:
REMARK  status: ('A' for Active; 'I' for Inactive)
REMARK    1  A    between atoms: C_3  and  C_12
REMARK    2  A    between atoms: C_6  and  C_21
REMARK                            x       y       z     vdW  Elec       q    Type
REMARK                         _______ _______ _______ _____ _____    ______ ____
ROOT
ATOM      1  F   UNL     1      37.773 -23.138 -16.073  0.00  0.00    -0.204 F 
ATOM      2  F   UNL     1      33.227 -22.533 -17.210  0.00  0.00    -0.204 F 
ATOM      3  C   UNL     1      36.105 -24.200 -14.760  0.00  0.00    +0.025 C 
ATOM      4  C   UNL     1      34.756 -24.455 -14.515  0.00  0.00    +0.002 C 
ATOM      5  C   UNL     1      36.479 -23.386 -15.830  0.00  0.00    +0.140 C 
ATOM      6  C   UNL     1      33.780 -23.894 -15.339  0.00  0.00    +0.030 C 
ATOM      7  C   UNL     1      35.503 -22.826 -16.654  0.00  0.00    +0.059 C 
ATOM      8  C   UNL     1      34.153 -23.079 -16.409  0.00  0.00    +0.142 C 
ENDROOT
BRANCH   3  12
ATOM      9  S   UNL     1      36.366 -23.387 -11.198  0.00  0.00    -0.081 S 
ATOM     10  N   UNL     1      38.087 -23.830 -13.256  0.00  0.00    -0.251 NA
ATOM     11  N   UNL     1      38.683 -22.270 -11.634  0.00  0.00    -0.338 N 
ATOM     12  C   UNL     1      37.177 -24.818 -13.851  0.00  0.00    +0.108 C 
ATOM     13  C   UNL     1      36.617 -25.705 -12.718  0.00  0.00    +0.039 C 
ATOM     14  C   UNL     1      38.081 -25.700 -14.744  0.00  0.00    +0.029 C 
ATOM     15  C   UNL     1      35.685 -24.951 -11.783  0.00  0.00    +0.067 C 
ATOM     16  C   UNL     1      37.824 -23.197 -12.165  0.00  0.00    +0.148 C 
ATOM     17  H   UNL     1      38.451 -21.804 -10.799  0.00  0.00    +0.144 HD
ATOM     18  H   UNL     1      39.533 -22.071 -12.089  0.00  0.00    +0.144 HD
ENDBRANCH   3  12
BRANCH   6  21
ATOM     19  N   UNL     1      30.073 -23.997 -15.745  0.00  0.00    -0.222 NA
ATOM     20  N   UNL     1      30.658 -25.079 -13.673  0.00  0.00    -0.222 NA
ATOM     21  C   UNL     1      32.380 -24.159 -15.081  0.00  0.00    +0.041 C 
ATOM     22  C   UNL     1      31.386 -23.769 -15.955  0.00  0.00    +0.102 C 
ATOM     23  C   UNL     1      31.954 -24.817 -13.946  0.00  0.00    +0.102 C 
ATOM     24  C   UNL     1      29.784 -24.647 -14.601  0.00  0.00    +0.199 C 
ENDBRANCH   6  21
TORSDOF 2
ENDMDL
MODEL 7
REMARK VINA RESULT:      -8.1     14.679     16.200
REMARK  Name = 44251605
REMARK  2 active torsions:
REMARK  status: ('A' for Active; 'I' for Inactive)
REMARK    1  A    between atoms: C_3  and  C_12
REMARK    2  A    between atoms: C_6  and  C_21
REMARK                            x       y       z     vdW  Elec       q    Type
REMARK                         _______ _______ _______ _____ _____    ______ ____
ROOT
ATOM      1  F   UNL     1      31.343  -8.759 -19.380  0.00  0.00    -0.204 F 
ATOM      2  F   UNL     1      31.507 -13.038 -21.376  0.00  0.00    -0.204 F 
ATOM      3  C   UNL     1      32.355  -8.998 -21.514  0.00  0.00    +0.025 C 
ATOM      4  C   UNL     1      32.723  -9.819 -22.580  0.00  0.00    +0.002 C 
ATOM      5  C   UNL     1      31.702  -9.541 -20.408  0.00  0.00    +0.140 C 
ATOM      6  C   UNL     1      32.440 -11.184 -22.538  0.00  0.00    +0.030 C 
ATOM      7  C   UNL     1      31.418 -10.906 -20.367  0.00  0.00    +0.059 C 
ATOM      8  C   UNL     1      31.787 -11.728 -21.431  0.00  0.00    +0.142 C 
ENDROOT
BRANCH   3  12
ATOM      9  S   UNL     1      31.678  -6.944 -24.470  0.00  0.00    -0.081 S 
ATOM     10  N   UNL     1      33.642  -7.128 -22.599  0.00  0.00    -0.251 NA
ATOM     11  N   UNL     1      34.240  -6.558 -24.775  0.00  0.00    -0.338 N 
ATOM     12  C   UNL     1      32.669  -7.495 -21.562  0.00  0.00    +0.108 C 
ATOM     13  C   UNL     1      31.427  -6.591 -21.721  0.00  0.00    +0.039 C 
ATOM     14  C   UNL     1      33.356  -7.129 -20.226  0.00  0.00    +0.029 C 
ATOM     15  C   UNL     1      30.646  -6.878 -22.993  0.00  0.00    +0.067 C 
ATOM     16  C   UNL     1      33.312  -6.887 -23.821  0.00  0.00    +0.148 C 
ATOM     17  H   UNL     1      33.954  -6.380 -25.700  0.00  0.00    +0.144 HD
ATOM     18  H   UNL     1      35.193  -6.499 -24.535  0.00  0.00    +0.144 HD
ENDBRANCH   3  12
BRANCH   6  21
ATOM     19  N   UNL     1      33.779 -12.289 -25.840  0.00  0.00    -0.222 NA
ATOM     20  N   UNL     1      32.974 -14.219 -24.642  0.00  0.00    -0.222 NA
ATOM     21  C   UNL     1      32.825 -12.033 -23.645  0.00  0.00    +0.041 C 
ATOM     22  C   UNL     1      33.410 -11.528 -24.788  0.00  0.00    +0.102 C 
ATOM     23  C   UNL     1      32.630 -13.399 -23.627  0.00  0.00    +0.102 C 
ATOM     24  C   UNL     1      33.535 -13.607 -25.701  0.00  0.00    +0.199 C 
ENDBRANCH   6  21
TORSDOF 2
ENDMDL
MODEL 8
REMARK VINA RESULT:      -8.1     18.733     20.455
REMARK  Name = 44251605
REMARK  2 active torsions:
REMARK  status: ('A' for Active; 'I' for Inactive)
REMARK    1  A    between atoms: C_3  and  C_12
REMARK    2  A    between atoms: C_6  and  C_21
REMARK                            x       y       z     vdW  Elec       q    Type
REMARK                         _______ _______ _______ _____ _____    ______ ____
ROOT
ATOM      1  F   UNL     1      34.939  -8.338 -23.571  0.00  0.00    -0.204 F 
ATOM      2  F   UNL     1      35.311  -4.883 -26.772  0.00  0.00    -0.204 F 
ATOM      3  C   UNL     1      32.995  -7.120 -24.184  0.00  0.00    +0.025 C 
ATOM      4  C   UNL     1      32.405  -6.112 -24.946  0.00  0.00    +0.002 C 
ATOM      5  C   UNL     1      34.363  -7.370 -24.298  0.00  0.00    +0.140 C 
ATOM      6  C   UNL     1      33.182  -5.353 -25.821  0.00  0.00    +0.030 C 
ATOM      7  C   UNL     1      35.140  -6.612 -25.174  0.00  0.00    +0.059 C 
ATOM      8  C   UNL     1      34.550  -5.603 -25.935  0.00  0.00    +0.142 C 
ENDROOT
BRANCH   3  12
ATOM      9  S   UNL     1      31.634  -5.742 -21.075  0.00  0.00    -0.081 S 
ATOM     10  N   UNL     1      32.726  -8.098 -21.882  0.00  0.00    -0.251 NA
ATOM     11  N   UNL     1      33.133  -7.380 -19.705  0.00  0.00    -0.338 N 
ATOM     12  C   UNL     1      32.138  -7.953 -23.220  0.00  0.00    +0.108 C 
ATOM     13  C   UNL     1      30.688  -7.448 -23.060  0.00  0.00    +0.039 C 
ATOM     14  C   UNL     1      32.082  -9.391 -23.786  0.00  0.00    +0.029 C 
ATOM     15  C   UNL     1      30.613  -6.023 -22.535  0.00  0.00    +0.067 C 
ATOM     16  C   UNL     1      32.565  -7.229 -20.944  0.00  0.00    +0.148 C 
ATOM     17  H   UNL     1      32.991  -6.697 -19.011  0.00  0.00    +0.144 HD
ATOM     18  H   UNL     1      33.684  -8.172 -19.510  0.00  0.00    +0.144 HD
ENDBRANCH   3  12
BRANCH   6  21
ATOM     19  N   UNL     1      31.322  -2.249 -26.731  0.00  0.00    -0.222 NA
ATOM     20  N   UNL     1      32.027  -3.355 -28.753  0.00  0.00    -0.222 NA
ATOM     21  C   UNL     1      32.565  -4.307 -26.609  0.00  0.00    +0.041 C 
ATOM     22  C   UNL     1      31.911  -3.240 -26.028  0.00  0.00    +0.102 C 
ATOM     23  C   UNL     1      32.593  -4.312 -27.988  0.00  0.00    +0.102 C 
ATOM     24  C   UNL     1      31.418  -2.368 -28.069  0.00  0.00    +0.199 C 
ENDBRANCH   6  21
TORSDOF 2
ENDMDL
MODEL 9
REMARK VINA RESULT:      -7.8      3.519      5.905
REMARK  Name = 44251605
REMARK  2 active torsions:
REMARK  status: ('A' for Active; 'I' for Inactive)
REMARK    1  A    between atoms: C_3  and  C_12
REMARK    2  A    between atoms: C_6  and  C_21
REMARK                            x       y       z     vdW  Elec       q    Type
REMARK                         _______ _______ _______ _____ _____    ______ ____
ROOT
ATOM      1  F   UNL     1      38.133 -23.705 -14.202  0.00  0.00    -0.204 F 
ATOM      2  F   UNL     1      37.380 -20.649 -17.725  0.00  0.00    -0.204 F 
ATOM      3  C   UNL     1      36.167 -23.920 -15.514  0.00  0.00    +0.025 C 
ATOM      4  C   UNL     1      35.374 -23.464 -16.567  0.00  0.00    +0.002 C 
ATOM      5  C   UNL     1      37.365 -23.273 -15.212  0.00  0.00    +0.140 C 
ATOM      6  C   UNL     1      35.779 -22.359 -17.317  0.00  0.00    +0.030 C 
ATOM      7  C   UNL     1      37.770 -22.169 -15.962  0.00  0.00    +0.059 C 
ATOM      8  C   UNL     1      36.977 -21.711 -17.014  0.00  0.00    +0.142 C 
ENDROOT
BRANCH   3  12
ATOM      9  S   UNL     1      33.846 -23.633 -12.695  0.00  0.00    -0.081 S 
ATOM     10  N   UNL     1      36.090 -25.056 -13.271  0.00  0.00    -0.251 NA
ATOM     11  N   UNL     1      35.745 -24.382 -11.070  0.00  0.00    -0.338 N 
ATOM     12  C   UNL     1      35.719 -25.136 -14.690  0.00  0.00    +0.108 C 
ATOM     13  C   UNL     1      34.208 -25.443 -14.779  0.00  0.00    +0.039 C 
ATOM     14  C   UNL     1      36.487 -26.364 -15.232  0.00  0.00    +0.029 C 
ATOM     15  C   UNL     1      33.342 -24.290 -14.297  0.00  0.00    +0.067 C 
ATOM     16  C   UNL     1      35.372 -24.453 -12.387  0.00  0.00    +0.148 C 
ATOM     17  H   UNL     1      35.172 -23.913 -10.421  0.00  0.00    +0.144 HD
ATOM     18  H   UNL     1      36.585 -24.800 -10.774  0.00  0.00    +0.144 HD
ENDBRANCH   3  12
BRANCH   6  21
ATOM     19  N   UNL     1      34.709 -20.617 -20.438  0.00  0.00    -0.222 NA
ATOM     20  N   UNL     1      32.819 -21.796 -19.518  0.00  0.00    -0.222 NA
ATOM     21  C   UNL     1      34.953 -21.888 -18.408  0.00  0.00    +0.041 C 
ATOM     22  C   UNL     1      35.450 -21.077 -19.408  0.00  0.00    +0.102 C 
ATOM     23  C   UNL     1      33.618 -22.219 -18.516  0.00  0.00    +0.102 C 
ATOM     24  C   UNL     1      33.421 -21.010 -20.431  0.00  0.00    +0.199 C 
ENDBRANCH   6  21
TORSDOF 2
ENDMDL
