MODEL 1
REMARK VINA RESULT:      -8.6      0.000      0.000
REMARK  Name = 9458
REMARK  5 active torsions:
REMARK  status: ('A' for Active; 'I' for Inactive)
REMARK    1  A    between atoms: C_1  and  C_10
REMARK    2  A    between atoms: C_2  and  O_15
REMARK    3  A    between atoms: C_3  and  C_12
REMARK    4  A    between atoms: C_12  and  O_13
REMARK    5  A    between atoms: O_15  and  C_17
REMARK                            x       y       z     vdW  Elec       q    Type
REMARK                         _______ _______ _______ _____ _____    ______ ____
ROOT
ATOM      1  C   UNL     1      35.228 -19.579 -20.969  0.00  0.00    +0.074 C 
ATOM      2  C   UNL     1      35.348 -21.440 -19.433  0.00  0.00    +0.155 C 
ATOM      3  C   UNL     1      33.957 -21.531 -19.434  0.00  0.00    +0.110 C 
ATOM      4  C   UNL     1      35.985 -20.464 -20.201  0.00  0.00    +0.042 C 
ATOM      5  C   UNL     1      33.837 -19.669 -20.970  0.00  0.00    +0.004 C 
ATOM      6  C   UNL     1      33.200 -20.645 -20.203  0.00  0.00    +0.009 C 
ENDROOT
BRANCH   1  10
ATOM      7  F   UNL     1      35.614 -18.610 -23.122  0.00  0.00    -0.166 F 
ATOM      8  F   UNL     1      35.586 -17.259 -21.427  0.00  0.00    -0.166 F 
ATOM      9  F   UNL     1      37.268 -18.607 -21.711  0.00  0.00    -0.166 F 
ATOM     10  C   UNL     1      35.907 -18.536 -21.790  0.00  0.00    +0.419 C 
ENDBRANCH   1  10
BRANCH   3  12
ATOM     11  O   UNL     1      32.320 -22.331 -17.884  0.00  0.00    -0.245 OA
ATOM     12  C   UNL     1      33.273 -22.541 -18.638  0.00  0.00    +0.341 C 
BRANCH  12  13
ATOM     13  O   UNL     1      33.803 -23.782 -18.811  0.00  0.00    -0.477 OA
ATOM     14  H   UNL     1      34.730 -23.889 -18.885  0.00  0.00    +0.295 HD
ENDBRANCH  12  13
ENDBRANCH   3  12
BRANCH   2  15
ATOM     15  O   UNL     1      36.105 -22.296 -18.688  0.00  0.00    -0.424 OA
BRANCH  15  17
ATOM     16  O   UNL     1      37.243 -20.719 -17.385  0.00  0.00    -0.250 OA
ATOM     17  C   UNL     1      36.580 -21.742 -17.488  0.00  0.00    +0.322 C 
ATOM     18  C   UNL     1      36.156 -22.594 -16.330  0.00  0.00    +0.122 C 
ENDBRANCH  15  17
ENDBRANCH   2  15
TORSDOF 5
ENDMDL
MODEL 2
REMARK VINA RESULT:      -7.9      4.712      6.327
REMARK  Name = 9458
REMARK  5 active torsions:
REMARK  status: ('A' for Active; 'I' for Inactive)
REMARK    1  A    between atoms: C_1  and  C_10
REMARK    2  A    between atoms: C_2  and  O_15
REMARK    3  A    between atoms: C_3  and  C_12
REMARK    4  A    between atoms: C_12  and  O_13
REMARK    5  A    between atoms: O_15  and  C_17
REMARK                            x       y       z     vdW  Elec       q    Type
REMARK                         _______ _______ _______ _____ _____    ______ ____
ROOT
ATOM      1  C   UNL     1      35.268 -19.186 -21.728  0.00  0.00    +0.074 C 
ATOM      2  C   UNL     1      34.968 -16.926 -22.526  0.00  0.00    +0.155 C 
ATOM      3  C   UNL     1      34.683 -17.414 -23.801  0.00  0.00    +0.110 C 
ATOM      4  C   UNL     1      35.260 -17.812 -21.489  0.00  0.00    +0.042 C 
ATOM      5  C   UNL     1      34.983 -19.675 -23.002  0.00  0.00    +0.004 C 
ATOM      6  C   UNL     1      34.691 -18.789 -24.040  0.00  0.00    +0.009 C 
ENDROOT
BRANCH   1  10
ATOM      7  F   UNL     1      34.551 -20.303 -19.737  0.00  0.00    -0.166 F 
ATOM      8  F   UNL     1      35.890 -21.393 -21.048  0.00  0.00    -0.166 F 
ATOM      9  F   UNL     1      36.644 -19.731 -19.867  0.00  0.00    -0.166 F 
ATOM     10  C   UNL     1      35.579 -20.134 -20.619  0.00  0.00    +0.419 C 
ENDBRANCH   1  10
BRANCH   3  12
ATOM     11  O   UNL     1      34.843 -16.581 -26.039  0.00  0.00    -0.245 OA
ATOM     12  C   UNL     1      34.377 -16.506 -24.898  0.00  0.00    +0.341 C 
BRANCH  12  13
ATOM     13  O   UNL     1      33.499 -15.533 -24.535  0.00  0.00    -0.477 OA
ATOM     14  H   UNL     1      33.434 -15.272 -23.638  0.00  0.00    +0.295 HD
ENDBRANCH  12  13
ENDBRANCH   3  12
BRANCH   2  15
ATOM     15  O   UNL     1      34.966 -15.586 -22.274  0.00  0.00    -0.424 OA
BRANCH  15  17
ATOM     16  O   UNL     1      34.970 -14.960 -20.018  0.00  0.00    -0.250 OA
ATOM     17  C   UNL     1      34.373 -15.236 -21.050  0.00  0.00    +0.322 C 
ATOM     18  C   UNL     1      32.879 -15.250 -21.183  0.00  0.00    +0.122 C 
ENDBRANCH  15  17
ENDBRANCH   2  15
TORSDOF 5
ENDMDL
MODEL 3
REMARK VINA RESULT:      -7.9      5.770      7.484
REMARK  Name = 9458
REMARK  5 active torsions:
REMARK  status: ('A' for Active; 'I' for Inactive)
REMARK    1  A    between atoms: C_1  and  C_10
REMARK    2  A    between atoms: C_2  and  O_15
REMARK    3  A    between atoms: C_3  and  C_12
REMARK    4  A    between atoms: C_12  and  O_13
REMARK    5  A    between atoms: O_15  and  C_17
REMARK                            x       y       z     vdW  Elec       q    Type
REMARK                         _______ _______ _______ _____ _____    ______ ____
ROOT
ATOM      1  C   UNL     1      34.616 -17.365 -24.013  0.00  0.00    +0.074 C 
ATOM      2  C   UNL     1      34.357 -15.162 -23.056  0.00  0.00    +0.155 C 
ATOM      3  C   UNL     1      33.803 -14.707 -24.252  0.00  0.00    +0.110 C 
ATOM      4  C   UNL     1      34.764 -16.491 -22.936  0.00  0.00    +0.042 C 
ATOM      5  C   UNL     1      34.061 -16.910 -25.209  0.00  0.00    +0.004 C 
ATOM      6  C   UNL     1      33.655 -15.581 -25.329  0.00  0.00    +0.009 C 
ENDROOT
BRANCH   1  10
ATOM      7  F   UNL     1      34.398 -19.471 -22.900  0.00  0.00    -0.166 F 
ATOM      8  F   UNL     1      34.851 -19.522 -25.020  0.00  0.00    -0.166 F 
ATOM      9  F   UNL     1      36.378 -18.907 -23.600  0.00  0.00    -0.166 F 
ATOM     10  C   UNL     1      35.049 -18.786 -23.886  0.00  0.00    +0.419 C 
ENDBRANCH   1  10
BRANCH   3  12
ATOM     11  O   UNL     1      33.691 -12.571 -25.325  0.00  0.00    -0.245 OA
ATOM     12  C   UNL     1      33.374 -13.323 -24.399  0.00  0.00    +0.341 C 
BRANCH  12  13
ATOM     13  O   UNL     1      32.562 -12.922 -23.383  0.00  0.00    -0.477 OA
ATOM     14  H   UNL     1      32.835 -13.032 -22.494  0.00  0.00    +0.295 HD
ENDBRANCH  12  13
ENDBRANCH   3  12
BRANCH   2  15
ATOM     15  O   UNL     1      34.510 -14.322 -21.993  0.00  0.00    -0.424 OA
BRANCH  15  17
ATOM     16  O   UNL     1      34.985 -15.446 -19.995  0.00  0.00    -0.250 OA
ATOM     17  C   UNL     1      34.194 -14.905 -20.755  0.00  0.00    +0.322 C 
ATOM     18  C   UNL     1      32.724 -14.771 -20.488  0.00  0.00    +0.122 C 
ENDBRANCH  15  17
ENDBRANCH   2  15
TORSDOF 5
ENDMDL
MODEL 4
REMARK VINA RESULT:      -7.8      6.119      7.865
REMARK  Name = 9458
REMARK  5 active torsions:
REMARK  status: ('A' for Active; 'I' for Inactive)
REMARK    1  A    between atoms: C_1  and  C_10
REMARK    2  A    between atoms: C_2  and  O_15
REMARK    3  A    between atoms: C_3  and  C_12
REMARK    4  A    between atoms: C_12  and  O_13
REMARK    5  A    between atoms: O_15  and  C_17
REMARK                            x       y       z     vdW  Elec       q    Type
REMARK                         _______ _______ _______ _____ _____    ______ ____
ROOT
ATOM      1  C   UNL     1      34.026 -15.109 -22.171  0.00  0.00    +0.074 C 
ATOM      2  C   UNL     1      34.333 -16.025 -24.386  0.00  0.00    +0.155 C 
ATOM      3  C   UNL     1      33.503 -15.035 -24.910  0.00  0.00    +0.110 C 
ATOM      4  C   UNL     1      34.595 -16.063 -23.016  0.00  0.00    +0.042 C 
ATOM      5  C   UNL     1      33.196 -14.119 -22.696  0.00  0.00    +0.004 C 
ATOM      6  C   UNL     1      32.934 -14.082 -24.066  0.00  0.00    +0.009 C 
ENDROOT
BRANCH   1  10
ATOM      7  F   UNL     1      33.186 -15.064 -19.932  0.00  0.00    -0.166 F 
ATOM      8  F   UNL     1      34.936 -16.290 -20.301  0.00  0.00    -0.166 F 
ATOM      9  F   UNL     1      35.111 -14.123 -20.300  0.00  0.00    -0.166 F 
ATOM     10  C   UNL     1      34.307 -15.148 -20.708  0.00  0.00    +0.419 C 
ENDBRANCH   1  10
BRANCH   3  12
ATOM     11  O   UNL     1      33.682 -14.158 -27.129  0.00  0.00    -0.245 OA
ATOM     12  C   UNL     1      33.215 -14.980 -26.337  0.00  0.00    +0.341 C 
BRANCH  12  13
ATOM     13  O   UNL     1      32.351 -15.956 -26.729  0.00  0.00    -0.477 OA
ATOM     14  H   UNL     1      31.633 -15.747 -27.292  0.00  0.00    +0.295 HD
ENDBRANCH  12  13
ENDBRANCH   3  12
BRANCH   2  15
ATOM     15  O   UNL     1      34.898 -16.966 -25.195  0.00  0.00    -0.424 OA
BRANCH  15  17
ATOM     16  O   UNL     1      33.310 -18.620 -25.671  0.00  0.00    -0.250 OA
ATOM     17  C   UNL     1      34.315 -18.239 -25.085  0.00  0.00    +0.322 C 
ATOM     18  C   UNL     1      35.107 -19.083 -24.132  0.00  0.00    +0.122 C 
ENDBRANCH  15  17
ENDBRANCH   2  15
TORSDOF 5
ENDMDL
MODEL 5
REMARK VINA RESULT:      -7.8      5.988      7.799
REMARK  Name = 9458
REMARK  5 active torsions:
REMARK  status: ('A' for Active; 'I' for Inactive)
REMARK    1  A    between atoms: C_1  and  C_10
REMARK    2  A    between atoms: C_2  and  O_15
REMARK    3  A    between atoms: C_3  and  C_12
REMARK    4  A    between atoms: C_12  and  O_13
REMARK    5  A    between atoms: O_15  and  C_17
REMARK                            x       y       z     vdW  Elec       q    Type
REMARK                         _______ _______ _______ _____ _____    ______ ____
ROOT
ATOM      1  C   UNL     1      35.187 -17.449 -23.050  0.00  0.00    +0.074 C 
ATOM      2  C   UNL     1      34.200 -15.332 -23.668  0.00  0.00    +0.155 C 
ATOM      3  C   UNL     1      33.965 -15.817 -24.954  0.00  0.00    +0.110 C 
ATOM      4  C   UNL     1      34.812 -16.147 -22.716  0.00  0.00    +0.042 C 
ATOM      5  C   UNL     1      34.951 -17.934 -24.336  0.00  0.00    +0.004 C 
ATOM      6  C   UNL     1      34.340 -17.118 -25.289  0.00  0.00    +0.009 C 
ENDROOT
BRANCH   1  10
ATOM      7  F   UNL     1      37.184 -18.469 -22.218  0.00  0.00    -0.166 F 
ATOM      8  F   UNL     1      35.705 -17.865 -20.753  0.00  0.00    -0.166 F 
ATOM      9  F   UNL     1      35.331 -19.588 -22.024  0.00  0.00    -0.166 F 
ATOM     10  C   UNL     1      35.840 -18.322 -22.033  0.00  0.00    +0.419 C 
ENDBRANCH   1  10
BRANCH   3  12
ATOM     11  O   UNL     1      33.729 -14.830 -27.121  0.00  0.00    -0.245 OA
ATOM     12  C   UNL     1      33.330 -14.981 -25.964  0.00  0.00    +0.341 C 
BRANCH  12  13
ATOM     13  O   UNL     1      32.215 -14.359 -25.494  0.00  0.00    -0.477 OA
ATOM     14  H   UNL     1      32.291 -13.687 -24.846  0.00  0.00    +0.295 HD
ENDBRANCH  12  13
ENDBRANCH   3  12
BRANCH   2  15
ATOM     15  O   UNL     1      33.841 -14.063 -23.323  0.00  0.00    -0.424 OA
BRANCH  15  17
ATOM     16  O   UNL     1      32.238 -14.940 -21.858  0.00  0.00    -0.250 OA
ATOM     17  C   UNL     1      32.735 -13.997 -22.460  0.00  0.00    +0.322 C 
ATOM     18  C   UNL     1      32.234 -12.586 -22.379  0.00  0.00    +0.122 C 
ENDBRANCH  15  17
ENDBRANCH   2  15
TORSDOF 5
ENDMDL
MODEL 6
REMARK VINA RESULT:      -7.7      5.103      6.724
REMARK  Name = 9458
REMARK  5 active torsions:
REMARK  status: ('A' for Active; 'I' for Inactive)
REMARK    1  A    between atoms: C_1  and  C_10
REMARK    2  A    between atoms: C_2  and  O_15
REMARK    3  A    between atoms: C_3  and  C_12
REMARK    4  A    between atoms: C_12  and  O_13
REMARK    5  A    between atoms: O_15  and  C_17
REMARK                            x       y       z     vdW  Elec       q    Type
REMARK                         _______ _______ _______ _____ _____    ______ ____
ROOT
ATOM      1  C   UNL     1      30.957 -23.003 -15.687  0.00  0.00    +0.074 C 
ATOM      2  C   UNL     1      33.040 -23.379 -16.850  0.00  0.00    +0.155 C 
ATOM      3  C   UNL     1      33.727 -23.329 -15.637  0.00  0.00    +0.110 C 
ATOM      4  C   UNL     1      31.655 -23.216 -16.875  0.00  0.00    +0.042 C 
ATOM      5  C   UNL     1      31.643 -22.953 -14.474  0.00  0.00    +0.004 C 
ATOM      6  C   UNL     1      33.029 -23.116 -14.449  0.00  0.00    +0.009 C 
ENDROOT
BRANCH   1  10
ATOM      7  F   UNL     1      28.786 -23.979 -15.451  0.00  0.00    -0.166 F 
ATOM      8  F   UNL     1      29.016 -21.924 -14.800  0.00  0.00    -0.166 F 
ATOM      9  F   UNL     1      29.018 -22.395 -16.922  0.00  0.00    -0.166 F 
ATOM     10  C   UNL     1      29.476 -22.830 -15.712  0.00  0.00    +0.419 C 
ENDBRANCH   1  10
BRANCH   3  12
ATOM     11  O   UNL     1      35.986 -22.604 -15.324  0.00  0.00    -0.245 OA
ATOM     12  C   UNL     1      35.173 -23.494 -15.590  0.00  0.00    +0.341 C 
BRANCH  12  13
ATOM     13  O   UNL     1      35.559 -24.767 -15.876  0.00  0.00    -0.477 OA
ATOM     14  H   UNL     1      35.611 -25.051 -16.767  0.00  0.00    +0.295 HD
ENDBRANCH  12  13
ENDBRANCH   3  12
BRANCH   2  15
ATOM     15  O   UNL     1      33.706 -23.585 -18.022  0.00  0.00    -0.424 OA
BRANCH  15  17
ATOM     16  O   UNL     1      32.842 -21.943 -19.450  0.00  0.00    -0.250 OA
ATOM     17  C   UNL     1      33.778 -22.451 -18.846  0.00  0.00    +0.322 C 
ATOM     18  C   UNL     1      35.186 -21.937 -18.887  0.00  0.00    +0.122 C 
ENDBRANCH  15  17
ENDBRANCH   2  15
TORSDOF 5
ENDMDL
MODEL 7
REMARK VINA RESULT:      -7.7     10.625     12.365
REMARK  Name = 9458
REMARK  5 active torsions:
REMARK  status: ('A' for Active; 'I' for Inactive)
REMARK    1  A    between atoms: C_1  and  C_10
REMARK    2  A    between atoms: C_2  and  O_15
REMARK    3  A    between atoms: C_3  and  C_12
REMARK    4  A    between atoms: C_12  and  O_13
REMARK    5  A    between atoms: O_15  and  C_17
REMARK                            x       y       z     vdW  Elec       q    Type
REMARK                         _______ _______ _______ _____ _____    ______ ____
ROOT
ATOM      1  C   UNL     1      33.845  -9.939 -23.864  0.00  0.00    +0.074 C 
ATOM      2  C   UNL     1      32.419  -9.234 -22.046  0.00  0.00    +0.155 C 
ATOM      3  C   UNL     1      33.046  -7.989 -22.036  0.00  0.00    +0.110 C 
ATOM      4  C   UNL     1      32.818 -10.210 -22.960  0.00  0.00    +0.042 C 
ATOM      5  C   UNL     1      34.472  -8.693 -23.854  0.00  0.00    +0.004 C 
ATOM      6  C   UNL     1      34.073  -7.718 -22.940  0.00  0.00    +0.009 C 
ENDROOT
BRANCH   1  10
ATOM      7  F   UNL     1      34.428 -12.219 -24.291  0.00  0.00    -0.166 F 
ATOM      8  F   UNL     1      33.391 -11.157 -25.871  0.00  0.00    -0.166 F 
ATOM      9  F   UNL     1      35.467 -10.688 -25.432  0.00  0.00    -0.166 F 
ATOM     10  C   UNL     1      34.271 -10.979 -24.842  0.00  0.00    +0.419 C 
ENDBRANCH   1  10
BRANCH   3  12
ATOM     11  O   UNL     1      31.990  -5.949 -21.363  0.00  0.00    -0.245 OA
ATOM     12  C   UNL     1      32.646  -6.958 -21.088  0.00  0.00    +0.341 C 
BRANCH  12  13
ATOM     13  O   UNL     1      33.077  -7.221 -19.825  0.00  0.00    -0.477 OA
ATOM     14  H   UNL     1      33.283  -6.516 -19.244  0.00  0.00    +0.295 HD
ENDBRANCH  12  13
ENDBRANCH   3  12
BRANCH   2  15
ATOM     15  O   UNL     1      31.413  -9.518 -21.169  0.00  0.00    -0.424 OA
BRANCH  15  17
ATOM     16  O   UNL     1      32.421  -9.825 -19.078  0.00  0.00    -0.250 OA
ATOM     17  C   UNL     1      31.823 -10.263 -20.052  0.00  0.00    +0.322 C 
ATOM     18  C   UNL     1      31.420 -11.698 -20.219  0.00  0.00    +0.122 C 
ENDBRANCH  15  17
ENDBRANCH   2  15
TORSDOF 5
ENDMDL
MODEL 8
REMARK VINA RESULT:      -7.6      6.087      7.651
REMARK  Name = 9458
REMARK  5 active torsions:
REMARK  status: ('A' for Active; 'I' for Inactive)
REMARK    1  A    between atoms: C_1  and  C_10
REMARK    2  A    between atoms: C_2  and  O_15
REMARK    3  A    between atoms: C_3  and  C_12
REMARK    4  A    between atoms: C_12  and  O_13
REMARK    5  A    between atoms: O_15  and  C_17
REMARK                            x       y       z     vdW  Elec       q    Type
REMARK                         _______ _______ _______ _____ _____    ______ ____
ROOT
ATOM      1  C   UNL     1      33.072 -23.618 -14.501  0.00  0.00    +0.074 C 
ATOM      2  C   UNL     1      35.218 -24.454 -13.772  0.00  0.00    +0.155 C 
ATOM      3  C   UNL     1      35.808 -23.951 -14.931  0.00  0.00    +0.110 C 
ATOM      4  C   UNL     1      33.849 -24.288 -13.557  0.00  0.00    +0.042 C 
ATOM      5  C   UNL     1      33.662 -23.114 -15.660  0.00  0.00    +0.004 C 
ATOM      6  C   UNL     1      35.030 -23.281 -15.876  0.00  0.00    +0.009 C 
ENDROOT
BRANCH   1  10
ATOM      7  F   UNL     1      30.853 -24.487 -14.707  0.00  0.00    -0.166 F 
ATOM      8  F   UNL     1      31.278 -23.282 -12.956  0.00  0.00    -0.166 F 
ATOM      9  F   UNL     1      31.109 -22.338 -14.906  0.00  0.00    -0.166 F 
ATOM     10  C   UNL     1      31.610 -23.438 -14.271  0.00  0.00    +0.419 C 
ENDBRANCH   1  10
BRANCH   3  12
ATOM     11  O   UNL     1      38.056 -23.201 -15.259  0.00  0.00    -0.245 OA
ATOM     12  C   UNL     1      37.234 -24.117 -15.176  0.00  0.00    +0.341 C 
BRANCH  12  13
ATOM     13  O   UNL     1      37.588 -25.424 -15.309  0.00  0.00    -0.477 OA
ATOM     14  H   UNL     1      37.005 -26.099 -15.022  0.00  0.00    +0.295 HD
ENDBRANCH  12  13
ENDBRANCH   3  12
BRANCH   2  15
ATOM     15  O   UNL     1      35.961 -25.113 -12.838  0.00  0.00    -0.424 OA
BRANCH  15  17
ATOM     16  O   UNL     1      35.308 -24.983 -10.593  0.00  0.00    -0.250 OA
ATOM     17  C   UNL     1      35.912 -24.535 -11.558  0.00  0.00    +0.322 C 
ATOM     18  C   UNL     1      36.716 -23.270 -11.538  0.00  0.00    +0.122 C 
ENDBRANCH  15  17
ENDBRANCH   2  15
TORSDOF 5
ENDMDL
MODEL 9
REMARK VINA RESULT:      -7.6      4.954      6.803
REMARK  Name = 9458
REMARK  5 active torsions:
REMARK  status: ('A' for Active; 'I' for Inactive)
REMARK    1  A    between atoms: C_1  and  C_10
REMARK    2  A    between atoms: C_2  and  O_15
REMARK    3  A    between atoms: C_3  and  C_12
REMARK    4  A    between atoms: C_12  and  O_13
REMARK    5  A    between atoms: O_15  and  C_17
REMARK                            x       y       z     vdW  Elec       q    Type
REMARK                         _______ _______ _______ _____ _____    ______ ____
ROOT
ATOM      1  C   UNL     1      33.688 -14.519 -22.380  0.00  0.00    +0.074 C 
ATOM      2  C   UNL     1      34.918 -16.444 -23.167  0.00  0.00    +0.155 C 
ATOM      3  C   UNL     1      35.089 -16.873 -21.851  0.00  0.00    +0.110 C 
ATOM      4  C   UNL     1      34.218 -15.267 -23.432  0.00  0.00    +0.042 C 
ATOM      5  C   UNL     1      33.859 -14.948 -21.064  0.00  0.00    +0.004 C 
ATOM      6  C   UNL     1      34.559 -16.125 -20.799  0.00  0.00    +0.009 C 
ENDROOT
BRANCH   1  10
ATOM      7  F   UNL     1      33.700 -12.287 -23.239  0.00  0.00    -0.166 F 
ATOM      8  F   UNL     1      31.880 -13.434 -23.509  0.00  0.00    -0.166 F 
ATOM      9  F   UNL     1      32.415 -12.698 -21.535  0.00  0.00    -0.166 F 
ATOM     10  C   UNL     1      32.938 -13.262 -22.662  0.00  0.00    +0.419 C 
ENDBRANCH   1  10
BRANCH   3  12
ATOM     11  O   UNL     1      35.480 -18.948 -20.726  0.00  0.00    -0.245 OA
ATOM     12  C   UNL     1      35.819 -18.097 -21.553  0.00  0.00    +0.341 C 
BRANCH  12  13
ATOM     13  O   UNL     1      36.950 -18.220 -22.299  0.00  0.00    -0.477 OA
ATOM     14  H   UNL     1      37.570 -18.894 -22.102  0.00  0.00    +0.295 HD
ENDBRANCH  12  13
ENDBRANCH   3  12
BRANCH   2  15
ATOM     15  O   UNL     1      35.429 -17.161 -24.208  0.00  0.00    -0.424 OA
BRANCH  15  17
ATOM     16  O   UNL     1      33.752 -17.233 -25.841  0.00  0.00    -0.250 OA
ATOM     17  C   UNL     1      34.455 -17.785 -25.004  0.00  0.00    +0.322 C 
ATOM     18  C   UNL     1      34.391 -19.248 -24.682  0.00  0.00    +0.122 C 
ENDBRANCH  15  17
ENDBRANCH   2  15
TORSDOF 5
ENDMDL
