MODEL 1
REMARK VINA RESULT:      -7.4      0.000      0.000
REMARK  Name = 128563
REMARK  5 active torsions:
REMARK  status: ('A' for Active; 'I' for Inactive)
REMARK    1  A    between atoms: C_9  and  C_25
REMARK    2  A    between atoms: C_16  and  O_28
REMARK    3  A    between atoms: C_17  and  C_20
REMARK    4  A    between atoms: C_25  and  O_26
REMARK    5  A    between atoms: O_28  and  C_30
REMARK                            x       y       z     vdW  Elec       q    Type
REMARK                         _______ _______ _______ _____ _____    ______ ____
ROOT
ATOM      1  O   UNL     1      35.095 -20.384 -22.272  0.00  0.00    -0.448 OA
ATOM      2  O   UNL     1      34.419 -15.237 -20.579  0.00  0.00    -0.292 OA
ATOM      3  O   UNL     1      35.767 -20.341 -24.418  0.00  0.00    -0.250 OA
ATOM      4  C   UNL     1      33.872 -15.541 -24.050  0.00  0.00    +0.017 C 
ATOM      5  C   UNL     1      34.617 -17.541 -22.431  0.00  0.00    +0.021 C 
ATOM      6  C   UNL     1      33.715 -16.280 -22.673  0.00  0.00    +0.062 C 
ATOM      7  C   UNL     1      34.428 -18.488 -23.639  0.00  0.00    +0.100 C 
ATOM      8  C   UNL     1      33.822 -16.586 -25.194  0.00  0.00    +0.002 C 
ATOM      9  C   UNL     1      32.646 -14.564 -24.181  0.00  0.00    +0.103 C 
ATOM     10  C   UNL     1      34.729 -17.798 -24.974  0.00  0.00    +0.011 C 
ATOM     11  C   UNL     1      34.071 -18.341 -21.222  0.00  0.00    +0.049 C 
ATOM     12  C   UNL     1      33.660 -15.239 -21.544  0.00  0.00    +0.190 C 
ATOM     13  C   UNL     1      32.589 -13.543 -23.038  0.00  0.00    +0.062 C 
ATOM     14  C   UNL     1      35.191 -14.735 -24.160  0.00  0.00    +0.001 C 
ATOM     15  C   UNL     1      36.106 -17.211 -22.189  0.00  0.00    +0.001 C 
ATOM     16  C   UNL     1      32.539 -14.216 -21.672  0.00  0.00    +0.226 C 
ATOM     17  C   UNL     1      34.773 -19.692 -21.035  0.00  0.00    +0.194 C 
ATOM     18  C   UNL     1      35.187 -19.791 -23.486  0.00  0.00    +0.317 C 
ENDROOT
BRANCH  17  20
ATOM     19  O   UNL     1      32.263 -21.494 -19.047  0.00  0.00    -0.448 OA
ATOM     20  C   UNL     1      33.985 -20.589 -20.157  0.00  0.00    +0.058 C 
ATOM     21  C   UNL     1      34.468 -21.697 -19.430  0.00  0.00    +0.043 C 
ATOM     22  C   UNL     1      32.642 -20.503 -19.896  0.00  0.00    +0.179 C 
ATOM     23  C   UNL     1      33.379 -22.216 -18.768  0.00  0.00    +0.180 C 
ENDBRANCH  17  20
BRANCH   9  25
ATOM     24  O   UNL     1      32.253 -14.348 -26.551  0.00  0.00    -0.250 OA
ATOM     25  C   UNL     1      32.607 -13.838 -25.496  0.00  0.00    +0.317 C 
BRANCH  25  26
ATOM     26  O   UNL     1      33.023 -12.551 -25.319  0.00  0.00    -0.444 OA
ATOM     27  C   UNL     1      33.844 -12.021 -26.364  0.00  0.00    +0.256 C 
ENDBRANCH  25  26
ENDBRANCH   9  25
BRANCH  16  28
ATOM     28  O   UNL     1      32.634 -13.246 -20.647  0.00  0.00    -0.445 OA
BRANCH  28  30
ATOM     29  O   UNL     1      31.032 -11.935 -21.673  0.00  0.00    -0.250 OA
ATOM     30  C   UNL     1      31.738 -12.211 -20.712  0.00  0.00    +0.318 C 
ATOM     31  C   UNL     1      31.737 -11.446 -19.423  0.00  0.00    +0.121 C 
ENDBRANCH  28  30
ENDBRANCH  16  28
TORSDOF 5
ENDMDL
MODEL 2
REMARK VINA RESULT:      -6.7      4.172     10.531
REMARK  Name = 128563
REMARK  5 active torsions:
REMARK  status: ('A' for Active; 'I' for Inactive)
REMARK    1  A    between atoms: C_9  and  C_25
REMARK    2  A    between atoms: C_16  and  O_28
REMARK    3  A    between atoms: C_17  and  C_20
REMARK    4  A    between atoms: C_25  and  O_26
REMARK    5  A    between atoms: O_28  and  C_30
REMARK                            x       y       z     vdW  Elec       q    Type
REMARK                         _______ _______ _______ _____ _____    ______ ____
ROOT
ATOM      1  O   UNL     1      35.536 -21.019 -19.944  0.00  0.00    -0.448 OA
ATOM      2  O   UNL     1      31.490 -23.726 -17.469  0.00  0.00    -0.292 OA
ATOM      3  O   UNL     1      37.494 -21.821 -19.182  0.00  0.00    -0.250 OA
ATOM      4  C   UNL     1      34.374 -23.575 -15.445  0.00  0.00    +0.017 C 
ATOM      5  C   UNL     1      34.184 -22.580 -17.925  0.00  0.00    +0.021 C 
ATOM      6  C   UNL     1      33.533 -22.788 -16.513  0.00  0.00    +0.062 C 
ATOM      7  C   UNL     1      35.587 -21.968 -17.706  0.00  0.00    +0.100 C 
ATOM      8  C   UNL     1      35.811 -22.991 -15.402  0.00  0.00    +0.002 C 
ATOM      9  C   UNL     1      33.674 -23.340 -14.056  0.00  0.00    +0.103 C 
ATOM     10  C   UNL     1      36.458 -22.823 -16.778  0.00  0.00    +0.011 C 
ATOM     11  C   UNL     1      33.401 -21.489 -18.697  0.00  0.00    +0.049 C 
ATOM     12  C   UNL     1      32.082 -23.294 -16.484  0.00  0.00    +0.190 C 
ATOM     13  C   UNL     1      32.221 -23.829 -14.045  0.00  0.00    +0.062 C 
ATOM     14  C   UNL     1      34.456 -25.095 -15.734  0.00  0.00    +0.001 C 
ATOM     15  C   UNL     1      34.246 -23.863 -18.783  0.00  0.00    +0.001 C 
ATOM     16  C   UNL     1      31.387 -23.166 -15.135  0.00  0.00    +0.226 C 
ATOM     17  C   UNL     1      34.085 -21.081 -20.010  0.00  0.00    +0.194 C 
ATOM     18  C   UNL     1      36.292 -21.639 -19.007  0.00  0.00    +0.317 C 
ENDROOT
BRANCH  17  20
ATOM     19  O   UNL     1      32.136 -18.138 -21.028  0.00  0.00    -0.448 OA
ATOM     20  C   UNL     1      33.556 -19.791 -20.511  0.00  0.00    +0.058 C 
ATOM     21  C   UNL     1      34.297 -18.751 -21.108  0.00  0.00    +0.043 C 
ATOM     22  C   UNL     1      32.250 -19.377 -20.482  0.00  0.00    +0.179 C 
ATOM     23  C   UNL     1      33.386 -17.764 -21.407  0.00  0.00    +0.180 C 
ENDBRANCH  17  20
BRANCH   9  25
ATOM     24  O   UNL     1      34.034 -24.961 -12.306  0.00  0.00    -0.250 OA
ATOM     25  C   UNL     1      34.416 -23.966 -12.908  0.00  0.00    +0.317 C 
BRANCH  25  26
ATOM     26  O   UNL     1      35.553 -23.256 -12.658  0.00  0.00    -0.444 OA
ATOM     27  C   UNL     1      36.364 -23.751 -11.588  0.00  0.00    +0.256 C 
ENDBRANCH  25  26
ENDBRANCH   9  25
BRANCH  16  28
ATOM     28  O   UNL     1      30.099 -23.748 -15.184  0.00  0.00    -0.445 OA
BRANCH  28  30
ATOM     29  O   UNL     1      28.876 -21.798 -14.998  0.00  0.00    -0.250 OA
ATOM     30  C   UNL     1      29.066 -22.902 -15.491  0.00  0.00    +0.318 C 
ATOM     31  C   UNL     1      28.183 -23.520 -16.533  0.00  0.00    +0.121 C 
ENDBRANCH  28  30
ENDBRANCH  16  28
TORSDOF 5
ENDMDL
MODEL 3
REMARK VINA RESULT:      -5.6      5.057     10.989
REMARK  Name = 128563
REMARK  5 active torsions:
REMARK  status: ('A' for Active; 'I' for Inactive)
REMARK    1  A    between atoms: C_9  and  C_25
REMARK    2  A    between atoms: C_16  and  O_28
REMARK    3  A    between atoms: C_17  and  C_20
REMARK    4  A    between atoms: C_25  and  O_26
REMARK    5  A    between atoms: O_28  and  C_30
REMARK                            x       y       z     vdW  Elec       q    Type
REMARK                         _______ _______ _______ _____ _____    ______ ____
ROOT
ATOM      1  O   UNL     1      35.545 -22.286 -18.188  0.00  0.00    -0.448 OA
ATOM      2  O   UNL     1      30.329 -23.861 -17.824  0.00  0.00    -0.292 OA
ATOM      3  O   UNL     1      36.673 -23.166 -16.452  0.00  0.00    -0.250 OA
ATOM      4  C   UNL     1      31.851 -23.679 -14.647  0.00  0.00    +0.017 C 
ATOM      5  C   UNL     1      33.090 -23.202 -16.974  0.00  0.00    +0.021 C 
ATOM      6  C   UNL     1      31.816 -23.025 -16.075  0.00  0.00    +0.062 C 
ATOM      7  C   UNL     1      34.314 -22.750 -16.144  0.00  0.00    +0.100 C 
ATOM      8  C   UNL     1      33.181 -23.295 -13.947  0.00  0.00    +0.002 C 
ATOM      9  C   UNL     1      30.644 -23.071 -13.843  0.00  0.00    +0.103 C 
ATOM     10  C   UNL     1      34.426 -23.502 -14.812  0.00  0.00    +0.011 C 
ATOM     11  C   UNL     1      33.031 -22.200 -18.154  0.00  0.00    +0.049 C 
ATOM     12  C   UNL     1      30.457 -23.317 -16.731  0.00  0.00    +0.190 C 
ATOM     13  C   UNL     1      29.294 -23.350 -14.517  0.00  0.00    +0.062 C 
ATOM     14  C   UNL     1      31.727 -25.223 -14.682  0.00  0.00    +0.001 C 
ATOM     15  C   UNL     1      33.272 -24.631 -17.531  0.00  0.00    +0.001 C 
ATOM     16  C   UNL     1      29.250 -22.822 -15.946  0.00  0.00    +0.226 C 
ATOM     17  C   UNL     1      34.328 -22.167 -18.974  0.00  0.00    +0.194 C 
ATOM     18  C   UNL     1      35.607 -22.794 -16.933  0.00  0.00    +0.317 C 
ENDROOT
BRANCH  17  20
ATOM     19  O   UNL     1      35.221 -19.241 -21.007  0.00  0.00    -0.448 OA
ATOM     20  C   UNL     1      34.399 -20.950 -19.816  0.00  0.00    +0.058 C 
ATOM     21  C   UNL     1      33.312 -20.208 -20.320  0.00  0.00    +0.043 C 
ATOM     22  C   UNL     1      35.538 -20.329 -20.257  0.00  0.00    +0.179 C 
ATOM     23  C   UNL     1      33.864 -19.174 -21.041  0.00  0.00    +0.180 C 
ENDBRANCH  17  20
BRANCH   9  25
ATOM     24  O   UNL     1      30.218 -24.654 -12.073  0.00  0.00    -0.250 OA
ATOM     25  C   UNL     1      30.590 -23.540 -12.416  0.00  0.00    +0.317 C 
BRANCH  25  26
ATOM     26  O   UNL     1      31.013 -22.539 -11.591  0.00  0.00    -0.444 OA
ATOM     27  C   UNL     1      30.492 -22.578 -10.260  0.00  0.00    +0.256 C 
ENDBRANCH  25  26
ENDBRANCH   9  25
BRANCH  16  28
ATOM     28  O   UNL     1      28.050 -23.226 -16.576  0.00  0.00    -0.445 OA
BRANCH  28  30
ATOM     29  O   UNL     1      26.339 -22.201 -15.410  0.00  0.00    -0.250 OA
ATOM     30  C   UNL     1      26.981 -22.379 -16.437  0.00  0.00    +0.318 C 
ATOM     31  C   UNL     1      26.699 -21.685 -17.735  0.00  0.00    +0.121 C 
ENDBRANCH  28  30
ENDBRANCH  16  28
TORSDOF 5
ENDMDL
MODEL 4
REMARK VINA RESULT:      -5.4      6.652     12.210
REMARK  Name = 128563
REMARK  5 active torsions:
REMARK  status: ('A' for Active; 'I' for Inactive)
REMARK    1  A    between atoms: C_9  and  C_25
REMARK    2  A    between atoms: C_16  and  O_28
REMARK    3  A    between atoms: C_17  and  C_20
REMARK    4  A    between atoms: C_25  and  O_26
REMARK    5  A    between atoms: O_28  and  C_30
REMARK                            x       y       z     vdW  Elec       q    Type
REMARK                         _______ _______ _______ _____ _____    ______ ____
ROOT
ATOM      1  O   UNL     1      31.654  -3.728 -24.932  0.00  0.00    -0.448 OA
ATOM      2  O   UNL     1      34.806  -8.166 -24.501  0.00  0.00    -0.292 OA
ATOM      3  O   UNL     1      30.567  -3.439 -22.983  0.00  0.00    -0.250 OA
ATOM      4  C   UNL     1      31.964  -8.390 -22.425  0.00  0.00    +0.017 C 
ATOM      5  C   UNL     1      32.581  -6.285 -23.963  0.00  0.00    +0.021 C 
ATOM      6  C   UNL     1      32.488  -7.843 -23.801  0.00  0.00    +0.062 C 
ATOM      7  C   UNL     1      31.207  -5.693 -23.573  0.00  0.00    +0.100 C 
ATOM      8  C   UNL     1      30.666  -7.633 -22.041  0.00  0.00    +0.002 C 
ATOM      9  C   UNL     1      31.636  -9.913 -22.640  0.00  0.00    +0.103 C 
ATOM     10  C   UNL     1      30.769  -6.112 -22.165  0.00  0.00    +0.011 C 
ATOM     11  C   UNL     1      32.744  -5.932 -25.463  0.00  0.00    +0.049 C 
ATOM     12  C   UNL     1      33.715  -8.661 -24.235  0.00  0.00    +0.190 C 
ATOM     13  C   UNL     1      32.862 -10.716 -23.093  0.00  0.00    +0.062 C 
ATOM     14  C   UNL     1      32.995  -8.238 -21.278  0.00  0.00    +0.001 C 
ATOM     15  C   UNL     1      33.732  -5.638 -23.162  0.00  0.00    +0.001 C 
ATOM     16  C   UNL     1      33.468 -10.157 -24.374  0.00  0.00    +0.226 C 
ATOM     17  C   UNL     1      32.646  -4.425 -25.735  0.00  0.00    +0.194 C 
ATOM     18  C   UNL     1      31.138  -4.192 -23.768  0.00  0.00    +0.317 C 
ENDROOT
BRANCH  17  20
ATOM     19  O   UNL     1      31.595  -3.236 -29.048  0.00  0.00    -0.448 OA
ATOM     20  C   UNL     1      32.400  -4.154 -27.171  0.00  0.00    +0.058 C 
ATOM     21  C   UNL     1      32.975  -4.829 -28.267  0.00  0.00    +0.043 C 
ATOM     22  C   UNL     1      31.570  -3.195 -27.690  0.00  0.00    +0.179 C 
ATOM     23  C   UNL     1      32.452  -4.232 -29.391  0.00  0.00    +0.180 C 
ENDBRANCH  17  20
BRANCH   9  25
ATOM     24  O   UNL     1      30.017 -11.239 -21.439  0.00  0.00    -0.250 OA
ATOM     25  C   UNL     1      31.039 -10.566 -21.424  0.00  0.00    +0.317 C 
BRANCH  25  26
ATOM     26  O   UNL     1      31.808 -10.287 -20.333  0.00  0.00    -0.444 OA
ATOM     27  C   UNL     1      31.330 -10.817 -19.093  0.00  0.00    +0.256 C 
ENDBRANCH  25  26
ENDBRANCH   9  25
BRANCH  16  28
ATOM     28  O   UNL     1      34.674 -10.832 -24.676  0.00  0.00    -0.445 OA
BRANCH  28  30
ATOM     29  O   UNL     1      35.701 -10.740 -26.743  0.00  0.00    -0.250 OA
ATOM     30  C   UNL     1      34.852 -11.192 -25.986  0.00  0.00    +0.318 C 
ATOM     31  C   UNL     1      33.848 -12.235 -26.376  0.00  0.00    +0.121 C 
ENDBRANCH  28  30
ENDBRANCH  16  28
TORSDOF 5
ENDMDL
