MODEL 1
REMARK VINA RESULT:      -8.7      0.000      0.000
REMARK  Name = 23727982
REMARK  4 active torsions:
REMARK  status: ('A' for Active; 'I' for Inactive)
REMARK    1  A    between atoms: C_4  and  C_14
REMARK    2  A    between atoms: C_6  and  O_20
REMARK    3  A    between atoms: O_20  and  C_21
REMARK    4  A    between atoms: C_21  and  C_22
REMARK                            x       y       z     vdW  Elec       q    Type
REMARK                         _______ _______ _______ _____ _____    ______ ____
ROOT
ATOM      1  N   UNL     1      33.155 -15.620 -26.326  0.00  0.00    -0.297 N 
ATOM      2  N   UNL     1      34.413 -17.426 -25.349  0.00  0.00    -0.229 NA
ATOM      3  C   UNL     1      33.986 -15.259 -24.285  0.00  0.00    +0.069 C 
ATOM      4  C   UNL     1      33.279 -14.101 -24.705  0.00  0.00    +0.051 C 
ATOM      5  C   UNL     1      33.889 -16.186 -25.318  0.00  0.00    +0.135 C 
ATOM      6  C   UNL     1      34.705 -15.639 -23.141  0.00  0.00    +0.143 C 
ATOM      7  C   UNL     1      32.778 -14.351 -25.965  0.00  0.00    +0.066 C 
ATOM      8  C   UNL     1      35.268 -16.913 -23.119  0.00  0.00    +0.058 C 
ATOM      9  C   UNL     1      35.093 -17.739 -24.222  0.00  0.00    +0.103 C 
ATOM     10  H   UNL     1      32.931 -16.055 -27.180  0.00  0.00    +0.154 HD
ENDROOT
BRANCH   4  14
ATOM     11  N   UNL     1      32.130 -12.864 -23.058  0.00  0.00    -0.338 NA
ATOM     12  N   UNL     1      32.580 -10.525 -22.691  0.00  0.00    -0.170 NA
ATOM     13  N   UNL     1      30.970 -11.657 -21.413  0.00  0.00    -0.293 N 
ATOM     14  C   UNL     1      33.064 -12.852 -24.031  0.00  0.00    +0.147 C 
ATOM     15  C   UNL     1      33.787 -11.732 -24.387  0.00  0.00    +0.055 C 
ATOM     16  C   UNL     1      33.500 -10.585 -23.675  0.00  0.00    +0.114 C 
ATOM     17  C   UNL     1      31.940 -11.683 -22.438  0.00  0.00    +0.141 C 
ATOM     18  H   UNL     1      30.472 -12.476 -21.186  0.00  0.00    +0.155 HD
ATOM     19  H   UNL     1      30.790 -10.822 -20.926  0.00  0.00    +0.155 HD
ENDBRANCH   4  14
BRANCH   6  20
ATOM     20  O   UNL     1      34.861 -14.805 -22.068  0.00  0.00    -0.475 OA
BRANCH  20  21
ATOM     21  C   UNL     1      34.525 -15.334 -20.789  0.00  0.00    +0.205 C 
BRANCH  21  22
ATOM     22  C   UNL     1      33.127 -14.865 -20.415  0.00  0.00    +0.047 C 
ATOM     23  C   UNL     1      32.094 -15.961 -20.603  0.00  0.00    +0.004 C 
ENDBRANCH  21  22
ENDBRANCH  20  21
ENDBRANCH   6  20
TORSDOF 4
ENDMDL
MODEL 2
REMARK VINA RESULT:      -8.4      3.081      5.881
REMARK  Name = 23727982
REMARK  4 active torsions:
REMARK  status: ('A' for Active; 'I' for Inactive)
REMARK    1  A    between atoms: C_4  and  C_14
REMARK    2  A    between atoms: C_6  and  O_20
REMARK    3  A    between atoms: O_20  and  C_21
REMARK    4  A    between atoms: C_21  and  C_22
REMARK                            x       y       z     vdW  Elec       q    Type
REMARK                         _______ _______ _______ _____ _____    ______ ____
ROOT
ATOM      1  N   UNL     1      34.384 -18.432 -25.401  0.00  0.00    -0.297 N 
ATOM      2  N   UNL     1      34.127 -16.043 -25.568  0.00  0.00    -0.229 NA
ATOM      3  C   UNL     1      34.572 -17.279 -23.498  0.00  0.00    +0.069 C 
ATOM      4  C   UNL     1      34.749 -18.660 -23.217  0.00  0.00    +0.051 C 
ATOM      5  C   UNL     1      34.346 -17.171 -24.866  0.00  0.00    +0.135 C 
ATOM      6  C   UNL     1      34.575 -16.092 -22.747  0.00  0.00    +0.143 C 
ATOM      7  C   UNL     1      34.629 -19.346 -24.407  0.00  0.00    +0.066 C 
ATOM      8  C   UNL     1      34.354 -14.894 -23.424  0.00  0.00    +0.058 C 
ATOM      9  C   UNL     1      34.142 -14.931 -24.796  0.00  0.00    +0.103 C 
ATOM     10  H   UNL     1      34.256 -18.650 -26.352  0.00  0.00    +0.154 HD
ENDROOT
BRANCH   4  14
ATOM     11  N   UNL     1      33.945 -19.929 -21.399  0.00  0.00    -0.338 NA
ATOM     12  N   UNL     1      35.394 -20.624 -19.604  0.00  0.00    -0.170 NA
ATOM     13  N   UNL     1      33.118 -21.189 -19.602  0.00  0.00    -0.293 N 
ATOM     14  C   UNL     1      35.008 -19.328 -21.973  0.00  0.00    +0.147 C 
ATOM     15  C   UNL     1      36.276 -19.331 -21.432  0.00  0.00    +0.055 C 
ATOM     16  C   UNL     1      36.412 -20.001 -20.233  0.00  0.00    +0.114 C 
ATOM     17  C   UNL     1      34.206 -20.549 -20.232  0.00  0.00    +0.141 C 
ATOM     18  H   UNL     1      32.224 -21.166 -20.017  0.00  0.00    +0.155 HD
ATOM     19  H   UNL     1      33.250 -21.659 -18.747  0.00  0.00    +0.155 HD
ENDBRANCH   4  14
BRANCH   6  20
ATOM     20  O   UNL     1      34.787 -16.085 -21.397  0.00  0.00    -0.475 OA
BRANCH  20  21
ATOM     21  C   UNL     1      34.462 -14.885 -20.702  0.00  0.00    +0.205 C 
BRANCH  21  22
ATOM     22  C   UNL     1      32.979 -14.897 -20.366  0.00  0.00    +0.047 C 
ATOM     23  C   UNL     1      32.326 -13.555 -20.643  0.00  0.00    +0.004 C 
ENDBRANCH  21  22
ENDBRANCH  20  21
ENDBRANCH   6  20
TORSDOF 4
ENDMDL
MODEL 3
REMARK VINA RESULT:      -8.2      3.147      5.834
REMARK  Name = 23727982
REMARK  4 active torsions:
REMARK  status: ('A' for Active; 'I' for Inactive)
REMARK    1  A    between atoms: C_4  and  C_14
REMARK    2  A    between atoms: C_6  and  O_20
REMARK    3  A    between atoms: O_20  and  C_21
REMARK    4  A    between atoms: C_21  and  C_22
REMARK                            x       y       z     vdW  Elec       q    Type
REMARK                         _______ _______ _______ _____ _____    ______ ____
ROOT
ATOM      1  N   UNL     1      31.465 -12.442 -21.495  0.00  0.00    -0.297 N 
ATOM      2  N   UNL     1      32.645 -13.484 -23.318  0.00  0.00    -0.229 NA
ATOM      3  C   UNL     1      32.553 -11.073 -22.884  0.00  0.00    +0.069 C 
ATOM      4  C   UNL     1      31.919 -10.297 -21.877  0.00  0.00    +0.051 C 
ATOM      5  C   UNL     1      32.250 -12.405 -22.617  0.00  0.00    +0.135 C 
ATOM      6  C   UNL     1      33.357 -10.804 -24.003  0.00  0.00    +0.143 C 
ATOM      7  C   UNL     1      31.257 -11.167 -21.036  0.00  0.00    +0.066 C 
ATOM      8  C   UNL     1      33.794 -11.886 -24.765  0.00  0.00    +0.058 C 
ATOM      9  C   UNL     1      33.417 -13.167 -24.384  0.00  0.00    +0.103 C 
ATOM     10  H   UNL     1      31.104 -13.259 -21.081  0.00  0.00    +0.154 HD
ENDROOT
BRANCH   4  14
ATOM     11  N   UNL     1      31.360  -8.149 -22.675  0.00  0.00    -0.338 NA
ATOM     12  N   UNL     1      31.821  -6.164 -21.389  0.00  0.00    -0.170 NA
ATOM     13  N   UNL     1      30.794  -6.025 -23.494  0.00  0.00    -0.293 N 
ATOM     14  C   UNL     1      31.901  -8.877 -21.675  0.00  0.00    +0.147 C 
ATOM     15  C   UNL     1      32.416  -8.328 -20.519  0.00  0.00    +0.055 C 
ATOM     16  C   UNL     1      32.348  -6.952 -20.429  0.00  0.00    +0.114 C 
ATOM     17  C   UNL     1      31.353  -6.818 -22.469  0.00  0.00    +0.141 C 
ATOM     18  H   UNL     1      30.437  -6.451 -24.307  0.00  0.00    +0.155 HD
ATOM     19  H   UNL     1      30.762  -5.046 -23.397  0.00  0.00    +0.155 HD
ENDBRANCH   4  14
BRANCH   6  20
ATOM     20  O   UNL     1      33.715  -9.533 -24.355  0.00  0.00    -0.475 OA
BRANCH  20  21
ATOM     21  C   UNL     1      34.989  -9.078 -23.911  0.00  0.00    +0.205 C 
BRANCH  21  22
ATOM     22  C   UNL     1      34.875  -7.617 -23.500  0.00  0.00    +0.047 C 
ATOM     23  C   UNL     1      34.331  -6.755 -24.625  0.00  0.00    +0.004 C 
ENDBRANCH  21  22
ENDBRANCH  20  21
ENDBRANCH   6  20
TORSDOF 4
ENDMDL
MODEL 4
REMARK VINA RESULT:      -8.0      3.117      5.788
REMARK  Name = 23727982
REMARK  4 active torsions:
REMARK  status: ('A' for Active; 'I' for Inactive)
REMARK    1  A    between atoms: C_4  and  C_14
REMARK    2  A    between atoms: C_6  and  O_20
REMARK    3  A    between atoms: O_20  and  C_21
REMARK    4  A    between atoms: C_21  and  C_22
REMARK                            x       y       z     vdW  Elec       q    Type
REMARK                         _______ _______ _______ _____ _____    ______ ____
ROOT
ATOM      1  N   UNL     1      31.233 -12.152 -21.471  0.00  0.00    -0.297 N 
ATOM      2  N   UNL     1      32.715 -13.483 -22.826  0.00  0.00    -0.229 NA
ATOM      3  C   UNL     1      32.460 -11.049 -22.977  0.00  0.00    +0.069 C 
ATOM      4  C   UNL     1      31.652 -10.118 -22.273  0.00  0.00    +0.051 C 
ATOM      5  C   UNL     1      32.176 -12.307 -22.454  0.00  0.00    +0.135 C 
ATOM      6  C   UNL     1      33.411 -10.978 -24.008  0.00  0.00    +0.143 C 
ATOM      7  C   UNL     1      30.907 -10.825 -21.352  0.00  0.00    +0.066 C 
ATOM      8  C   UNL     1      34.002 -12.167 -24.432  0.00  0.00    +0.058 C 
ATOM      9  C   UNL     1      33.624 -13.355 -23.820  0.00  0.00    +0.103 C 
ATOM     10  H   UNL     1      30.849 -12.880 -20.933  0.00  0.00    +0.154 HD
ENDROOT
BRANCH   4  14
ATOM     11  N   UNL     1      31.991  -7.969 -21.361  0.00  0.00    -0.338 NA
ATOM     12  N   UNL     1      31.387  -5.974 -22.570  0.00  0.00    -0.170 NA
ATOM     13  N   UNL     1      32.339  -5.844 -20.430  0.00  0.00    -0.293 N 
ATOM     14  C   UNL     1      31.546  -8.694 -22.409  0.00  0.00    +0.147 C 
ATOM     15  C   UNL     1      31.015  -8.138 -23.555  0.00  0.00    +0.055 C 
ATOM     16  C   UNL     1      30.960  -6.759 -23.581  0.00  0.00    +0.114 C 
ATOM     17  C   UNL     1      31.883  -6.634 -21.506  0.00  0.00    +0.141 C 
ATOM     18  H   UNL     1      32.712  -6.275 -19.626  0.00  0.00    +0.155 HD
ATOM     19  H   UNL     1      32.285  -4.863 -20.481  0.00  0.00    +0.155 HD
ENDBRANCH   4  14
BRANCH   6  20
ATOM     20  O   UNL     1      33.765  -9.793 -24.591  0.00  0.00    -0.475 OA
BRANCH  20  21
ATOM     21  C   UNL     1      35.031  -9.252 -24.229  0.00  0.00    +0.205 C 
BRANCH  21  22
ATOM     22  C   UNL     1      34.816  -7.897 -23.570  0.00  0.00    +0.047 C 
ATOM     23  C   UNL     1      34.487  -6.820 -24.588  0.00  0.00    +0.004 C 
ENDBRANCH  21  22
ENDBRANCH  20  21
ENDBRANCH   6  20
TORSDOF 4
ENDMDL
MODEL 5
REMARK VINA RESULT:      -8.0      1.490      5.031
REMARK  Name = 23727982
REMARK  4 active torsions:
REMARK  status: ('A' for Active; 'I' for Inactive)
REMARK    1  A    between atoms: C_4  and  C_14
REMARK    2  A    between atoms: C_6  and  O_20
REMARK    3  A    between atoms: O_20  and  C_21
REMARK    4  A    between atoms: C_21  and  C_22
REMARK                            x       y       z     vdW  Elec       q    Type
REMARK                         _______ _______ _______ _____ _____    ______ ____
ROOT
ATOM      1  N   UNL     1      33.422 -10.278 -24.133  0.00  0.00    -0.297 N 
ATOM      2  N   UNL     1      32.266  -9.811 -22.072  0.00  0.00    -0.229 NA
ATOM      3  C   UNL     1      32.675 -12.047 -22.992  0.00  0.00    +0.069 C 
ATOM      4  C   UNL     1      33.325 -12.501 -24.170  0.00  0.00    +0.051 C 
ATOM      5  C   UNL     1      32.752 -10.658 -22.999  0.00  0.00    +0.135 C 
ATOM      6  C   UNL     1      32.021 -12.653 -21.907  0.00  0.00    +0.143 C 
ATOM      7  C   UNL     1      33.775 -11.390 -24.853  0.00  0.00    +0.066 C 
ATOM      8  C   UNL     1      31.499 -11.823 -20.916  0.00  0.00    +0.058 C 
ATOM      9  C   UNL     1      31.649 -10.448 -21.049  0.00  0.00    +0.103 C 
ATOM     10  H   UNL     1      33.619  -9.349 -24.392  0.00  0.00    +0.154 HD
ENDROOT
BRANCH   4  14
ATOM     11  N   UNL     1      34.392 -14.593 -23.946  0.00  0.00    -0.338 NA
ATOM     12  N   UNL     1      33.996 -16.386 -25.507  0.00  0.00    -0.170 NA
ATOM     13  N   UNL     1      35.467 -16.663 -23.700  0.00  0.00    -0.293 N 
ATOM     14  C   UNL     1      33.533 -13.834 -24.659  0.00  0.00    +0.147 C 
ATOM     15  C   UNL     1      32.877 -14.274 -25.790  0.00  0.00    +0.055 C 
ATOM     16  C   UNL     1      33.150 -15.572 -26.172  0.00  0.00    +0.114 C 
ATOM     17  C   UNL     1      34.575 -15.841 -24.420  0.00  0.00    +0.141 C 
ATOM     18  H   UNL     1      35.919 -16.316 -22.897  0.00  0.00    +0.155 HD
ATOM     19  H   UNL     1      35.639 -17.585 -24.000  0.00  0.00    +0.155 HD
ENDBRANCH   4  14
BRANCH   6  20
ATOM     20  O   UNL     1      31.890 -14.009 -21.801  0.00  0.00    -0.475 OA
BRANCH  20  21
ATOM     21  C   UNL     1      32.287 -14.598 -20.567  0.00  0.00    +0.205 C 
BRANCH  21  22
ATOM     22  C   UNL     1      33.249 -15.741 -20.855  0.00  0.00    +0.047 C 
ATOM     23  C   UNL     1      34.661 -15.419 -20.401  0.00  0.00    +0.004 C 
ENDBRANCH  21  22
ENDBRANCH  20  21
ENDBRANCH   6  20
TORSDOF 4
ENDMDL
MODEL 6
REMARK VINA RESULT:      -8.0     10.380     13.185
REMARK  Name = 23727982
REMARK  4 active torsions:
REMARK  status: ('A' for Active; 'I' for Inactive)
REMARK    1  A    between atoms: C_4  and  C_14
REMARK    2  A    between atoms: C_6  and  O_20
REMARK    3  A    between atoms: O_20  and  C_21
REMARK    4  A    between atoms: C_21  and  C_22
REMARK                            x       y       z     vdW  Elec       q    Type
REMARK                         _______ _______ _______ _____ _____    ______ ____
ROOT
ATOM      1  N   UNL     1      32.671 -23.626 -13.455  0.00  0.00    -0.297 N 
ATOM      2  N   UNL     1      31.147 -23.063 -15.233  0.00  0.00    -0.229 NA
ATOM      3  C   UNL     1      33.557 -23.432 -15.496  0.00  0.00    +0.069 C 
ATOM      4  C   UNL     1      34.588 -23.765 -14.577  0.00  0.00    +0.051 C 
ATOM      5  C   UNL     1      32.376 -23.353 -14.765  0.00  0.00    +0.135 C 
ATOM      6  C   UNL     1      33.481 -23.185 -16.876  0.00  0.00    +0.143 C 
ATOM      7  C   UNL     1      34.013 -23.878 -13.329  0.00  0.00    +0.066 C 
ATOM      8  C   UNL     1      32.232 -22.881 -17.415  0.00  0.00    +0.058 C 
ATOM      9  C   UNL     1      31.132 -22.835 -16.567  0.00  0.00    +0.103 C 
ATOM     10  H   UNL     1      32.020 -23.639 -12.716  0.00  0.00    +0.154 HD
ENDROOT
BRANCH   4  14
ATOM     11  N   UNL     1      36.470 -25.180 -14.444  0.00  0.00    -0.338 NA
ATOM     12  N   UNL     1      38.651 -24.453 -15.166  0.00  0.00    -0.170 NA
ATOM     13  N   UNL     1      38.325 -26.609 -14.299  0.00  0.00    -0.293 N 
ATOM     14  C   UNL     1      35.992 -23.968 -14.794  0.00  0.00    +0.147 C 
ATOM     15  C   UNL     1      36.770 -22.962 -15.328  0.00  0.00    +0.055 C 
ATOM     16  C   UNL     1      38.106 -23.263 -15.493  0.00  0.00    +0.114 C 
ATOM     17  C   UNL     1      37.789 -25.352 -14.653  0.00  0.00    +0.141 C 
ATOM     18  H   UNL     1      37.740 -27.304 -13.919  0.00  0.00    +0.155 HD
ATOM     19  H   UNL     1      39.283 -26.791 -14.430  0.00  0.00    +0.155 HD
ENDBRANCH   4  14
BRANCH   6  20
ATOM     20  O   UNL     1      34.580 -23.237 -17.687  0.00  0.00    -0.475 OA
BRANCH  20  21
ATOM     21  C   UNL     1      34.647 -22.281 -18.740  0.00  0.00    +0.205 C 
BRANCH  21  22
ATOM     22  C   UNL     1      36.049 -21.692 -18.780  0.00  0.00    +0.047 C 
ATOM     23  C   UNL     1      36.267 -20.835 -20.014  0.00  0.00    +0.004 C 
ENDBRANCH  21  22
ENDBRANCH  20  21
ENDBRANCH   6  20
TORSDOF 4
ENDMDL
MODEL 7
REMARK VINA RESULT:      -8.0      2.498      5.861
REMARK  Name = 23727982
REMARK  4 active torsions:
REMARK  status: ('A' for Active; 'I' for Inactive)
REMARK    1  A    between atoms: C_4  and  C_14
REMARK    2  A    between atoms: C_6  and  O_20
REMARK    3  A    between atoms: O_20  and  C_21
REMARK    4  A    between atoms: C_21  and  C_22
REMARK                            x       y       z     vdW  Elec       q    Type
REMARK                         _______ _______ _______ _____ _____    ______ ____
ROOT
ATOM      1  N   UNL     1      34.909  -9.286 -24.658  0.00  0.00    -0.297 N 
ATOM      2  N   UNL     1      33.490  -7.813 -23.385  0.00  0.00    -0.229 NA
ATOM      3  C   UNL     1      33.247 -10.249 -23.519  0.00  0.00    +0.069 C 
ATOM      4  C   UNL     1      33.977 -11.256 -24.206  0.00  0.00    +0.051 C 
ATOM      5  C   UNL     1      33.853  -9.034 -23.821  0.00  0.00    +0.135 C 
ATOM      6  C   UNL     1      32.132 -10.222 -22.666  0.00  0.00    +0.143 C 
ATOM      7  C   UNL     1      34.994 -10.633 -24.899  0.00  0.00    +0.066 C 
ATOM      8  C   UNL     1      31.713  -8.983 -22.184  0.00  0.00    +0.058 C 
ATOM      9  C   UNL     1      32.412  -7.846 -22.567  0.00  0.00    +0.103 C 
ATOM     10  H   UNL     1      35.514  -8.604 -25.030  0.00  0.00    +0.154 HD
ENDROOT
BRANCH   4  14
ATOM     11  N   UNL     1      33.267 -13.166 -25.394  0.00  0.00    -0.338 NA
ATOM     12  N   UNL     1      33.375 -15.369 -24.423  0.00  0.00    -0.170 NA
ATOM     13  N   UNL     1      32.553 -15.049 -26.597  0.00  0.00    -0.293 N 
ATOM     14  C   UNL     1      33.783 -12.677 -24.247  0.00  0.00    +0.147 C 
ATOM     15  C   UNL     1      34.116 -13.459 -23.161  0.00  0.00    +0.055 C 
ATOM     16  C   UNL     1      33.888 -14.813 -23.307  0.00  0.00    +0.114 C 
ATOM     17  C   UNL     1      33.091 -14.501 -25.413  0.00  0.00    +0.141 C 
ATOM     18  H   UNL     1      32.326 -14.460 -27.353  0.00  0.00    +0.155 HD
ATOM     19  H   UNL     1      32.403 -16.019 -26.668  0.00  0.00    +0.155 HD
ENDBRANCH   4  14
BRANCH   6  20
ATOM     20  O   UNL     1      31.463 -11.357 -22.305  0.00  0.00    -0.475 OA
BRANCH  20  21
ATOM     21  C   UNL     1      30.704 -11.300 -21.101  0.00  0.00    +0.205 C 
BRANCH  21  22
ATOM     22  C   UNL     1      31.605 -11.675 -19.933  0.00  0.00    +0.047 C 
ATOM     23  C   UNL     1      31.540 -10.648 -18.818  0.00  0.00    +0.004 C 
ENDBRANCH  21  22
ENDBRANCH  20  21
ENDBRANCH   6  20
TORSDOF 4
ENDMDL
MODEL 8
REMARK VINA RESULT:      -8.0      2.644      5.897
REMARK  Name = 23727982
REMARK  4 active torsions:
REMARK  status: ('A' for Active; 'I' for Inactive)
REMARK    1  A    between atoms: C_4  and  C_14
REMARK    2  A    between atoms: C_6  and  O_20
REMARK    3  A    between atoms: O_20  and  C_21
REMARK    4  A    between atoms: C_21  and  C_22
REMARK                            x       y       z     vdW  Elec       q    Type
REMARK                         _______ _______ _______ _____ _____    ______ ____
ROOT
ATOM      1  N   UNL     1      35.004  -8.851 -24.352  0.00  0.00    -0.297 N 
ATOM      2  N   UNL     1      33.612  -7.549 -22.879  0.00  0.00    -0.229 NA
ATOM      3  C   UNL     1      33.279  -9.918 -23.416  0.00  0.00    +0.069 C 
ATOM      4  C   UNL     1      33.987 -10.828 -24.247  0.00  0.00    +0.051 C 
ATOM      5  C   UNL     1      33.938  -8.696 -23.504  0.00  0.00    +0.135 C 
ATOM      6  C   UNL     1      32.146  -9.984 -22.590  0.00  0.00    +0.143 C 
ATOM      7  C   UNL     1      35.043 -10.143 -24.809  0.00  0.00    +0.066 C 
ATOM      8  C   UNL     1      31.763  -8.825 -21.918  0.00  0.00    +0.058 C 
ATOM      9  C   UNL     1      32.514  -7.670 -22.097  0.00  0.00    +0.103 C 
ATOM     10  H   UNL     1      35.643  -8.144 -24.596  0.00  0.00    +0.154 HD
ENDROOT
BRANCH   4  14
ATOM     11  N   UNL     1      33.914 -13.060 -23.486  0.00  0.00    -0.338 NA
ATOM     12  N   UNL     1      33.297 -14.873 -24.948  0.00  0.00    -0.170 NA
ATOM     13  N   UNL     1      33.850 -15.270 -22.702  0.00  0.00    -0.293 N 
ATOM     14  C   UNL     1      33.741 -12.214 -24.524  0.00  0.00    +0.147 C 
ATOM     15  C   UNL     1      33.353 -12.617 -25.784  0.00  0.00    +0.055 C 
ATOM     16  C   UNL     1      33.143 -13.973 -25.940  0.00  0.00    +0.114 C 
ATOM     17  C   UNL     1      33.679 -14.356 -23.764  0.00  0.00    +0.141 C 
ATOM     18  H   UNL     1      34.128 -14.947 -21.814  0.00  0.00    +0.155 HD
ATOM     19  H   UNL     1      33.692 -16.230 -22.848  0.00  0.00    +0.155 HD
ENDBRANCH   4  14
BRANCH   6  20
ATOM     20  O   UNL     1      31.426 -11.135 -22.432  0.00  0.00    -0.475 OA
BRANCH  20  21
ATOM     21  C   UNL     1      30.671 -11.261 -21.231  0.00  0.00    +0.205 C 
BRANCH  21  22
ATOM     22  C   UNL     1      31.600 -11.707 -20.111  0.00  0.00    +0.047 C 
ATOM     23  C   UNL     1      31.469 -10.825 -18.883  0.00  0.00    +0.004 C 
ENDBRANCH  21  22
ENDBRANCH  20  21
ENDBRANCH   6  20
TORSDOF 4
ENDMDL
MODEL 9
REMARK VINA RESULT:      -7.9      2.714      5.967
REMARK  Name = 23727982
REMARK  4 active torsions:
REMARK  status: ('A' for Active; 'I' for Inactive)
REMARK    1  A    between atoms: C_4  and  C_14
REMARK    2  A    between atoms: C_6  and  O_20
REMARK    3  A    between atoms: O_20  and  C_21
REMARK    4  A    between atoms: C_21  and  C_22
REMARK                            x       y       z     vdW  Elec       q    Type
REMARK                         _______ _______ _______ _____ _____    ______ ____
ROOT
ATOM      1  N   UNL     1      32.378 -14.261 -20.843  0.00  0.00    -0.297 N 
ATOM      2  N   UNL     1      32.738 -12.972 -22.845  0.00  0.00    -0.229 NA
ATOM      3  C   UNL     1      33.636 -15.214 -22.424  0.00  0.00    +0.069 C 
ATOM      4  C   UNL     1      33.527 -16.105 -21.323  0.00  0.00    +0.051 C 
ATOM      5  C   UNL     1      32.908 -14.075 -22.093  0.00  0.00    +0.135 C 
ATOM      6  C   UNL     1      34.270 -15.235 -23.676  0.00  0.00    +0.143 C 
ATOM      7  C   UNL     1      32.748 -15.492 -20.365  0.00  0.00    +0.066 C 
ATOM      8  C   UNL     1      34.125 -14.118 -24.498  0.00  0.00    +0.058 C 
ATOM      9  C   UNL     1      33.369 -13.047 -24.041  0.00  0.00    +0.103 C 
ATOM     10  H   UNL     1      31.818 -13.611 -20.361  0.00  0.00    +0.154 HD
ENDROOT
BRANCH   4  14
ATOM     11  N   UNL     1      33.188 -18.409 -20.948  0.00  0.00    -0.338 NA
ATOM     12  N   UNL     1      35.036 -19.945 -20.763  0.00  0.00    -0.170 NA
ATOM     13  N   UNL     1      32.821 -20.696 -20.574  0.00  0.00    -0.293 N 
ATOM     14  C   UNL     1      34.082 -17.415 -21.134  0.00  0.00    +0.147 C 
ATOM     15  C   UNL     1      35.448 -17.605 -21.146  0.00  0.00    +0.055 C 
ATOM     16  C   UNL     1      35.873 -18.904 -20.954  0.00  0.00    +0.114 C 
ATOM     17  C   UNL     1      33.726 -19.631 -20.771  0.00  0.00    +0.141 C 
ATOM     18  H   UNL     1      31.851 -20.524 -20.570  0.00  0.00    +0.155 HD
ATOM     19  H   UNL     1      33.158 -21.610 -20.440  0.00  0.00    +0.155 HD
ENDBRANCH   4  14
BRANCH   6  20
ATOM     20  O   UNL     1      35.008 -16.304 -24.101  0.00  0.00    -0.475 OA
BRANCH  20  21
ATOM     21  C   UNL     1      34.675 -16.850 -25.374  0.00  0.00    +0.205 C 
BRANCH  21  22
ATOM     22  C   UNL     1      33.969 -18.182 -25.168  0.00  0.00    +0.047 C 
ATOM     23  C   UNL     1      34.836 -19.168 -24.405  0.00  0.00    +0.004 C 
ENDBRANCH  21  22
ENDBRANCH  20  21
ENDBRANCH   6  20
TORSDOF 4
ENDMDL
