MODEL 1
REMARK VINA RESULT:      -7.0      0.000      0.000
REMARK  Name = 130313
REMARK  2 active torsions:
REMARK  status: ('A' for Active; 'I' for Inactive)
REMARK    1  A    between atoms: C_8  and  C_14
REMARK    2  A    between atoms: C_14  and  O_15
REMARK                            x       y       z     vdW  Elec       q    Type
REMARK                         _______ _______ _______ _____ _____    ______ ____
ROOT
ATOM      1  S   UNL     1      37.337 -24.042 -14.002  0.00  0.00    +0.005 S 
ATOM      2  O   UNL     1      38.012 -23.168 -14.941  0.00  0.00    -0.171 OA
ATOM      3  O   UNL     1      37.994 -25.235 -13.504  0.00  0.00    -0.171 OA
ATOM      4  O   UNL     1      35.267 -24.937 -10.310  0.00  0.00    -0.275 OA
ATOM      5  N   UNL     1      35.464 -23.847 -12.393  0.00  0.00    -0.252 N 
ATOM      6  C   UNL     1      35.683 -24.514 -14.684  0.00  0.00    +0.139 C 
ATOM      7  C   UNL     1      36.694 -23.081 -12.641  0.00  0.00    +0.215 C 
ATOM      8  C   UNL     1      34.862 -24.708 -13.394  0.00  0.00    +0.196 C 
ATOM      9  C   UNL     1      37.092 -23.386 -11.192  0.00  0.00    +0.130 C 
ATOM     10  C   UNL     1      35.780 -24.191 -11.113  0.00  0.00    +0.231 C 
ATOM     11  C   UNL     1      35.798 -25.809 -15.488  0.00  0.00    +0.026 C 
ATOM     12  C   UNL     1      35.168 -23.383 -15.586  0.00  0.00    +0.026 C 
ENDROOT
BRANCH   8  14
ATOM     13  O   UNL     1      32.571 -24.982 -14.103  0.00  0.00    -0.248 OA
ATOM     14  C   UNL     1      33.413 -24.352 -13.480  0.00  0.00    +0.334 C 
BRANCH  14  15
ATOM     15  O   UNL     1      33.153 -23.226 -12.771  0.00  0.00    -0.479 OA
ATOM     16  H   UNL     1      32.277 -22.900 -12.716  0.00  0.00    +0.295 HD
ENDBRANCH  14  15
ENDBRANCH   8  14
TORSDOF 2
ENDMDL
MODEL 2
REMARK VINA RESULT:      -6.5      1.801      2.106
REMARK  Name = 130313
REMARK  2 active torsions:
REMARK  status: ('A' for Active; 'I' for Inactive)
REMARK    1  A    between atoms: C_8  and  C_14
REMARK    2  A    between atoms: C_14  and  O_15
REMARK                            x       y       z     vdW  Elec       q    Type
REMARK                         _______ _______ _______ _____ _____    ______ ____
ROOT
ATOM      1  S   UNL     1      38.335 -24.864 -12.964  0.00  0.00    +0.005 S 
ATOM      2  O   UNL     1      39.741 -24.578 -13.172  0.00  0.00    -0.171 OA
ATOM      3  O   UNL     1      37.927 -26.007 -12.169  0.00  0.00    -0.171 OA
ATOM      4  O   UNL     1      34.308 -23.904 -11.705  0.00  0.00    -0.275 OA
ATOM      5  N   UNL     1      36.207 -23.600 -13.071  0.00  0.00    -0.252 N 
ATOM      6  C   UNL     1      37.475 -24.941 -14.600  0.00  0.00    +0.139 C 
ATOM      7  C   UNL     1      37.498 -23.392 -12.398  0.00  0.00    +0.215 C 
ATOM      8  C   UNL     1      36.057 -24.466 -14.226  0.00  0.00    +0.196 C 
ATOM      9  C   UNL     1      36.724 -23.374 -11.074  0.00  0.00    +0.130 C 
ATOM     10  C   UNL     1      35.469 -23.639 -11.927  0.00  0.00    +0.231 C 
ATOM     11  C   UNL     1      37.476 -26.376 -15.128  0.00  0.00    +0.026 C 
ATOM     12  C   UNL     1      38.198 -24.018 -15.593  0.00  0.00    +0.026 C 
ENDROOT
BRANCH   8  14
ATOM     13  O   UNL     1      34.879 -24.163 -16.310  0.00  0.00    -0.248 OA
ATOM     14  C   UNL     1      35.327 -23.692 -15.275  0.00  0.00    +0.334 C 
BRANCH  14  15
ATOM     15  O   UNL     1      35.226 -22.386 -14.925  0.00  0.00    -0.479 OA
ATOM     16  H   UNL     1      34.402 -21.945 -14.994  0.00  0.00    +0.295 HD
ENDBRANCH  14  15
ENDBRANCH   8  14
TORSDOF 2
ENDMDL
MODEL 3
REMARK VINA RESULT:      -6.5      2.384      4.179
REMARK  Name = 130313
REMARK  2 active torsions:
REMARK  status: ('A' for Active; 'I' for Inactive)
REMARK    1  A    between atoms: C_8  and  C_14
REMARK    2  A    between atoms: C_14  and  O_15
REMARK                            x       y       z     vdW  Elec       q    Type
REMARK                         _______ _______ _______ _____ _____    ______ ____
ROOT
ATOM      1  S   UNL     1      37.167 -23.395 -12.825  0.00  0.00    +0.005 S 
ATOM      2  O   UNL     1      38.272 -22.687 -12.209  0.00  0.00    -0.171 OA
ATOM      3  O   UNL     1      35.823 -23.266 -12.292  0.00  0.00    -0.171 OA
ATOM      4  O   UNL     1      34.600 -24.491 -16.131  0.00  0.00    -0.275 OA
ATOM      5  N   UNL     1      36.687 -24.408 -15.034  0.00  0.00    -0.252 N 
ATOM      6  C   UNL     1      37.585 -25.193 -12.955  0.00  0.00    +0.139 C 
ATOM      7  C   UNL     1      37.162 -23.091 -14.585  0.00  0.00    +0.215 C 
ATOM      8  C   UNL     1      36.798 -25.601 -14.216  0.00  0.00    +0.196 C 
ATOM      9  C   UNL     1      35.939 -22.489 -15.286  0.00  0.00    +0.130 C 
ATOM     10  C   UNL     1      35.558 -23.940 -15.637  0.00  0.00    +0.231 C 
ATOM     11  C   UNL     1      37.098 -25.936 -11.711  0.00  0.00    +0.026 C 
ATOM     12  C   UNL     1      39.107 -25.347 -13.094  0.00  0.00    +0.026 C 
ENDROOT
BRANCH   8  14
ATOM     13  O   UNL     1      38.474 -27.233 -14.810  0.00  0.00    -0.248 OA
ATOM     14  C   UNL     1      37.419 -26.667 -15.059  0.00  0.00    +0.334 C 
BRANCH  14  15
ATOM     15  O   UNL     1      36.653 -26.925 -16.146  0.00  0.00    -0.479 OA
ATOM     16  H   UNL     1      36.844 -26.508 -16.964  0.00  0.00    +0.295 HD
ENDBRANCH  14  15
ENDBRANCH   8  14
TORSDOF 2
ENDMDL
MODEL 4
REMARK VINA RESULT:      -6.3      1.174      3.496
REMARK  Name = 130313
REMARK  2 active torsions:
REMARK  status: ('A' for Active; 'I' for Inactive)
REMARK    1  A    between atoms: C_8  and  C_14
REMARK    2  A    between atoms: C_14  and  O_15
REMARK                            x       y       z     vdW  Elec       q    Type
REMARK                         _______ _______ _______ _____ _____    ______ ____
ROOT
ATOM      1  S   UNL     1      37.089 -23.863 -14.408  0.00  0.00    +0.005 S 
ATOM      2  O   UNL     1      38.209 -24.551 -15.020  0.00  0.00    -0.171 OA
ATOM      3  O   UNL     1      36.652 -22.575 -14.914  0.00  0.00    -0.171 OA
ATOM      4  O   UNL     1      32.993 -23.523 -13.057  0.00  0.00    -0.275 OA
ATOM      5  N   UNL     1      35.146 -24.486 -13.004  0.00  0.00    -0.252 N 
ATOM      6  C   UNL     1      37.377 -23.719 -12.586  0.00  0.00    +0.139 C 
ATOM      7  C   UNL     1      35.698 -24.976 -14.275  0.00  0.00    +0.215 C 
ATOM      8  C   UNL     1      35.935 -23.737 -12.044  0.00  0.00    +0.196 C 
ATOM      9  C   UNL     1      34.345 -24.639 -14.912  0.00  0.00    +0.130 C 
ATOM     10  C   UNL     1      33.937 -24.123 -13.519  0.00  0.00    +0.231 C 
ATOM     11  C   UNL     1      38.091 -22.404 -12.270  0.00  0.00    +0.026 C 
ATOM     12  C   UNL     1      38.234 -24.904 -12.116  0.00  0.00    +0.026 C 
ENDROOT
BRANCH   8  14
ATOM     13  O   UNL     1      35.091 -25.392 -10.503  0.00  0.00    -0.248 OA
ATOM     14  C   UNL     1      35.745 -24.380 -10.708  0.00  0.00    +0.334 C 
BRANCH  14  15
ATOM     15  O   UNL     1      36.398 -23.686  -9.745  0.00  0.00    -0.479 OA
ATOM     16  H   UNL     1      37.282 -23.407  -9.886  0.00  0.00    +0.295 HD
ENDBRANCH  14  15
ENDBRANCH   8  14
TORSDOF 2
ENDMDL
MODEL 5
REMARK VINA RESULT:      -6.3      2.606      4.905
REMARK  Name = 130313
REMARK  2 active torsions:
REMARK  status: ('A' for Active; 'I' for Inactive)
REMARK    1  A    between atoms: C_8  and  C_14
REMARK    2  A    between atoms: C_14  and  O_15
REMARK                            x       y       z     vdW  Elec       q    Type
REMARK                         _______ _______ _______ _____ _____    ______ ____
ROOT
ATOM      1  S   UNL     1      36.016 -24.853 -13.631  0.00  0.00    +0.005 S 
ATOM      2  O   UNL     1      35.571 -25.039 -12.265  0.00  0.00    -0.171 OA
ATOM      3  O   UNL     1      35.092 -25.024 -14.736  0.00  0.00    -0.171 OA
ATOM      4  O   UNL     1      37.804 -22.615 -16.875  0.00  0.00    -0.275 OA
ATOM      5  N   UNL     1      37.878 -23.682 -14.772  0.00  0.00    -0.252 N 
ATOM      6  C   UNL     1      37.512 -25.898 -13.939  0.00  0.00    +0.139 C 
ATOM      7  C   UNL     1      36.866 -23.289 -13.780  0.00  0.00    +0.215 C 
ATOM      8  C   UNL     1      38.259 -25.063 -14.996  0.00  0.00    +0.196 C 
ATOM      9  C   UNL     1      36.403 -22.221 -14.778  0.00  0.00    +0.130 C 
ATOM     10  C   UNL     1      37.485 -22.784 -15.720  0.00  0.00    +0.231 C 
ATOM     11  C   UNL     1      37.093 -27.265 -14.480  0.00  0.00    +0.026 C 
ATOM     12  C   UNL     1      38.284 -26.072 -12.622  0.00  0.00    +0.026 C 
ENDROOT
BRANCH   8  14
ATOM     13  O   UNL     1      40.450 -24.616 -14.087  0.00  0.00    -0.248 OA
ATOM     14  C   UNL     1      39.751 -25.130 -14.949  0.00  0.00    +0.334 C 
BRANCH  14  15
ATOM     15  O   UNL     1      40.233 -25.841 -15.997  0.00  0.00    -0.479 OA
ATOM     16  H   UNL     1      39.642 -26.217 -16.620  0.00  0.00    +0.295 HD
ENDBRANCH  14  15
ENDBRANCH   8  14
TORSDOF 2
ENDMDL
MODEL 6
REMARK VINA RESULT:      -6.2      2.136      4.369
REMARK  Name = 130313
REMARK  2 active torsions:
REMARK  status: ('A' for Active; 'I' for Inactive)
REMARK    1  A    between atoms: C_8  and  C_14
REMARK    2  A    between atoms: C_14  and  O_15
REMARK                            x       y       z     vdW  Elec       q    Type
REMARK                         _______ _______ _______ _____ _____    ______ ____
ROOT
ATOM      1  S   UNL     1      35.188 -24.840 -14.581  0.00  0.00    +0.005 S 
ATOM      2  O   UNL     1      33.826 -25.091 -14.154  0.00  0.00    -0.171 OA
ATOM      3  O   UNL     1      35.779 -25.621 -15.652  0.00  0.00    -0.171 OA
ATOM      4  O   UNL     1      38.417 -22.363 -16.049  0.00  0.00    -0.275 OA
ATOM      5  N   UNL     1      36.800 -22.964 -14.441  0.00  0.00    -0.252 N 
ATOM      6  C   UNL     1      36.312 -24.898 -13.112  0.00  0.00    +0.139 C 
ATOM      7  C   UNL     1      35.409 -23.096 -14.898  0.00  0.00    +0.215 C 
ATOM      8  C   UNL     1      37.419 -23.911 -13.532  0.00  0.00    +0.196 C 
ATOM      9  C   UNL     1      35.884 -22.589 -16.265  0.00  0.00    +0.130 C 
ATOM     10  C   UNL     1      37.293 -22.552 -15.642  0.00  0.00    +0.231 C 
ATOM     11  C   UNL     1      36.852 -26.315 -12.920  0.00  0.00    +0.026 C 
ATOM     12  C   UNL     1      35.531 -24.463 -11.863  0.00  0.00    +0.026 C 
ENDROOT
BRANCH   8  14
ATOM     13  O   UNL     1      37.746 -21.984 -12.116  0.00  0.00    -0.248 OA
ATOM     14  C   UNL     1      38.051 -23.127 -12.429  0.00  0.00    +0.334 C 
BRANCH  14  15
ATOM     15  O   UNL     1      39.016 -23.853 -11.815  0.00  0.00    -0.479 OA
ATOM     16  H   UNL     1      38.975 -24.790 -11.826  0.00  0.00    +0.295 HD
ENDBRANCH  14  15
ENDBRANCH   8  14
TORSDOF 2
ENDMDL
MODEL 7
REMARK VINA RESULT:      -6.1      2.154      3.450
REMARK  Name = 130313
REMARK  2 active torsions:
REMARK  status: ('A' for Active; 'I' for Inactive)
REMARK    1  A    between atoms: C_8  and  C_14
REMARK    2  A    between atoms: C_14  and  O_15
REMARK                            x       y       z     vdW  Elec       q    Type
REMARK                         _______ _______ _______ _____ _____    ______ ____
ROOT
ATOM      1  S   UNL     1      38.322 -24.483 -13.903  0.00  0.00    +0.005 S 
ATOM      2  O   UNL     1      38.797 -23.997 -12.623  0.00  0.00    -0.171 OA
ATOM      3  O   UNL     1      39.229 -24.593 -15.030  0.00  0.00    -0.171 OA
ATOM      4  O   UNL     1      36.428 -27.364 -16.517  0.00  0.00    -0.275 OA
ATOM      5  N   UNL     1      36.416 -25.840 -14.716  0.00  0.00    -0.252 N 
ATOM      6  C   UNL     1      36.843 -23.500 -14.423  0.00  0.00    +0.139 C 
ATOM      7  C   UNL     1      37.437 -26.018 -13.674  0.00  0.00    +0.215 C 
ATOM      8  C   UNL     1      36.058 -24.538 -15.248  0.00  0.00    +0.196 C 
ATOM      9  C   UNL     1      37.860 -27.297 -14.405  0.00  0.00    +0.130 C 
ATOM     10  C   UNL     1      36.772 -26.941 -15.436  0.00  0.00    +0.231 C 
ATOM     11  C   UNL     1      37.278 -22.305 -15.271  0.00  0.00    +0.026 C 
ATOM     12  C   UNL     1      36.099 -23.009 -13.172  0.00  0.00    +0.026 C 
ENDROOT
BRANCH   8  14
ATOM     13  O   UNL     1      33.893 -23.709 -15.921  0.00  0.00    -0.248 OA
ATOM     14  C   UNL     1      34.569 -24.426 -15.197  0.00  0.00    +0.334 C 
BRANCH  14  15
ATOM     15  O   UNL     1      34.060 -25.231 -14.232  0.00  0.00    -0.479 OA
ATOM     16  H   UNL     1      33.170 -25.518 -14.283  0.00  0.00    +0.295 HD
ENDBRANCH  14  15
ENDBRANCH   8  14
TORSDOF 2
ENDMDL
MODEL 8
REMARK VINA RESULT:      -6.1     10.949     12.865
REMARK  Name = 130313
REMARK  2 active torsions:
REMARK  status: ('A' for Active; 'I' for Inactive)
REMARK    1  A    between atoms: C_8  and  C_14
REMARK    2  A    between atoms: C_14  and  O_15
REMARK                            x       y       z     vdW  Elec       q    Type
REMARK                         _______ _______ _______ _____ _____    ______ ____
ROOT
ATOM      1  S   UNL     1      34.131 -15.904 -20.988  0.00  0.00    +0.005 S 
ATOM      2  O   UNL     1      34.997 -15.808 -19.830  0.00  0.00    -0.171 OA
ATOM      3  O   UNL     1      32.702 -15.688 -20.858  0.00  0.00    -0.171 OA
ATOM      4  O   UNL     1      32.842 -14.867 -24.987  0.00  0.00    -0.275 OA
ATOM      5  N   UNL     1      34.394 -15.756 -23.447  0.00  0.00    -0.252 N 
ATOM      6  C   UNL     1      34.413 -17.527 -21.833  0.00  0.00    +0.139 C 
ATOM      7  C   UNL     1      34.786 -14.904 -22.315  0.00  0.00    +0.215 C 
ATOM      8  C   UNL     1      34.100 -17.169 -23.299  0.00  0.00    +0.196 C 
ATOM      9  C   UNL     1      33.953 -13.788 -22.958  0.00  0.00    +0.130 C 
ATOM     10  C   UNL     1      33.602 -14.822 -24.045  0.00  0.00    +0.231 C 
ATOM     11  C   UNL     1      33.450 -18.578 -21.282  0.00  0.00    +0.026 C 
ATOM     12  C   UNL     1      35.864 -17.972 -21.596  0.00  0.00    +0.026 C 
ENDROOT
BRANCH   8  14
ATOM     13  O   UNL     1      35.111 -19.105 -24.327  0.00  0.00    -0.248 OA
ATOM     14  C   UNL     1      34.889 -17.902 -24.334  0.00  0.00    +0.334 C 
BRANCH  14  15
ATOM     15  O   UNL     1      35.333 -17.051 -25.291  0.00  0.00    -0.479 OA
ATOM     16  H   UNL     1      36.251 -16.892 -25.387  0.00  0.00    +0.295 HD
ENDBRANCH  14  15
ENDBRANCH   8  14
TORSDOF 2
ENDMDL
MODEL 9
REMARK VINA RESULT:      -6.0     10.544     12.466
REMARK  Name = 130313
REMARK  2 active torsions:
REMARK  status: ('A' for Active; 'I' for Inactive)
REMARK    1  A    between atoms: C_8  and  C_14
REMARK    2  A    between atoms: C_14  and  O_15
REMARK                            x       y       z     vdW  Elec       q    Type
REMARK                         _______ _______ _______ _____ _____    ______ ____
ROOT
ATOM      1  S   UNL     1      33.981 -15.035 -22.889  0.00  0.00    +0.005 S 
ATOM      2  O   UNL     1      34.554 -13.765 -22.490  0.00  0.00    -0.171 OA
ATOM      3  O   UNL     1      32.769 -15.078 -23.685  0.00  0.00    -0.171 OA
ATOM      4  O   UNL     1      34.074 -18.934 -24.763  0.00  0.00    -0.275 OA
ATOM      5  N   UNL     1      34.780 -17.365 -23.149  0.00  0.00    -0.252 N 
ATOM      6  C   UNL     1      33.749 -16.101 -21.394  0.00  0.00    +0.139 C 
ATOM      7  C   UNL     1      35.242 -16.057 -23.635  0.00  0.00    +0.215 C 
ATOM      8  C   UNL     1      33.917 -17.511 -21.992  0.00  0.00    +0.196 C 
ATOM      9  C   UNL     1      35.083 -16.608 -25.057  0.00  0.00    +0.130 C 
ATOM     10  C   UNL     1      34.575 -17.899 -24.386  0.00  0.00    +0.231 C 
ATOM     11  C   UNL     1      32.352 -15.888 -20.811  0.00  0.00    +0.026 C 
ATOM     12  C   UNL     1      34.813 -15.738 -20.347  0.00  0.00    +0.026 C 
ENDROOT
BRANCH   8  14
ATOM     13  O   UNL     1      35.717 -18.570 -20.783  0.00  0.00    -0.248 OA
ATOM     14  C   UNL     1      34.536 -18.534 -21.095  0.00  0.00    +0.334 C 
BRANCH  14  15
ATOM     15  O   UNL     1      33.608 -19.425 -20.672  0.00  0.00    -0.479 OA
ATOM     16  H   UNL     1      33.588 -20.289 -21.035  0.00  0.00    +0.295 HD
ENDBRANCH  14  15
ENDBRANCH   8  14
TORSDOF 2
ENDMDL
