MODEL 1
REMARK VINA RESULT:     -10.7      0.000      0.000
REMARK  Name = 16039797
REMARK  8 active torsions:
REMARK  status: ('A' for Active; 'I' for Inactive)
REMARK    1  A    between atoms: C_1  and  O_18
REMARK    2  A    between atoms: C_2  and  O_24
REMARK    3  A    between atoms: C_4  and  C_11
REMARK    4  A    between atoms: O_18  and  C_19
REMARK    5  A    between atoms: C_19  and  C_21
REMARK    6  A    between atoms: C_21  and  O_22
REMARK    7  A    between atoms: O_24  and  C_30
REMARK    8  A    between atoms: C_27  and  C_36
REMARK                            x       y       z     vdW  Elec       q    Type
REMARK                         _______ _______ _______ _____ _____    ______ ____
ROOT
ATOM      1  C   UNL     1      31.788 -22.920 -15.741  0.00  0.00    +0.142 C 
ATOM      2  C   UNL     1      32.991 -22.866 -17.835  0.00  0.00    +0.150 C 
ATOM      3  C   UNL     1      31.792 -22.775 -17.127  0.00  0.00    +0.074 C 
ATOM      4  C   UNL     1      34.182 -23.248 -15.767  0.00  0.00    +0.060 C 
ATOM      5  C   UNL     1      32.983 -23.155 -15.060  0.00  0.00    +0.042 C 
ATOM      6  C   UNL     1      34.186 -23.103 -17.154  0.00  0.00    +0.042 C 
ENDROOT
BRANCH   4  11
ATOM      7  O   UNL     1      35.730 -22.764 -14.100  0.00  0.00    -0.270 OA
ATOM      8  N   UNL     1      36.188 -24.578 -15.515  0.00  0.00    -0.268 N 
ATOM      9  N   UNL     1      37.999 -26.133 -15.597  0.00  0.00    -0.252 NA
ATOM     10  N   UNL     1      39.157 -24.833 -13.399  0.00  0.00    -0.269 NA
ATOM     11  C   UNL     1      35.427 -23.493 -15.058  0.00  0.00    +0.251 C 
ATOM     12  C   UNL     1      37.419 -25.066 -15.012  0.00  0.00    +0.131 C 
ATOM     13  C   UNL     1      37.988 -24.428 -13.933  0.00  0.00    +0.185 C 
ATOM     14  C   UNL     1      39.738 -25.900 -13.983  0.00  0.00    +0.057 C 
ATOM     15  C   UNL     1      39.168 -26.538 -15.063  0.00  0.00    +0.167 C 
ATOM     16  C   UNL     1      41.031 -26.375 -13.420  0.00  0.00    +0.049 C 
ATOM     17  H   UNL     1      35.819 -25.064 -16.288  0.00  0.00    +0.156 HD
ENDBRANCH   4  11
BRANCH   1  18
ATOM     18  O   UNL     1      30.618 -22.829 -15.051  0.00  0.00    -0.476 OA
BRANCH  18  19
ATOM     19  C   UNL     1      29.467 -23.429 -15.642  0.00  0.00    +0.195 C 
ATOM     20  C   UNL     1      29.174 -24.740 -14.928  0.00  0.00    +0.050 C 
BRANCH  19  21
ATOM     21  C   UNL     1      28.303 -22.454 -15.519  0.00  0.00    +0.185 C 
BRANCH  21  22
ATOM     22  O   UNL     1      28.134 -21.777 -16.760  0.00  0.00    -0.347 OA
ATOM     23  C   UNL     1      27.061 -22.327 -17.510  0.00  0.00    +0.174 C 
ENDBRANCH  21  22
ENDBRANCH  19  21
ENDBRANCH  18  19
ENDBRANCH   1  18
BRANCH   2  24
ATOM     24  O   UNL     1      32.995 -22.723 -19.210  0.00  0.00    -0.438 OA
BRANCH  24  30
ATOM     25  N   UNL     1      35.263 -20.124 -20.315  0.00  0.00    -0.258 NA
ATOM     26  N   UNL     1      32.513 -20.638 -20.116  0.00  0.00    -0.233 NA
ATOM     27  C   UNL     1      34.339 -19.228 -20.712  0.00  0.00    +0.132 C 
ATOM     28  C   UNL     1      32.989 -19.480 -20.614  0.00  0.00    +0.178 C 
ATOM     29  C   UNL     1      34.789 -21.283 -19.817  0.00  0.00    +0.210 C 
ATOM     30  C   UNL     1      33.438 -21.536 -19.720  0.00  0.00    +0.226 C 
BRANCH  27  36
ATOM     31  O   UNL     1      35.374 -17.156 -20.488  0.00  0.00    -0.269 OA
ATOM     32  N   UNL     1      34.707 -17.757 -22.608  0.00  0.00    -0.275 N 
ATOM     33  C   UNL     1      35.045 -17.610 -24.619  0.00  0.00    +0.043 C 
ATOM     34  C   UNL     1      34.260 -18.573 -23.721  0.00  0.00    +0.096 C 
ATOM     35  C   UNL     1      35.114 -16.637 -23.437  0.00  0.00    +0.096 C 
ATOM     36  C   UNL     1      34.846 -17.954 -21.259  0.00  0.00    +0.264 C 
ENDBRANCH  27  36
ENDBRANCH  24  30
ENDBRANCH   2  24
TORSDOF 8
ENDMDL
MODEL 2
REMARK VINA RESULT:      -9.9      6.469     13.962
REMARK  Name = 16039797
REMARK  8 active torsions:
REMARK  status: ('A' for Active; 'I' for Inactive)
REMARK    1  A    between atoms: C_1  and  O_18
REMARK    2  A    between atoms: C_2  and  O_24
REMARK    3  A    between atoms: C_4  and  C_11
REMARK    4  A    between atoms: O_18  and  C_19
REMARK    5  A    between atoms: C_19  and  C_21
REMARK    6  A    between atoms: C_21  and  O_22
REMARK    7  A    between atoms: O_24  and  C_30
REMARK    8  A    between atoms: C_27  and  C_36
REMARK                            x       y       z     vdW  Elec       q    Type
REMARK                         _______ _______ _______ _____ _____    ______ ____
ROOT
ATOM      1  C   UNL     1      33.295 -13.080 -24.012  0.00  0.00    +0.142 C 
ATOM      2  C   UNL     1      32.507 -13.784 -21.840  0.00  0.00    +0.150 C 
ATOM      3  C   UNL     1      33.075 -14.090 -23.077  0.00  0.00    +0.074 C 
ATOM      4  C   UNL     1      32.379 -11.456 -22.476  0.00  0.00    +0.060 C 
ATOM      5  C   UNL     1      32.948 -11.763 -23.712  0.00  0.00    +0.042 C 
ATOM      6  C   UNL     1      32.160 -12.467 -21.540  0.00  0.00    +0.042 C 
ENDROOT
BRANCH   4  11
ATOM      7  O   UNL     1      31.621  -9.811 -21.018  0.00  0.00    -0.270 OA
ATOM      8  N   UNL     1      32.174  -9.156 -23.202  0.00  0.00    -0.268 N 
ATOM      9  N   UNL     1      32.143  -7.035 -24.299  0.00  0.00    -0.252 NA
ATOM     10  N   UNL     1      31.214  -5.869 -21.924  0.00  0.00    -0.269 NA
ATOM     11  C   UNL     1      32.018 -10.083 -22.162  0.00  0.00    +0.251 C 
ATOM     12  C   UNL     1      31.928  -7.762 -23.185  0.00  0.00    +0.131 C 
ATOM     13  C   UNL     1      31.472  -7.189 -22.018  0.00  0.00    +0.185 C 
ATOM     14  C   UNL     1      31.429  -5.143 -23.039  0.00  0.00    +0.057 C 
ATOM     15  C   UNL     1      31.885  -5.716 -24.206  0.00  0.00    +0.167 C 
ATOM     16  C   UNL     1      31.154  -3.681 -22.973  0.00  0.00    +0.049 C 
ATOM     17  H   UNL     1      32.498  -9.523 -24.056  0.00  0.00    +0.156 HD
ENDBRANCH   4  11
BRANCH   1  18
ATOM     18  O   UNL     1      33.851 -13.379 -25.218  0.00  0.00    -0.476 OA
BRANCH  18  19
ATOM     19  C   UNL     1      32.967 -13.816 -26.250  0.00  0.00    +0.195 C 
ATOM     20  C   UNL     1      33.470 -13.289 -27.585  0.00  0.00    +0.050 C 
BRANCH  19  21
ATOM     21  C   UNL     1      32.927 -15.340 -26.232  0.00  0.00    +0.185 C 
BRANCH  21  22
ATOM     22  O   UNL     1      34.257 -15.836 -26.123  0.00  0.00    -0.347 OA
ATOM     23  C   UNL     1      34.349 -16.861 -25.145  0.00  0.00    +0.174 C 
ENDBRANCH  21  22
ENDBRANCH  19  21
ENDBRANCH  18  19
ENDBRANCH   1  18
BRANCH   2  24
ATOM     24  O   UNL     1      32.289 -14.786 -20.913  0.00  0.00    -0.438 OA
BRANCH  24  30
ATOM     25  N   UNL     1      35.326 -16.715 -20.497  0.00  0.00    -0.258 NA
ATOM     26  N   UNL     1      32.669 -17.039 -21.335  0.00  0.00    -0.233 NA
ATOM     27  C   UNL     1      34.849 -17.904 -20.913  0.00  0.00    +0.132 C 
ATOM     28  C   UNL     1      33.544 -18.064 -21.325  0.00  0.00    +0.178 C 
ATOM     29  C   UNL     1      34.451 -15.689 -20.507  0.00  0.00    +0.210 C 
ATOM     30  C   UNL     1      33.146 -15.849 -20.918  0.00  0.00    +0.226 C 
BRANCH  27  36
ATOM     31  O   UNL     1      36.951 -18.832 -21.279  0.00  0.00    -0.269 OA
ATOM     32  N   UNL     1      35.323 -20.243 -20.467  0.00  0.00    -0.275 N 
ATOM     33  C   UNL     1      34.890 -21.891 -19.337  0.00  0.00    +0.043 C 
ATOM     34  C   UNL     1      34.084 -20.698 -19.865  0.00  0.00    +0.096 C 
ATOM     35  C   UNL     1      36.001 -21.518 -20.325  0.00  0.00    +0.096 C 
ATOM     36  C   UNL     1      35.797 -19.035 -20.908  0.00  0.00    +0.264 C 
ENDBRANCH  27  36
ENDBRANCH  24  30
ENDBRANCH   2  24
TORSDOF 8
ENDMDL
MODEL 3
REMARK VINA RESULT:      -9.9      2.704      6.742
REMARK  Name = 16039797
REMARK  8 active torsions:
REMARK  status: ('A' for Active; 'I' for Inactive)
REMARK    1  A    between atoms: C_1  and  O_18
REMARK    2  A    between atoms: C_2  and  O_24
REMARK    3  A    between atoms: C_4  and  C_11
REMARK    4  A    between atoms: O_18  and  C_19
REMARK    5  A    between atoms: C_19  and  C_21
REMARK    6  A    between atoms: C_21  and  O_22
REMARK    7  A    between atoms: O_24  and  C_30
REMARK    8  A    between atoms: C_27  and  C_36
REMARK                            x       y       z     vdW  Elec       q    Type
REMARK                         _______ _______ _______ _____ _____    ______ ____
ROOT
ATOM      1  C   UNL     1      35.751 -23.261 -15.410  0.00  0.00    +0.142 C 
ATOM      2  C   UNL     1      34.999 -22.931 -17.682  0.00  0.00    +0.150 C 
ATOM      3  C   UNL     1      36.032 -23.159 -16.772  0.00  0.00    +0.074 C 
ATOM      4  C   UNL     1      33.405 -22.907 -15.866  0.00  0.00    +0.060 C 
ATOM      5  C   UNL     1      34.438 -23.136 -14.957  0.00  0.00    +0.042 C 
ATOM      6  C   UNL     1      33.686 -22.804 -17.228  0.00  0.00    +0.042 C 
ENDROOT
BRANCH   4  11
ATOM      7  O   UNL     1      31.821 -22.742 -14.171  0.00  0.00    -0.270 OA
ATOM      8  N   UNL     1      31.053 -22.673 -16.388  0.00  0.00    -0.268 N 
ATOM      9  N   UNL     1      28.869 -22.433 -17.323  0.00  0.00    -0.252 NA
ATOM     10  N   UNL     1      27.819 -22.297 -14.726  0.00  0.00    -0.269 NA
ATOM     11  C   UNL     1      32.036 -22.776 -15.393  0.00  0.00    +0.251 C 
ATOM     12  C   UNL     1      29.655 -22.514 -16.231  0.00  0.00    +0.131 C 
ATOM     13  C   UNL     1      29.138 -22.447 -14.956  0.00  0.00    +0.185 C 
ATOM     14  C   UNL     1      27.033 -22.217 -15.819  0.00  0.00    +0.057 C 
ATOM     15  C   UNL     1      27.549 -22.284 -17.094  0.00  0.00    +0.167 C 
ATOM     16  C   UNL     1      25.569 -22.052 -15.604  0.00  0.00    +0.049 C 
ATOM     17  H   UNL     1      31.378 -22.716 -17.316  0.00  0.00    +0.156 HD
ENDBRANCH   4  11
BRANCH   1  18
ATOM     18  O   UNL     1      36.759 -23.486 -14.523  0.00  0.00    -0.476 OA
BRANCH  18  19
ATOM     19  C   UNL     1      36.649 -24.641 -13.694  0.00  0.00    +0.195 C 
ATOM     20  C   UNL     1      36.811 -25.884 -14.557  0.00  0.00    +0.050 C 
BRANCH  19  21
ATOM     21  C   UNL     1      37.727 -24.564 -12.620  0.00  0.00    +0.185 C 
BRANCH  21  22
ATOM     22  O   UNL     1      37.111 -24.300 -11.364  0.00  0.00    -0.347 OA
ATOM     23  C   UNL     1      35.695 -24.337 -11.464  0.00  0.00    +0.174 C 
ENDBRANCH  21  22
ENDBRANCH  19  21
ENDBRANCH  18  19
ENDBRANCH   1  18
BRANCH   2  24
ATOM     24  O   UNL     1      35.277 -22.828 -19.032  0.00  0.00    -0.438 OA
BRANCH  24  30
ATOM     25  N   UNL     1      36.292 -19.633 -20.405  0.00  0.00    -0.258 NA
ATOM     26  N   UNL     1      33.967 -21.123 -19.913  0.00  0.00    -0.233 NA
ATOM     27  C   UNL     1      35.066 -19.168 -20.716  0.00  0.00    +0.132 C 
ATOM     28  C   UNL     1      33.924 -19.899 -20.474  0.00  0.00    +0.178 C 
ATOM     29  C   UNL     1      36.335 -20.858 -19.843  0.00  0.00    +0.210 C 
ATOM     30  C   UNL     1      35.193 -21.590 -19.602  0.00  0.00    +0.226 C 
BRANCH  27  36
ATOM     31  O   UNL     1      35.199 -16.847 -20.615  0.00  0.00    -0.269 OA
ATOM     32  N   UNL     1      34.750 -17.771 -22.676  0.00  0.00    -0.275 N 
ATOM     33  C   UNL     1      34.931 -17.605 -24.706  0.00  0.00    +0.043 C 
ATOM     34  C   UNL     1      34.626 -18.753 -23.736  0.00  0.00    +0.096 C 
ATOM     35  C   UNL     1      34.650 -16.625 -23.561  0.00  0.00    +0.096 C 
ATOM     36  C   UNL     1      35.005 -17.827 -21.330  0.00  0.00    +0.264 C 
ENDBRANCH  27  36
ENDBRANCH  24  30
ENDBRANCH   2  24
TORSDOF 8
ENDMDL
MODEL 4
REMARK VINA RESULT:      -9.5      6.222     11.173
REMARK  Name = 16039797
REMARK  8 active torsions:
REMARK  status: ('A' for Active; 'I' for Inactive)
REMARK    1  A    between atoms: C_1  and  O_18
REMARK    2  A    between atoms: C_2  and  O_24
REMARK    3  A    between atoms: C_4  and  C_11
REMARK    4  A    between atoms: O_18  and  C_19
REMARK    5  A    between atoms: C_19  and  C_21
REMARK    6  A    between atoms: C_21  and  O_22
REMARK    7  A    between atoms: O_24  and  C_30
REMARK    8  A    between atoms: C_27  and  C_36
REMARK                            x       y       z     vdW  Elec       q    Type
REMARK                         _______ _______ _______ _____ _____    ______ ____
ROOT
ATOM      1  C   UNL     1      33.949 -13.979 -23.692  0.00  0.00    +0.142 C 
ATOM      2  C   UNL     1      32.530 -13.848 -21.742  0.00  0.00    +0.150 C 
ATOM      3  C   UNL     1      33.004 -13.292 -22.930  0.00  0.00    +0.074 C 
ATOM      4  C   UNL     1      33.946 -15.776 -22.078  0.00  0.00    +0.060 C 
ATOM      5  C   UNL     1      34.420 -15.221 -23.267  0.00  0.00    +0.042 C 
ATOM      6  C   UNL     1      33.002 -15.090 -21.316  0.00  0.00    +0.042 C 
ENDROOT
BRANCH   4  11
ATOM      7  O   UNL     1      35.656 -17.300 -21.675  0.00  0.00    -0.270 OA
ATOM      8  N   UNL     1      33.465 -17.966 -21.166  0.00  0.00    -0.268 N 
ATOM      9  N   UNL     1      32.572 -19.982 -20.248  0.00  0.00    -0.252 NA
ATOM     10  N   UNL     1      35.172 -21.021 -20.112  0.00  0.00    -0.269 NA
ATOM     11  C   UNL     1      34.437 -17.071 -21.635  0.00  0.00    +0.251 C 
ATOM     12  C   UNL     1      33.644 -19.274 -20.653  0.00  0.00    +0.131 C 
ATOM     13  C   UNL     1      34.922 -19.785 -20.586  0.00  0.00    +0.185 C 
ATOM     14  C   UNL     1      34.099 -21.729 -19.707  0.00  0.00    +0.057 C 
ATOM     15  C   UNL     1      32.821 -21.218 -19.774  0.00  0.00    +0.167 C 
ATOM     16  C   UNL     1      34.338 -23.100 -19.178  0.00  0.00    +0.049 C 
ATOM     17  H   UNL     1      32.536 -17.642 -21.196  0.00  0.00    +0.156 HD
ENDBRANCH   4  11
BRANCH   1  18
ATOM     18  O   UNL     1      34.410 -13.437 -24.853  0.00  0.00    -0.476 OA
BRANCH  18  19
ATOM     19  C   UNL     1      33.550 -12.521 -25.529  0.00  0.00    +0.195 C 
ATOM     20  C   UNL     1      34.200 -11.146 -25.533  0.00  0.00    +0.050 C 
BRANCH  19  21
ATOM     21  C   UNL     1      33.323 -13.035 -26.946  0.00  0.00    +0.185 C 
BRANCH  21  22
ATOM     22  O   UNL     1      33.674 -14.413 -27.000  0.00  0.00    -0.347 OA
ATOM     23  C   UNL     1      32.567 -15.243 -26.684  0.00  0.00    +0.174 C 
ENDBRANCH  21  22
ENDBRANCH  19  21
ENDBRANCH  18  19
ENDBRANCH   1  18
BRANCH   2  24
ATOM     24  O   UNL     1      31.594 -13.167 -20.986  0.00  0.00    -0.438 OA
BRANCH  24  30
ATOM     25  N   UNL     1      31.943  -9.688 -21.933  0.00  0.00    -0.258 NA
ATOM     26  N   UNL     1      31.809 -11.289 -19.634  0.00  0.00    -0.233 NA
ATOM     27  C   UNL     1      32.014  -9.164 -20.693  0.00  0.00    +0.132 C 
ATOM     28  C   UNL     1      31.949  -9.951 -19.564  0.00  0.00    +0.178 C 
ATOM     29  C   UNL     1      31.803 -11.027 -22.003  0.00  0.00    +0.210 C 
ATOM     30  C   UNL     1      31.737 -11.813 -20.874  0.00  0.00    +0.226 C 
BRANCH  27  36
ATOM     31  O   UNL     1      32.731  -7.232 -19.615  0.00  0.00    -0.269 OA
ATOM     32  N   UNL     1      31.683  -6.957 -21.647  0.00  0.00    -0.275 N 
ATOM     33  C   UNL     1      31.508  -5.837 -23.348  0.00  0.00    +0.043 C 
ATOM     34  C   UNL     1      31.121  -7.265 -22.948  0.00  0.00    +0.096 C 
ATOM     35  C   UNL     1      31.700  -5.521 -21.861  0.00  0.00    +0.096 C 
ATOM     36  C   UNL     1      32.168  -7.699 -20.602  0.00  0.00    +0.264 C 
ENDBRANCH  27  36
ENDBRANCH  24  30
ENDBRANCH   2  24
TORSDOF 8
ENDMDL
MODEL 5
REMARK VINA RESULT:      -9.4      2.634      8.611
REMARK  Name = 16039797
REMARK  8 active torsions:
REMARK  status: ('A' for Active; 'I' for Inactive)
REMARK    1  A    between atoms: C_1  and  O_18
REMARK    2  A    between atoms: C_2  and  O_24
REMARK    3  A    between atoms: C_4  and  C_11
REMARK    4  A    between atoms: O_18  and  C_19
REMARK    5  A    between atoms: C_19  and  C_21
REMARK    6  A    between atoms: C_21  and  O_22
REMARK    7  A    between atoms: O_24  and  C_30
REMARK    8  A    between atoms: C_27  and  C_36
REMARK                            x       y       z     vdW  Elec       q    Type
REMARK                         _______ _______ _______ _____ _____    ______ ____
ROOT
ATOM      1  C   UNL     1      36.253 -24.983 -14.143  0.00  0.00    +0.142 C 
ATOM      2  C   UNL     1      33.931 -24.318 -14.151  0.00  0.00    +0.150 C 
ATOM      3  C   UNL     1      34.978 -25.041 -13.581  0.00  0.00    +0.074 C 
ATOM      4  C   UNL     1      35.434 -23.478 -15.846  0.00  0.00    +0.060 C 
ATOM      5  C   UNL     1      36.481 -24.201 -15.276  0.00  0.00    +0.042 C 
ATOM      6  C   UNL     1      34.159 -23.536 -15.284  0.00  0.00    +0.042 C 
ENDROOT
BRANCH   4  11
ATOM      7  O   UNL     1      36.837 -22.359 -17.325  0.00  0.00    -0.270 OA
ATOM      8  N   UNL     1      34.532 -22.298 -17.758  0.00  0.00    -0.268 N 
ATOM      9  N   UNL     1      33.253 -21.293 -19.506  0.00  0.00    -0.252 NA
ATOM     10  N   UNL     1      35.634 -20.336 -20.638  0.00  0.00    -0.269 NA
ATOM     11  C   UNL     1      35.671 -22.662 -17.027  0.00  0.00    +0.251 C 
ATOM     12  C   UNL     1      34.456 -21.537 -18.950  0.00  0.00    +0.131 C 
ATOM     13  C   UNL     1      35.625 -21.067 -19.507  0.00  0.00    +0.185 C 
ATOM     14  C   UNL     1      34.430 -20.091 -21.194  0.00  0.00    +0.057 C 
ATOM     15  C   UNL     1      33.261 -20.561 -20.638  0.00  0.00    +0.167 C 
ATOM     16  C   UNL     1      34.401 -19.285 -22.446  0.00  0.00    +0.049 C 
ATOM     17  H   UNL     1      33.673 -22.613 -17.396  0.00  0.00    +0.156 HD
ENDBRANCH   4  11
BRANCH   1  18
ATOM     18  O   UNL     1      37.275 -25.688 -13.585  0.00  0.00    -0.476 OA
BRANCH  18  19
ATOM     19  C   UNL     1      38.481 -24.976 -13.311  0.00  0.00    +0.195 C 
ATOM     20  C   UNL     1      38.324 -24.232 -11.994  0.00  0.00    +0.050 C 
BRANCH  19  21
ATOM     21  C   UNL     1      39.626 -25.980 -13.252  0.00  0.00    +0.185 C 
BRANCH  21  22
ATOM     22  O   UNL     1      39.949 -26.390 -14.576  0.00  0.00    -0.347 OA
ATOM     23  C   UNL     1      40.222 -25.276 -15.412  0.00  0.00    +0.174 C 
ENDBRANCH  21  22
ENDBRANCH  19  21
ENDBRANCH  18  19
ENDBRANCH   1  18
BRANCH   2  24
ATOM     24  O   UNL     1      32.667 -24.376 -13.594  0.00  0.00    -0.438 OA
BRANCH  24  30
ATOM     25  N   UNL     1      30.314 -22.470 -15.582  0.00  0.00    -0.258 NA
ATOM     26  N   UNL     1      30.832 -25.117 -14.813  0.00  0.00    -0.233 NA
ATOM     27  C   UNL     1      29.542 -23.496 -15.990  0.00  0.00    +0.132 C 
ATOM     28  C   UNL     1      29.796 -24.796 -15.612  0.00  0.00    +0.178 C 
ATOM     29  C   UNL     1      31.351 -22.790 -14.782  0.00  0.00    +0.210 C 
ATOM     30  C   UNL     1      31.605 -24.090 -14.405  0.00  0.00    +0.226 C 
BRANCH  27  36
ATOM     31  O   UNL     1      28.407 -23.582 -18.019  0.00  0.00    -0.269 OA
ATOM     32  N   UNL     1      27.400 -22.402 -16.318  0.00  0.00    -0.275 N 
ATOM     33  C   UNL     1      25.649 -21.778 -15.466  0.00  0.00    +0.043 C 
ATOM     34  C   UNL     1      27.100 -21.909 -14.987  0.00  0.00    +0.096 C 
ATOM     35  C   UNL     1      26.159 -21.929 -16.904  0.00  0.00    +0.096 C 
ATOM     36  C   UNL     1      28.403 -23.158 -16.866  0.00  0.00    +0.264 C 
ENDBRANCH  27  36
ENDBRANCH  24  30
ENDBRANCH   2  24
TORSDOF 8
ENDMDL
MODEL 6
REMARK VINA RESULT:      -9.4      2.529      7.094
REMARK  Name = 16039797
REMARK  8 active torsions:
REMARK  status: ('A' for Active; 'I' for Inactive)
REMARK    1  A    between atoms: C_1  and  O_18
REMARK    2  A    between atoms: C_2  and  O_24
REMARK    3  A    between atoms: C_4  and  C_11
REMARK    4  A    between atoms: O_18  and  C_19
REMARK    5  A    between atoms: C_19  and  C_21
REMARK    6  A    between atoms: C_21  and  O_22
REMARK    7  A    between atoms: O_24  and  C_30
REMARK    8  A    between atoms: C_27  and  C_36
REMARK                            x       y       z     vdW  Elec       q    Type
REMARK                         _______ _______ _______ _____ _____    ______ ____
ROOT
ATOM      1  C   UNL     1      35.709 -24.359 -14.116  0.00  0.00    +0.142 C 
ATOM      2  C   UNL     1      35.754 -23.251 -16.262  0.00  0.00    +0.150 C 
ATOM      3  C   UNL     1      36.402 -23.980 -15.265  0.00  0.00    +0.074 C 
ATOM      4  C   UNL     1      33.718 -23.281 -14.961  0.00  0.00    +0.060 C 
ATOM      5  C   UNL     1      34.366 -24.011 -13.964  0.00  0.00    +0.042 C 
ATOM      6  C   UNL     1      34.412 -22.902 -16.109  0.00  0.00    +0.042 C 
ENDROOT
BRANCH   4  11
ATOM      7  O   UNL     1      31.940 -22.432 -13.725  0.00  0.00    -0.270 OA
ATOM      8  N   UNL     1      31.501 -23.134 -15.920  0.00  0.00    -0.268 N 
ATOM      9  N   UNL     1      29.507 -23.139 -17.235  0.00  0.00    -0.252 NA
ATOM     10  N   UNL     1      28.127 -22.015 -15.068  0.00  0.00    -0.269 NA
ATOM     11  C   UNL     1      32.319 -22.918 -14.802  0.00  0.00    +0.251 C 
ATOM     12  C   UNL     1      30.119 -22.858 -16.068  0.00  0.00    +0.131 C 
ATOM     13  C   UNL     1      29.441 -22.305 -15.004  0.00  0.00    +0.185 C 
ATOM     14  C   UNL     1      27.514 -22.298 -16.235  0.00  0.00    +0.057 C 
ATOM     15  C   UNL     1      28.192 -22.850 -17.299  0.00  0.00    +0.167 C 
ATOM     16  C   UNL     1      26.061 -21.992 -16.342  0.00  0.00    +0.049 C 
ATOM     17  H   UNL     1      31.945 -23.528 -16.705  0.00  0.00    +0.156 HD
ENDBRANCH   4  11
BRANCH   1  18
ATOM     18  O   UNL     1      36.341 -25.071 -13.144  0.00  0.00    -0.476 OA
BRANCH  18  19
ATOM     19  C   UNL     1      37.766 -25.011 -13.118  0.00  0.00    +0.195 C 
ATOM     20  C   UNL     1      38.207 -24.347 -11.822  0.00  0.00    +0.050 C 
BRANCH  19  21
ATOM     21  C   UNL     1      38.307 -26.431 -13.229  0.00  0.00    +0.185 C 
BRANCH  21  22
ATOM     22  O   UNL     1      38.953 -26.583 -14.489  0.00  0.00    -0.347 OA
ATOM     23  C   UNL     1      39.797 -25.478 -14.775  0.00  0.00    +0.174 C 
ENDBRANCH  21  22
ENDBRANCH  19  21
ENDBRANCH  18  19
ENDBRANCH   1  18
BRANCH   2  24
ATOM     24  O   UNL     1      36.441 -22.874 -17.401  0.00  0.00    -0.438 OA
BRANCH  24  30
ATOM     25  N   UNL     1      35.772 -20.278 -19.836  0.00  0.00    -0.258 NA
ATOM     26  N   UNL     1      34.499 -22.452 -18.605  0.00  0.00    -0.233 NA
ATOM     27  C   UNL     1      34.499 -20.614 -20.121  0.00  0.00    +0.132 C 
ATOM     28  C   UNL     1      33.874 -21.682 -19.516  0.00  0.00    +0.178 C 
ATOM     29  C   UNL     1      36.399 -21.048 -18.924  0.00  0.00    +0.210 C 
ATOM     30  C   UNL     1      35.773 -22.116 -18.320  0.00  0.00    +0.226 C 
BRANCH  27  36
ATOM     31  O   UNL     1      32.578 -19.857 -21.192  0.00  0.00    -0.269 OA
ATOM     32  N   UNL     1      34.576 -18.949 -21.886  0.00  0.00    -0.275 N 
ATOM     33  C   UNL     1      35.543 -17.325 -22.664  0.00  0.00    +0.043 C 
ATOM     34  C   UNL     1      35.979 -18.579 -21.898  0.00  0.00    +0.096 C 
ATOM     35  C   UNL     1      34.194 -18.005 -22.920  0.00  0.00    +0.096 C 
ATOM     36  C   UNL     1      33.802 -19.778 -21.118  0.00  0.00    +0.264 C 
ENDBRANCH  27  36
ENDBRANCH  24  30
ENDBRANCH   2  24
TORSDOF 8
ENDMDL
MODEL 7
REMARK VINA RESULT:      -9.3      6.645     11.614
REMARK  Name = 16039797
REMARK  8 active torsions:
REMARK  status: ('A' for Active; 'I' for Inactive)
REMARK    1  A    between atoms: C_1  and  O_18
REMARK    2  A    between atoms: C_2  and  O_24
REMARK    3  A    between atoms: C_4  and  C_11
REMARK    4  A    between atoms: O_18  and  C_19
REMARK    5  A    between atoms: C_19  and  C_21
REMARK    6  A    between atoms: C_21  and  O_22
REMARK    7  A    between atoms: O_24  and  C_30
REMARK    8  A    between atoms: C_27  and  C_36
REMARK                            x       y       z     vdW  Elec       q    Type
REMARK                         _______ _______ _______ _____ _____    ______ ____
ROOT
ATOM      1  C   UNL     1      32.671 -13.741 -23.744  0.00  0.00    +0.142 C 
ATOM      2  C   UNL     1      32.248 -13.302 -21.406  0.00  0.00    +0.150 C 
ATOM      3  C   UNL     1      32.128 -12.932 -22.746  0.00  0.00    +0.074 C 
ATOM      4  C   UNL     1      33.455 -15.289 -22.063  0.00  0.00    +0.060 C 
ATOM      5  C   UNL     1      33.333 -14.920 -23.403  0.00  0.00    +0.042 C 
ATOM      6  C   UNL     1      32.912 -14.480 -21.066  0.00  0.00    +0.042 C 
ENDROOT
BRANCH   4  11
ATOM      7  O   UNL     1      35.381 -16.569 -21.817  0.00  0.00    -0.270 OA
ATOM      8  N   UNL     1      33.336 -17.561 -21.236  0.00  0.00    -0.268 N 
ATOM      9  N   UNL     1      32.786 -19.720 -20.375  0.00  0.00    -0.252 NA
ATOM     10  N   UNL     1      35.510 -20.382 -20.415  0.00  0.00    -0.269 NA
ATOM     11  C   UNL     1      34.145 -16.519 -21.707  0.00  0.00    +0.251 C 
ATOM     12  C   UNL     1      33.725 -18.850 -20.797  0.00  0.00    +0.131 C 
ATOM     13  C   UNL     1      35.063 -19.176 -20.816  0.00  0.00    +0.185 C 
ATOM     14  C   UNL     1      34.570 -21.252 -19.994  0.00  0.00    +0.057 C 
ATOM     15  C   UNL     1      33.232 -20.927 -19.975  0.00  0.00    +0.167 C 
ATOM     16  C   UNL     1      35.028 -22.596 -19.544  0.00  0.00    +0.049 C 
ATOM     17  H   UNL     1      32.370 -17.372 -21.205  0.00  0.00    +0.156 HD
ENDBRANCH   4  11
BRANCH   1  18
ATOM     18  O   UNL     1      32.551 -13.381 -25.051  0.00  0.00    -0.476 OA
BRANCH  18  19
ATOM     19  C   UNL     1      33.711 -12.845 -25.685  0.00  0.00    +0.195 C 
ATOM     20  C   UNL     1      33.671 -13.198 -27.164  0.00  0.00    +0.050 C 
BRANCH  19  21
ATOM     21  C   UNL     1      33.717 -11.335 -25.473  0.00  0.00    +0.185 C 
BRANCH  21  22
ATOM     22  O   UNL     1      34.641 -11.019 -24.436  0.00  0.00    -0.347 OA
ATOM     23  C   UNL     1      34.918  -9.627 -24.397  0.00  0.00    +0.174 C 
ENDBRANCH  21  22
ENDBRANCH  19  21
ENDBRANCH  18  19
ENDBRANCH   1  18
BRANCH   2  24
ATOM     24  O   UNL     1      31.711 -12.499 -20.417  0.00  0.00    -0.438 OA
BRANCH  24  30
ATOM     25  N   UNL     1      31.949  -8.979 -19.595  0.00  0.00    -0.258 NA
ATOM     26  N   UNL     1      31.876 -10.665 -21.835  0.00  0.00    -0.233 NA
ATOM     27  C   UNL     1      32.013  -8.499 -20.853  0.00  0.00    +0.132 C 
ATOM     28  C   UNL     1      31.977  -9.327 -21.953  0.00  0.00    +0.178 C 
ATOM     29  C   UNL     1      31.848 -10.318 -19.477  0.00  0.00    +0.210 C 
ATOM     30  C   UNL     1      31.813 -11.146 -20.577  0.00  0.00    +0.226 C 
BRANCH  27  36
ATOM     31  O   UNL     1      32.734  -6.407 -20.134  0.00  0.00    -0.269 OA
ATOM     32  N   UNL     1      31.546  -6.472 -22.104  0.00  0.00    -0.275 N 
ATOM     33  C   UNL     1      31.220  -5.632 -23.939  0.00  0.00    +0.043 C 
ATOM     34  C   UNL     1      30.909  -6.990 -23.300  0.00  0.00    +0.096 C 
ATOM     35  C   UNL     1      31.500  -5.087 -22.534  0.00  0.00    +0.096 C 
ATOM     36  C   UNL     1      32.124  -7.034 -20.996  0.00  0.00    +0.264 C 
ENDBRANCH  27  36
ENDBRANCH  24  30
ENDBRANCH   2  24
TORSDOF 8
ENDMDL
MODEL 8
REMARK VINA RESULT:      -9.2      2.606      8.553
REMARK  Name = 16039797
REMARK  8 active torsions:
REMARK  status: ('A' for Active; 'I' for Inactive)
REMARK    1  A    between atoms: C_1  and  O_18
REMARK    2  A    between atoms: C_2  and  O_24
REMARK    3  A    between atoms: C_4  and  C_11
REMARK    4  A    between atoms: O_18  and  C_19
REMARK    5  A    between atoms: C_19  and  C_21
REMARK    6  A    between atoms: C_21  and  O_22
REMARK    7  A    between atoms: O_24  and  C_30
REMARK    8  A    between atoms: C_27  and  C_36
REMARK                            x       y       z     vdW  Elec       q    Type
REMARK                         _______ _______ _______ _____ _____    ______ ____
ROOT
ATOM      1  C   UNL     1      36.473 -23.429 -15.629  0.00  0.00    +0.142 C 
ATOM      2  C   UNL     1      34.128 -23.969 -15.413  0.00  0.00    +0.150 C 
ATOM      3  C   UNL     1      35.430 -24.019 -14.915  0.00  0.00    +0.074 C 
ATOM      4  C   UNL     1      34.913 -22.739 -17.339  0.00  0.00    +0.060 C 
ATOM      5  C   UNL     1      36.215 -22.788 -16.840  0.00  0.00    +0.042 C 
ATOM      6  C   UNL     1      33.870 -23.328 -16.625  0.00  0.00    +0.042 C 
ENDROOT
BRANCH   4  11
ATOM      7  O   UNL     1      33.614 -22.364 -19.232  0.00  0.00    -0.270 OA
ATOM      8  N   UNL     1      35.583 -21.109 -18.999  0.00  0.00    -0.268 N 
ATOM      9  N   UNL     1      36.579 -19.418 -20.359  0.00  0.00    -0.252 NA
ATOM     10  N   UNL     1      34.446 -19.673 -22.162  0.00  0.00    -0.269 NA
ATOM     11  C   UNL     1      34.643 -22.070 -18.602  0.00  0.00    +0.251 C 
ATOM     12  C   UNL     1      35.573 -20.291 -20.155  0.00  0.00    +0.131 C 
ATOM     13  C   UNL     1      34.525 -20.416 -21.041  0.00  0.00    +0.185 C 
ATOM     14  C   UNL     1      35.453 -18.800 -22.367  0.00  0.00    +0.057 C 
ATOM     15  C   UNL     1      36.501 -18.675 -21.481  0.00  0.00    +0.167 C 
ATOM     16  C   UNL     1      35.400 -17.963 -23.597  0.00  0.00    +0.049 C 
ATOM     17  H   UNL     1      36.350 -20.986 -18.394  0.00  0.00    +0.156 HD
ENDBRANCH   4  11
BRANCH   1  18
ATOM     18  O   UNL     1      37.743 -23.477 -15.142  0.00  0.00    -0.476 OA
BRANCH  18  19
ATOM     19  C   UNL     1      38.161 -24.700 -14.538  0.00  0.00    +0.195 C 
ATOM     20  C   UNL     1      39.555 -25.045 -15.038  0.00  0.00    +0.050 C 
BRANCH  19  21
ATOM     21  C   UNL     1      38.142 -24.517 -13.025  0.00  0.00    +0.185 C 
BRANCH  21  22
ATOM     22  O   UNL     1      38.028 -23.129 -12.728  0.00  0.00    -0.347 OA
ATOM     23  C   UNL     1      37.178 -22.905 -11.614  0.00  0.00    +0.174 C 
ENDBRANCH  21  22
ENDBRANCH  19  21
ENDBRANCH  18  19
ENDBRANCH   1  18
BRANCH   2  24
ATOM     24  O   UNL     1      33.095 -24.554 -14.706  0.00  0.00    -0.438 OA
BRANCH  24  30
ATOM     25  N   UNL     1      30.485 -22.043 -14.708  0.00  0.00    -0.258 NA
ATOM     26  N   UNL     1      30.821 -24.796 -15.122  0.00  0.00    -0.233 NA
ATOM     27  C   UNL     1      29.451 -22.849 -15.017  0.00  0.00    +0.132 C 
ATOM     28  C   UNL     1      29.616 -24.202 -15.220  0.00  0.00    +0.178 C 
ATOM     29  C   UNL     1      31.691 -22.636 -14.610  0.00  0.00    +0.210 C 
ATOM     30  C   UNL     1      31.856 -23.989 -14.813  0.00  0.00    +0.226 C 
BRANCH  27  36
ATOM     31  O   UNL     1      27.691 -21.594 -14.158  0.00  0.00    -0.269 OA
ATOM     32  N   UNL     1      27.470 -22.340 -16.325  0.00  0.00    -0.275 N 
ATOM     33  C   UNL     1      26.687 -22.003 -18.183  0.00  0.00    +0.043 C 
ATOM     34  C   UNL     1      27.813 -22.881 -17.626  0.00  0.00    +0.096 C 
ATOM     35  C   UNL     1      26.183 -21.819 -16.747  0.00  0.00    +0.096 C 
ATOM     36  C   UNL     1      28.124 -22.212 -15.128  0.00  0.00    +0.264 C 
ENDBRANCH  27  36
ENDBRANCH  24  30
ENDBRANCH   2  24
TORSDOF 8
ENDMDL
MODEL 9
REMARK VINA RESULT:      -9.1      2.678      8.739
REMARK  Name = 16039797
REMARK  8 active torsions:
REMARK  status: ('A' for Active; 'I' for Inactive)
REMARK    1  A    between atoms: C_1  and  O_18
REMARK    2  A    between atoms: C_2  and  O_24
REMARK    3  A    between atoms: C_4  and  C_11
REMARK    4  A    between atoms: O_18  and  C_19
REMARK    5  A    between atoms: C_19  and  C_21
REMARK    6  A    between atoms: C_21  and  O_22
REMARK    7  A    between atoms: O_24  and  C_30
REMARK    8  A    between atoms: C_27  and  C_36
REMARK                            x       y       z     vdW  Elec       q    Type
REMARK                         _______ _______ _______ _____ _____    ______ ____
ROOT
ATOM      1  C   UNL     1      37.531 -23.619 -14.871  0.00  0.00    +0.142 C 
ATOM      2  C   UNL     1      35.224 -23.602 -14.156  0.00  0.00    +0.150 C 
ATOM      3  C   UNL     1      36.567 -23.876 -13.897  0.00  0.00    +0.074 C 
ATOM      4  C   UNL     1      35.811 -22.814 -16.363  0.00  0.00    +0.060 C 
ATOM      5  C   UNL     1      37.153 -23.088 -16.104  0.00  0.00    +0.042 C 
ATOM      6  C   UNL     1      34.846 -23.071 -15.389  0.00  0.00    +0.042 C 
ENDROOT
BRANCH   4  11
ATOM      7  O   UNL     1      34.348 -22.629 -18.162  0.00  0.00    -0.270 OA
ATOM      8  N   UNL     1      36.290 -21.312 -18.200  0.00  0.00    -0.268 N 
ATOM      9  N   UNL     1      37.117 -19.717 -19.773  0.00  0.00    -0.252 NA
ATOM     10  N   UNL     1      34.851 -20.172 -21.361  0.00  0.00    -0.269 NA
ATOM     11  C   UNL     1      35.416 -22.260 -17.649  0.00  0.00    +0.251 C 
ATOM     12  C   UNL     1      36.159 -20.593 -19.414  0.00  0.00    +0.131 C 
ATOM     13  C   UNL     1      35.046 -20.817 -20.194  0.00  0.00    +0.185 C 
ATOM     14  C   UNL     1      35.810 -19.295 -21.721  0.00  0.00    +0.057 C 
ATOM     15  C   UNL     1      36.923 -19.072 -20.940  0.00  0.00    +0.167 C 
ATOM     16  C   UNL     1      35.629 -18.565 -23.005  0.00  0.00    +0.049 C 
ATOM     17  H   UNL     1      37.101 -21.122 -17.675  0.00  0.00    +0.156 HD
ENDBRANCH   4  11
BRANCH   1  18
ATOM     18  O   UNL     1      38.842 -23.886 -14.618  0.00  0.00    -0.476 OA
BRANCH  18  19
ATOM     19  C   UNL     1      39.284 -25.226 -14.823  0.00  0.00    +0.195 C 
ATOM     20  C   UNL     1      40.761 -25.317 -14.471  0.00  0.00    +0.050 C 
BRANCH  19  21
ATOM     21  C   UNL     1      38.444 -26.146 -13.944  0.00  0.00    +0.185 C 
BRANCH  21  22
ATOM     22  O   UNL     1      38.045 -27.279 -14.709  0.00  0.00    -0.347 OA
ATOM     23  C   UNL     1      36.840 -27.028 -15.416  0.00  0.00    +0.174 C 
ENDBRANCH  21  22
ENDBRANCH  19  21
ENDBRANCH  18  19
ENDBRANCH   1  18
BRANCH   2  24
ATOM     24  O   UNL     1      34.268 -23.858 -13.190  0.00  0.00    -0.438 OA
BRANCH  24  30
ATOM     25  N   UNL     1      31.379 -25.271 -14.857  0.00  0.00    -0.258 NA
ATOM     26  N   UNL     1      32.064 -23.122 -13.191  0.00  0.00    -0.233 NA
ATOM     27  C   UNL     1      30.466 -24.373 -14.440  0.00  0.00    +0.132 C 
ATOM     28  C   UNL     1      30.802 -23.316 -13.622  0.00  0.00    +0.178 C 
ATOM     29  C   UNL     1      32.642 -25.077 -14.426  0.00  0.00    +0.210 C 
ATOM     30  C   UNL     1      32.978 -24.021 -13.608  0.00  0.00    +0.226 C 
BRANCH  27  36
ATOM     31  O   UNL     1      28.386 -25.407 -14.329  0.00  0.00    -0.269 OA
ATOM     32  N   UNL     1      28.655 -23.794 -15.949  0.00  0.00    -0.275 N 
ATOM     33  C   UNL     1      27.773 -22.341 -17.086  0.00  0.00    +0.043 C 
ATOM     34  C   UNL     1      29.215 -22.678 -16.687  0.00  0.00    +0.096 C 
ATOM     35  C   UNL     1      27.364 -23.739 -16.610  0.00  0.00    +0.096 C 
ATOM     36  C   UNL     1      29.080 -24.574 -14.906  0.00  0.00    +0.264 C 
ENDBRANCH  27  36
ENDBRANCH  24  30
ENDBRANCH   2  24
TORSDOF 8
ENDMDL
