MODEL 1
REMARK VINA RESULT:      -9.2      0.000      0.000
REMARK  Name = 33309
REMARK  4 active torsions:
REMARK  status: ('A' for Active; 'I' for Inactive)
REMARK    1  A    between atoms: C_6  and  N_18
REMARK    2  A    between atoms: C_7  and  C_14
REMARK    3  A    between atoms: C_19  and  O_21
REMARK    4  A    between atoms: O_21  and  C_22
REMARK                            x       y       z     vdW  Elec       q    Type
REMARK                         _______ _______ _______ _____ _____    ______ ____
ROOT
ATOM      1  N   UNL     1      34.994 -17.608 -20.816  0.00  0.00    -0.314 N 
ATOM      2  N   UNL     1      34.997 -18.966 -22.575  0.00  0.00    -0.314 N 
ATOM      3  C   UNL     1      34.790 -16.798 -21.904  0.00  0.00    +0.061 C 
ATOM      4  C   UNL     1      34.798 -17.669 -22.989  0.00  0.00    +0.059 C 
ATOM      5  C   UNL     1      34.607 -15.420 -22.027  0.00  0.00    +0.030 C 
ATOM      6  C   UNL     1      34.424 -14.923 -23.322  0.00  0.00    +0.054 C 
ATOM      7  C   UNL     1      35.111 -18.892 -21.268  0.00  0.00    +0.182 C 
ATOM      8  C   UNL     1      34.612 -17.152 -24.283  0.00  0.00    +0.017 C 
ATOM      9  C   UNL     1      34.426 -15.772 -24.431  0.00  0.00    +0.016 C 
ATOM     10  H   UNL     1      35.044 -17.316 -19.877  0.00  0.00    +0.149 HD
ATOM     11  H   UNL     1      35.045 -19.773 -23.137  0.00  0.00    +0.149 HD
ENDROOT
BRANCH   7  14
ATOM     12  S   UNL     1      34.957 -22.148 -19.010  0.00  0.00    -0.108 S 
ATOM     13  N   UNL     1      36.585 -20.330 -19.863  0.00  0.00    -0.263 NA
ATOM     14  C   UNL     1      35.338 -20.054 -20.388  0.00  0.00    +0.080 C 
ATOM     15  C   UNL     1      34.329 -20.926 -20.038  0.00  0.00    +0.104 C 
ATOM     16  C   UNL     1      36.503 -21.413 -19.121  0.00  0.00    +0.183 C 
ENDBRANCH   7  14
BRANCH   6  18
ATOM     17  O   UNL     1      31.994 -13.204 -22.910  0.00  0.00    -0.226 OA
ATOM     18  N   UNL     1      34.235 -13.552 -23.507  0.00  0.00    -0.250 N 
ATOM     19  C   UNL     1      33.082 -12.800 -23.300  0.00  0.00    +0.405 C 
ATOM     20  H   UNL     1      35.021 -13.051 -23.826  0.00  0.00    +0.158 HD
BRANCH  19  21
ATOM     21  O   UNL     1      33.338 -11.489 -23.606  0.00  0.00    -0.438 OA
BRANCH  21  22
ATOM     22  C   UNL     1      34.392 -11.257 -24.548  0.00  0.00    +0.171 C 
ATOM     23  C   UNL     1      33.903 -11.608 -25.944  0.00  0.00    +0.047 C 
ATOM     24  C   UNL     1      34.840  -9.808 -24.452  0.00  0.00    +0.047 C 
ENDBRANCH  21  22
ENDBRANCH  19  21
ENDBRANCH   6  18
TORSDOF 4
ENDMDL
MODEL 2
REMARK VINA RESULT:      -9.1      4.382      6.968
REMARK  Name = 33309
REMARK  4 active torsions:
REMARK  status: ('A' for Active; 'I' for Inactive)
REMARK    1  A    between atoms: C_6  and  N_18
REMARK    2  A    between atoms: C_7  and  C_14
REMARK    3  A    between atoms: C_19  and  O_21
REMARK    4  A    between atoms: O_21  and  C_22
REMARK                            x       y       z     vdW  Elec       q    Type
REMARK                         _______ _______ _______ _____ _____    ______ ____
ROOT
ATOM      1  N   UNL     1      32.365 -22.376 -18.113  0.00  0.00    -0.314 N 
ATOM      2  N   UNL     1      34.040 -23.089 -16.839  0.00  0.00    -0.314 N 
ATOM      3  C   UNL     1      33.506 -21.920 -18.720  0.00  0.00    +0.061 C 
ATOM      4  C   UNL     1      34.538 -22.377 -17.905  0.00  0.00    +0.059 C 
ATOM      5  C   UNL     1      33.718 -21.168 -19.876  0.00  0.00    +0.030 C 
ATOM      6  C   UNL     1      35.047 -20.878 -20.204  0.00  0.00    +0.054 C 
ATOM      7  C   UNL     1      32.735 -23.068 -16.994  0.00  0.00    +0.182 C 
ATOM      8  C   UNL     1      35.867 -22.076 -18.249  0.00  0.00    +0.017 C 
ATOM      9  C   UNL     1      36.104 -21.323 -19.406  0.00  0.00    +0.016 C 
ATOM     10  H   UNL     1      31.443 -22.232 -18.428  0.00  0.00    +0.149 HD
ATOM     11  H   UNL     1      34.550 -23.520 -16.115  0.00  0.00    +0.149 HD
ENDROOT
BRANCH   7  14
ATOM     12  S   UNL     1      29.627 -24.570 -15.044  0.00  0.00    -0.108 S 
ATOM     13  N   UNL     1      32.197 -24.329 -14.912  0.00  0.00    -0.263 NA
ATOM     14  C   UNL     1      31.779 -23.714 -16.075  0.00  0.00    +0.080 C 
ATOM     15  C   UNL     1      30.421 -23.741 -16.318  0.00  0.00    +0.104 C 
ATOM     16  C   UNL     1      31.147 -24.817 -14.289  0.00  0.00    +0.183 C 
ENDBRANCH   7  14
BRANCH   6  18
ATOM     17  O   UNL     1      35.676 -17.958 -20.538  0.00  0.00    -0.226 OA
ATOM     18  N   UNL     1      35.321 -20.129 -21.350  0.00  0.00    -0.250 N 
ATOM     19  C   UNL     1      35.608 -18.771 -21.452  0.00  0.00    +0.405 C 
ATOM     20  H   UNL     1      35.308 -20.629 -22.200  0.00  0.00    +0.158 HD
BRANCH  19  21
ATOM     21  O   UNL     1      35.811 -18.450 -22.768  0.00  0.00    -0.438 OA
BRANCH  21  22
ATOM     22  C   UNL     1      34.690 -17.886 -23.458  0.00  0.00    +0.171 C 
ATOM     23  C   UNL     1      34.945 -16.408 -23.704  0.00  0.00    +0.047 C 
ATOM     24  C   UNL     1      34.467 -18.646 -24.756  0.00  0.00    +0.047 C 
ENDBRANCH  21  22
ENDBRANCH  19  21
ENDBRANCH   6  18
TORSDOF 4
ENDMDL
MODEL 3
REMARK VINA RESULT:      -9.1      3.950      6.744
REMARK  Name = 33309
REMARK  4 active torsions:
REMARK  status: ('A' for Active; 'I' for Inactive)
REMARK    1  A    between atoms: C_6  and  N_18
REMARK    2  A    between atoms: C_7  and  C_14
REMARK    3  A    between atoms: C_19  and  O_21
REMARK    4  A    between atoms: O_21  and  C_22
REMARK                            x       y       z     vdW  Elec       q    Type
REMARK                         _______ _______ _______ _____ _____    ______ ____
ROOT
ATOM      1  N   UNL     1      36.833 -22.259 -17.192  0.00  0.00    -0.314 N 
ATOM      2  N   UNL     1      34.778 -22.995 -16.778  0.00  0.00    -0.314 N 
ATOM      3  C   UNL     1      36.063 -21.795 -18.227  0.00  0.00    +0.061 C 
ATOM      4  C   UNL     1      34.785 -22.269 -17.946  0.00  0.00    +0.059 C 
ATOM      5  C   UNL     1      36.366 -21.027 -19.352  0.00  0.00    +0.030 C 
ATOM      6  C   UNL     1      35.307 -20.735 -20.219  0.00  0.00    +0.054 C 
ATOM      7  C   UNL     1      36.021 -22.969 -16.353  0.00  0.00    +0.182 C 
ATOM      8  C   UNL     1      33.733 -21.966 -18.828  0.00  0.00    +0.017 C 
ATOM      9  C   UNL     1      34.014 -21.196 -19.964  0.00  0.00    +0.016 C 
ATOM     10  H   UNL     1      37.799 -22.106 -17.074  0.00  0.00    +0.149 HD
ATOM     11  H   UNL     1      34.008 -23.439 -16.353  0.00  0.00    +0.149 HD
ENDROOT
BRANCH   7  14
ATOM     12  S   UNL     1      36.753 -25.283 -13.218  0.00  0.00    -0.108 S 
ATOM     13  N   UNL     1      37.482 -23.069 -14.335  0.00  0.00    -0.263 NA
ATOM     14  C   UNL     1      36.491 -23.626 -15.119  0.00  0.00    +0.080 C 
ATOM     15  C   UNL     1      35.973 -24.825 -14.675  0.00  0.00    +0.104 C 
ATOM     16  C   UNL     1      37.702 -23.857 -13.306  0.00  0.00    +0.183 C 
ENDBRANCH   7  14
BRANCH   6  18
ATOM     17  O   UNL     1      35.528 -17.759 -20.574  0.00  0.00    -0.226 OA
ATOM     18  N   UNL     1      35.550 -19.969 -21.360  0.00  0.00    -0.250 N 
ATOM     19  C   UNL     1      35.644 -18.584 -21.471  0.00  0.00    +0.405 C 
ATOM     20  H   UNL     1      35.672 -20.474 -22.197  0.00  0.00    +0.158 HD
BRANCH  19  21
ATOM     21  O   UNL     1      35.892 -18.252 -22.778  0.00  0.00    -0.438 OA
BRANCH  21  22
ATOM     22  C   UNL     1      34.762 -17.813 -23.540  0.00  0.00    +0.171 C 
ATOM     23  C   UNL     1      34.979 -16.372 -23.974  0.00  0.00    +0.047 C 
ATOM     24  C   UNL     1      34.569 -18.740 -24.730  0.00  0.00    +0.047 C 
ENDBRANCH  21  22
ENDBRANCH  19  21
ENDBRANCH   6  18
TORSDOF 4
ENDMDL
MODEL 4
REMARK VINA RESULT:      -9.1      5.216      9.423
REMARK  Name = 33309
REMARK  4 active torsions:
REMARK  status: ('A' for Active; 'I' for Inactive)
REMARK    1  A    between atoms: C_6  and  N_18
REMARK    2  A    between atoms: C_7  and  C_14
REMARK    3  A    between atoms: C_19  and  O_21
REMARK    4  A    between atoms: O_21  and  C_22
REMARK                            x       y       z     vdW  Elec       q    Type
REMARK                         _______ _______ _______ _____ _____    ______ ____
ROOT
ATOM      1  N   UNL     1      33.403 -19.240 -21.365  0.00  0.00    -0.314 N 
ATOM      2  N   UNL     1      35.606 -19.513 -21.472  0.00  0.00    -0.314 N 
ATOM      3  C   UNL     1      33.690 -20.248 -20.481  0.00  0.00    +0.061 C 
ATOM      4  C   UNL     1      35.071 -20.400 -20.566  0.00  0.00    +0.059 C 
ATOM      5  C   UNL     1      32.885 -21.016 -19.640  0.00  0.00    +0.030 C 
ATOM      6  C   UNL     1      33.531 -21.979 -18.856  0.00  0.00    +0.054 C 
ATOM      7  C   UNL     1      34.578 -18.835 -21.932  0.00  0.00    +0.182 C 
ATOM      8  C   UNL     1      35.704 -21.371 -19.772  0.00  0.00    +0.017 C 
ATOM      9  C   UNL     1      34.915 -22.155 -18.920  0.00  0.00    +0.016 C 
ATOM     10  H   UNL     1      32.509 -18.874 -21.557  0.00  0.00    +0.149 HD
ATOM     11  H   UNL     1      36.553 -19.410 -21.722  0.00  0.00    +0.149 HD
ENDROOT
BRANCH   7  14
ATOM     12  S   UNL     1      34.766 -16.535 -25.156  0.00  0.00    -0.108 S 
ATOM     13  N   UNL     1      34.831 -16.439 -22.574  0.00  0.00    -0.263 NA
ATOM     14  C   UNL     1      34.676 -17.762 -22.939  0.00  0.00    +0.080 C 
ATOM     15  C   UNL     1      34.620 -18.011 -24.295  0.00  0.00    +0.104 C 
ATOM     16  C   UNL     1      34.890 -15.702 -23.661  0.00  0.00    +0.183 C 
ENDBRANCH   7  14
BRANCH   6  18
ATOM     17  O   UNL     1      34.160 -23.052 -16.121  0.00  0.00    -0.226 OA
ATOM     18  N   UNL     1      32.776 -22.777 -17.994  0.00  0.00    -0.250 N 
ATOM     19  C   UNL     1      33.116 -23.249 -16.730  0.00  0.00    +0.405 C 
ATOM     20  H   UNL     1      31.886 -23.041 -18.325  0.00  0.00    +0.158 HD
BRANCH  19  21
ATOM     21  O   UNL     1      32.081 -23.999 -16.235  0.00  0.00    -0.438 OA
BRANCH  21  22
ATOM     22  C   UNL     1      30.891 -23.280 -15.891  0.00  0.00    +0.171 C 
ATOM     23  C   UNL     1      29.697 -24.217 -15.976  0.00  0.00    +0.047 C 
ATOM     24  C   UNL     1      31.049 -22.686 -14.501  0.00  0.00    +0.047 C 
ENDBRANCH  21  22
ENDBRANCH  19  21
ENDBRANCH   6  18
TORSDOF 4
ENDMDL
MODEL 5
REMARK VINA RESULT:      -8.9      4.644      9.101
REMARK  Name = 33309
REMARK  4 active torsions:
REMARK  status: ('A' for Active; 'I' for Inactive)
REMARK    1  A    between atoms: C_6  and  N_18
REMARK    2  A    between atoms: C_7  and  C_14
REMARK    3  A    between atoms: C_19  and  O_21
REMARK    4  A    between atoms: O_21  and  C_22
REMARK                            x       y       z     vdW  Elec       q    Type
REMARK                         _______ _______ _______ _____ _____    ______ ____
ROOT
ATOM      1  N   UNL     1      33.895 -18.729 -21.871  0.00  0.00    -0.314 N 
ATOM      2  N   UNL     1      36.013 -18.100 -22.110  0.00  0.00    -0.314 N 
ATOM      3  C   UNL     1      34.616 -19.550 -21.043  0.00  0.00    +0.061 C 
ATOM      4  C   UNL     1      35.935 -19.138 -21.211  0.00  0.00    +0.059 C 
ATOM      5  C   UNL     1      34.239 -20.586 -20.188  0.00  0.00    +0.030 C 
ATOM      6  C   UNL     1      35.264 -21.222 -19.479  0.00  0.00    +0.054 C 
ATOM      7  C   UNL     1      34.773 -17.881 -22.487  0.00  0.00    +0.182 C 
ATOM      8  C   UNL     1      36.952 -19.787 -20.490  0.00  0.00    +0.017 C 
ATOM      9  C   UNL     1      36.597 -20.831 -19.626  0.00  0.00    +0.016 C 
ATOM     10  H   UNL     1      32.919 -18.747 -21.999  0.00  0.00    +0.149 HD
ATOM     11  H   UNL     1      36.822 -17.625 -22.408  0.00  0.00    +0.149 HD
ENDROOT
BRANCH   7  14
ATOM     12  S   UNL     1      33.574 -14.656 -24.456  0.00  0.00    -0.108 S 
ATOM     13  N   UNL     1      34.378 -17.086 -24.816  0.00  0.00    -0.263 NA
ATOM     14  C   UNL     1      34.370 -16.846 -23.456  0.00  0.00    +0.080 C 
ATOM     15  C   UNL     1      33.964 -15.586 -23.068  0.00  0.00    +0.104 C 
ATOM     16  C   UNL     1      33.978 -16.001 -25.441  0.00  0.00    +0.183 C 
ENDBRANCH   7  14
BRANCH   6  18
ATOM     17  O   UNL     1      32.602 -22.288 -18.581  0.00  0.00    -0.226 OA
ATOM     18  N   UNL     1      34.947 -22.266 -18.608  0.00  0.00    -0.250 N 
ATOM     19  C   UNL     1      33.689 -22.722 -18.223  0.00  0.00    +0.405 C 
ATOM     20  H   UNL     1      35.714 -22.741 -18.213  0.00  0.00    +0.158 HD
BRANCH  19  21
ATOM     21  O   UNL     1      33.837 -23.768 -17.350  0.00  0.00    -0.438 OA
BRANCH  21  22
ATOM     22  C   UNL     1      34.043 -23.417 -15.977  0.00  0.00    +0.171 C 
ATOM     23  C   UNL     1      32.706 -23.414 -15.254  0.00  0.00    +0.047 C 
ATOM     24  C   UNL     1      35.024 -24.396 -15.351  0.00  0.00    +0.047 C 
ENDBRANCH  21  22
ENDBRANCH  19  21
ENDBRANCH   6  18
TORSDOF 4
ENDMDL
MODEL 6
REMARK VINA RESULT:      -8.8      3.952      8.211
REMARK  Name = 33309
REMARK  4 active torsions:
REMARK  status: ('A' for Active; 'I' for Inactive)
REMARK    1  A    between atoms: C_6  and  N_18
REMARK    2  A    between atoms: C_7  and  C_14
REMARK    3  A    between atoms: C_19  and  O_21
REMARK    4  A    between atoms: O_21  and  C_22
REMARK                            x       y       z     vdW  Elec       q    Type
REMARK                         _______ _______ _______ _____ _____    ______ ____
ROOT
ATOM      1  N   UNL     1      33.902 -14.275 -22.146  0.00  0.00    -0.314 N 
ATOM      2  N   UNL     1      33.729 -14.263 -24.362  0.00  0.00    -0.314 N 
ATOM      3  C   UNL     1      34.266 -15.535 -22.549  0.00  0.00    +0.061 C 
ATOM      4  C   UNL     1      34.149 -15.502 -23.935  0.00  0.00    +0.059 C 
ATOM      5  C   UNL     1      34.674 -16.665 -21.840  0.00  0.00    +0.030 C 
ATOM      6  C   UNL     1      34.974 -17.806 -22.592  0.00  0.00    +0.054 C 
ATOM      7  C   UNL     1      33.590 -13.554 -23.264  0.00  0.00    +0.182 C 
ATOM      8  C   UNL     1      34.454 -16.657 -24.675  0.00  0.00    +0.017 C 
ATOM      9  C   UNL     1      34.866 -17.804 -23.984  0.00  0.00    +0.016 C 
ATOM     10  H   UNL     1      33.872 -13.949 -21.217  0.00  0.00    +0.149 HD
ATOM     11  H   UNL     1      33.567 -13.972 -25.288  0.00  0.00    +0.149 HD
ENDROOT
BRANCH   7  14
ATOM     12  S   UNL     1      31.898 -10.021 -22.652  0.00  0.00    -0.108 S 
ATOM     13  N   UNL     1      33.744 -11.188 -24.034  0.00  0.00    -0.263 NA
ATOM     14  C   UNL     1      33.152 -12.146 -23.236  0.00  0.00    +0.080 C 
ATOM     15  C   UNL     1      32.132 -11.704 -22.419  0.00  0.00    +0.104 C 
ATOM     16  C   UNL     1      33.164 -10.030 -23.810  0.00  0.00    +0.183 C 
ENDBRANCH   7  14
BRANCH   6  18
ATOM     17  O   UNL     1      33.451 -19.733 -20.861  0.00  0.00    -0.226 OA
ATOM     18  N   UNL     1      35.389 -18.967 -21.937  0.00  0.00    -0.250 N 
ATOM     19  C   UNL     1      34.639 -19.829 -21.143  0.00  0.00    +0.405 C 
ATOM     20  H   UNL     1      36.337 -19.207 -22.052  0.00  0.00    +0.158 HD
BRANCH  19  21
ATOM     21  O   UNL     1      35.443 -20.845 -20.697  0.00  0.00    -0.438 OA
BRANCH  21  22
ATOM     22  C   UNL     1      35.212 -21.286 -19.354  0.00  0.00    +0.171 C 
ATOM     23  C   UNL     1      34.368 -22.550 -19.379  0.00  0.00    +0.047 C 
ATOM     24  C   UNL     1      36.548 -21.511 -18.664  0.00  0.00    +0.047 C 
ENDBRANCH  21  22
ENDBRANCH  19  21
ENDBRANCH   6  18
TORSDOF 4
ENDMDL
MODEL 7
REMARK VINA RESULT:      -8.8      3.763      5.974
REMARK  Name = 33309
REMARK  4 active torsions:
REMARK  status: ('A' for Active; 'I' for Inactive)
REMARK    1  A    between atoms: C_6  and  N_18
REMARK    2  A    between atoms: C_7  and  C_14
REMARK    3  A    between atoms: C_19  and  O_21
REMARK    4  A    between atoms: O_21  and  C_22
REMARK                            x       y       z     vdW  Elec       q    Type
REMARK                         _______ _______ _______ _____ _____    ______ ____
ROOT
ATOM      1  N   UNL     1      33.991 -13.154 -24.011  0.00  0.00    -0.314 N 
ATOM      2  N   UNL     1      32.603 -14.106 -22.561  0.00  0.00    -0.314 N 
ATOM      3  C   UNL     1      33.265 -12.124 -23.469  0.00  0.00    +0.061 C 
ATOM      4  C   UNL     1      32.405 -12.744 -22.568  0.00  0.00    +0.059 C 
ATOM      5  C   UNL     1      33.286 -10.746 -23.684  0.00  0.00    +0.030 C 
ATOM      6  C   UNL     1      32.385  -9.979 -22.940  0.00  0.00    +0.054 C 
ATOM      7  C   UNL     1      33.559 -14.316 -23.438  0.00  0.00    +0.182 C 
ATOM      8  C   UNL     1      31.506 -11.959 -21.827  0.00  0.00    +0.017 C 
ATOM      9  C   UNL     1      31.510 -10.572 -22.027  0.00  0.00    +0.016 C 
ATOM     10  H   UNL     1      34.698 -13.070 -24.692  0.00  0.00    +0.149 HD
ATOM     11  H   UNL     1      32.129 -14.777 -22.018  0.00  0.00    +0.149 HD
ENDROOT
BRANCH   7  14
ATOM     12  S   UNL     1      35.229 -17.910 -23.565  0.00  0.00    -0.108 S 
ATOM     13  N   UNL     1      34.028 -16.164 -25.045  0.00  0.00    -0.263 NA
ATOM     14  C   UNL     1      34.106 -15.646 -23.767  0.00  0.00    +0.080 C 
ATOM     15  C   UNL     1      34.722 -16.447 -22.828  0.00  0.00    +0.104 C 
ATOM     16  C   UNL     1      34.588 -17.353 -25.056  0.00  0.00    +0.183 C 
ENDBRANCH   7  14
BRANCH   6  18
ATOM     17  O   UNL     1      33.101  -7.754 -21.051  0.00  0.00    -0.226 OA
ATOM     18  N   UNL     1      32.361  -8.593 -23.112  0.00  0.00    -0.250 N 
ATOM     19  C   UNL     1      32.705  -7.600 -22.200  0.00  0.00    +0.405 C 
ATOM     20  H   UNL     1      32.061  -8.278 -23.996  0.00  0.00    +0.158 HD
BRANCH  19  21
ATOM     21  O   UNL     1      32.533  -6.372 -22.783  0.00  0.00    -0.438 OA
BRANCH  21  22
ATOM     22  C   UNL     1      31.188  -6.025 -23.131  0.00  0.00    +0.171 C 
ATOM     23  C   UNL     1      30.527  -5.334 -21.949  0.00  0.00    +0.047 C 
ATOM     24  C   UNL     1      31.202  -5.140 -24.368  0.00  0.00    +0.047 C 
ENDBRANCH  21  22
ENDBRANCH  19  21
ENDBRANCH   6  18
TORSDOF 4
ENDMDL
MODEL 8
REMARK VINA RESULT:      -8.8     10.434     11.412
REMARK  Name = 33309
REMARK  4 active torsions:
REMARK  status: ('A' for Active; 'I' for Inactive)
REMARK    1  A    between atoms: C_6  and  N_18
REMARK    2  A    between atoms: C_7  and  C_14
REMARK    3  A    between atoms: C_19  and  O_21
REMARK    4  A    between atoms: O_21  and  C_22
REMARK                            x       y       z     vdW  Elec       q    Type
REMARK                         _______ _______ _______ _____ _____    ______ ____
ROOT
ATOM      1  N   UNL     1      33.973 -23.844 -15.705  0.00  0.00    -0.314 N 
ATOM      2  N   UNL     1      33.521 -24.526 -13.639  0.00  0.00    -0.314 N 
ATOM      3  C   UNL     1      32.618 -23.689 -15.557  0.00  0.00    +0.061 C 
ATOM      4  C   UNL     1      32.361 -24.123 -14.260  0.00  0.00    +0.059 C 
ATOM      5  C   UNL     1      31.627 -23.223 -16.421  0.00  0.00    +0.030 C 
ATOM      6  C   UNL     1      30.319 -23.203 -15.925  0.00  0.00    +0.054 C 
ATOM      7  C   UNL     1      34.466 -24.346 -14.534  0.00  0.00    +0.182 C 
ATOM      8  C   UNL     1      31.041 -24.096 -13.778  0.00  0.00    +0.017 C 
ATOM      9  C   UNL     1      30.029 -23.631 -14.628  0.00  0.00    +0.016 C 
ATOM     10  H   UNL     1      34.496 -23.629 -16.511  0.00  0.00    +0.149 HD
ATOM     11  H   UNL     1      33.620 -24.875 -12.724  0.00  0.00    +0.149 HD
ENDROOT
BRANCH   7  14
ATOM     12  S   UNL     1      38.188 -25.711 -14.465  0.00  0.00    -0.108 S 
ATOM     13  N   UNL     1      36.646 -23.934 -13.396  0.00  0.00    -0.263 NA
ATOM     14  C   UNL     1      35.892 -24.647 -14.307  0.00  0.00    +0.080 C 
ATOM     15  C   UNL     1      36.554 -25.651 -14.983  0.00  0.00    +0.104 C 
ATOM     16  C   UNL     1      37.872 -24.408 -13.396  0.00  0.00    +0.183 C 
ENDBRANCH   7  14
BRANCH   6  18
ATOM     17  O   UNL     1      27.997 -24.661 -17.154  0.00  0.00    -0.226 OA
ATOM     18  N   UNL     1      29.285 -22.745 -16.744  0.00  0.00    -0.250 N 
ATOM     19  C   UNL     1      28.227 -23.466 -17.290  0.00  0.00    +0.405 C 
ATOM     20  H   UNL     1      29.307 -21.785 -16.964  0.00  0.00    +0.158 HD
BRANCH  19  21
ATOM     21  O   UNL     1      27.443 -22.624 -18.033  0.00  0.00    -0.438 OA
BRANCH  21  22
ATOM     22  C   UNL     1      26.838 -21.537 -17.324  0.00  0.00    +0.171 C 
ATOM     23  C   UNL     1      25.758 -20.911 -18.191  0.00  0.00    +0.047 C 
ATOM     24  C   UNL     1      26.281 -22.048 -16.005  0.00  0.00    +0.047 C 
ENDBRANCH  21  22
ENDBRANCH  19  21
ENDBRANCH   6  18
TORSDOF 4
ENDMDL
MODEL 9
REMARK VINA RESULT:      -8.8      1.667      1.896
REMARK  Name = 33309
REMARK  4 active torsions:
REMARK  status: ('A' for Active; 'I' for Inactive)
REMARK    1  A    between atoms: C_6  and  N_18
REMARK    2  A    between atoms: C_7  and  C_14
REMARK    3  A    between atoms: C_19  and  O_21
REMARK    4  A    between atoms: O_21  and  C_22
REMARK                            x       y       z     vdW  Elec       q    Type
REMARK                         _______ _______ _______ _____ _____    ______ ____
ROOT
ATOM      1  N   UNL     1      34.905 -16.752 -21.103  0.00  0.00    -0.314 N 
ATOM      2  N   UNL     1      34.693 -17.984 -22.940  0.00  0.00    -0.314 N 
ATOM      3  C   UNL     1      34.564 -15.871 -22.097  0.00  0.00    +0.061 C 
ATOM      4  C   UNL     1      34.438 -16.664 -23.234  0.00  0.00    +0.059 C 
ATOM      5  C   UNL     1      34.362 -14.490 -22.099  0.00  0.00    +0.030 C 
ATOM      6  C   UNL     1      34.016 -13.906 -23.322  0.00  0.00    +0.054 C 
ATOM      7  C   UNL     1      34.970 -18.000 -21.656  0.00  0.00    +0.182 C 
ATOM      8  C   UNL     1      34.089 -16.061 -24.454  0.00  0.00    +0.017 C 
ATOM      9  C   UNL     1      33.881 -14.676 -24.480  0.00  0.00    +0.016 C 
ATOM     10  H   UNL     1      35.073 -16.525 -20.160  0.00  0.00    +0.149 HD
ATOM     11  H   UNL     1      34.673 -18.750 -23.559  0.00  0.00    +0.149 HD
ENDROOT
BRANCH   7  14
ATOM     12  S   UNL     1      35.118 -21.428 -19.670  0.00  0.00    -0.108 S 
ATOM     13  N   UNL     1      36.605 -19.481 -20.495  0.00  0.00    -0.263 NA
ATOM     14  C   UNL     1      35.310 -19.217 -20.895  0.00  0.00    +0.080 C 
ATOM     15  C   UNL     1      34.365 -20.157 -20.540  0.00  0.00    +0.104 C 
ATOM     16  C   UNL     1      36.623 -20.622 -19.841  0.00  0.00    +0.183 C 
ENDBRANCH   7  14
BRANCH   6  18
ATOM     17  O   UNL     1      31.702 -12.237 -22.377  0.00  0.00    -0.226 OA
ATOM     18  N   UNL     1      33.800 -12.528 -23.385  0.00  0.00    -0.250 N 
ATOM     19  C   UNL     1      32.705 -11.800 -22.929  0.00  0.00    +0.405 C 
ATOM     20  H   UNL     1      34.518 -12.002 -23.807  0.00  0.00    +0.158 HD
BRANCH  19  21
ATOM     21  O   UNL     1      32.905 -10.471 -23.194  0.00  0.00    -0.438 OA
BRANCH  21  22
ATOM     22  C   UNL     1      31.900  -9.575 -22.706  0.00  0.00    +0.171 C 
ATOM     23  C   UNL     1      32.337  -9.016 -21.362  0.00  0.00    +0.047 C 
ATOM     24  C   UNL     1      31.670  -8.474 -23.730  0.00  0.00    +0.047 C 
ENDBRANCH  21  22
ENDBRANCH  19  21
ENDBRANCH   6  18
TORSDOF 4
ENDMDL
