MODEL 1
REMARK VINA RESULT:     -11.1      0.000      0.000
REMARK  Name = 11197931
REMARK  3 active torsions:
REMARK  status: ('A' for Active; 'I' for Inactive)
REMARK    1  A    between atoms: C_9  and  C_16
REMARK    2  A    between atoms: C_14  and  O_24
REMARK    3  A    between atoms: C_21  and  O_22
REMARK                            x       y       z     vdW  Elec       q    Type
REMARK                         _______ _______ _______ _____ _____    ______ ____
ROOT
ATOM      1  F   UNL     1      33.136 -19.280 -25.749  0.00  0.00    -0.204 F 
ATOM      2  F   UNL     1      35.218 -19.826 -25.411  0.00  0.00    -0.204 F 
ATOM      3  O   UNL     1      33.775 -17.631 -21.006  0.00  0.00    -0.475 OA
ATOM      4  C   UNL     1      35.074 -18.707 -22.789  0.00  0.00    +0.054 C 
ATOM      5  C   UNL     1      35.230 -17.366 -23.543  0.00  0.00    +0.035 C 
ATOM      6  C   UNL     1      33.908 -19.397 -23.509  0.00  0.00    +0.071 C 
ATOM      7  C   UNL     1      34.610 -17.603 -24.940  0.00  0.00    +0.071 C 
ATOM      8  C   UNL     1      34.198 -19.062 -24.954  0.00  0.00    +0.264 C 
ATOM      9  C   UNL     1      34.888 -18.491 -21.284  0.00  0.00    +0.188 C 
ATOM     10  C   UNL     1      34.568 -16.214 -22.821  0.00  0.00    +0.015 C 
ATOM     11  C   UNL     1      33.874 -16.409 -21.620  0.00  0.00    +0.135 C 
ATOM     12  C   UNL     1      34.633 -14.919 -23.358  0.00  0.00    +0.035 C 
ATOM     13  C   UNL     1      33.212 -15.347 -21.000  0.00  0.00    +0.040 C 
ATOM     14  C   UNL     1      33.989 -13.854 -22.726  0.00  0.00    +0.134 C 
ATOM     15  C   UNL     1      33.272 -14.069 -21.553  0.00  0.00    +0.040 C 
ENDROOT
BRANCH   9  16
ATOM     16  C   UNL     1      34.735 -19.800 -20.531  0.00  0.00    +0.017 C 
ATOM     17  C   UNL     1      33.463 -20.269 -20.204  0.00  0.00    +0.002 C 
ATOM     18  C   UNL     1      35.866 -20.530 -20.167  0.00  0.00    +0.002 C 
ATOM     19  C   UNL     1      33.322 -21.471 -19.511  0.00  0.00    +0.036 C 
ATOM     20  C   UNL     1      35.724 -21.733 -19.475  0.00  0.00    +0.036 C 
ATOM     21  C   UNL     1      34.452 -22.203 -19.146  0.00  0.00    +0.134 C 
BRANCH  21  22
ATOM     22  O   UNL     1      34.315 -23.377 -18.470  0.00  0.00    -0.506 OA
ATOM     23  H   UNL     1      33.460 -23.710 -18.280  0.00  0.00    +0.292 HD
ENDBRANCH  21  22
ENDBRANCH   9  16
BRANCH  14  24
ATOM     24  O   UNL     1      34.056 -12.604 -23.264  0.00  0.00    -0.506 OA
ATOM     25  H   UNL     1      33.685 -12.437 -24.109  0.00  0.00    +0.292 HD
ENDBRANCH  14  24
TORSDOF 3
ENDMDL
MODEL 2
REMARK VINA RESULT:     -10.8      0.918      1.032
REMARK  Name = 11197931
REMARK  3 active torsions:
REMARK  status: ('A' for Active; 'I' for Inactive)
REMARK    1  A    between atoms: C_9  and  C_16
REMARK    2  A    between atoms: C_14  and  O_24
REMARK    3  A    between atoms: C_21  and  O_22
REMARK                            x       y       z     vdW  Elec       q    Type
REMARK                         _______ _______ _______ _____ _____    ______ ____
ROOT
ATOM      1  F   UNL     1      33.076 -18.444 -26.000  0.00  0.00    -0.204 F 
ATOM      2  F   UNL     1      35.236 -18.623 -25.773  0.00  0.00    -0.204 F 
ATOM      3  O   UNL     1      33.629 -17.023 -21.173  0.00  0.00    -0.475 OA
ATOM      4  C   UNL     1      35.015 -17.724 -23.074  0.00  0.00    +0.054 C 
ATOM      5  C   UNL     1      34.893 -16.331 -23.732  0.00  0.00    +0.035 C 
ATOM      6  C   UNL     1      33.960 -18.566 -23.802  0.00  0.00    +0.071 C 
ATOM      7  C   UNL     1      34.262 -16.583 -25.121  0.00  0.00    +0.071 C 
ATOM      8  C   UNL     1      34.117 -18.090 -25.228  0.00  0.00    +0.264 C 
ATOM      9  C   UNL     1      34.865 -17.646 -21.551  0.00  0.00    +0.188 C 
ATOM     10  C   UNL     1      34.070 -15.369 -22.905  0.00  0.00    +0.015 C 
ATOM     11  C   UNL     1      33.479 -15.766 -21.699  0.00  0.00    +0.135 C 
ATOM     12  C   UNL     1      33.876 -14.051 -23.347  0.00  0.00    +0.035 C 
ATOM     13  C   UNL     1      32.666 -14.886 -20.980  0.00  0.00    +0.040 C 
ATOM     14  C   UNL     1      33.082 -13.165 -22.618  0.00  0.00    +0.134 C 
ATOM     15  C   UNL     1      32.471 -13.585 -21.440  0.00  0.00    +0.040 C 
ENDROOT
BRANCH   9  16
ATOM     16  C   UNL     1      34.984 -19.008 -20.891  0.00  0.00    +0.017 C 
ATOM     17  C   UNL     1      33.834 -19.734 -20.584  0.00  0.00    +0.002 C 
ATOM     18  C   UNL     1      36.242 -19.529 -20.593  0.00  0.00    +0.002 C 
ATOM     19  C   UNL     1      33.943 -20.986 -19.977  0.00  0.00    +0.036 C 
ATOM     20  C   UNL     1      36.351 -20.780 -19.987  0.00  0.00    +0.036 C 
ATOM     21  C   UNL     1      35.201 -21.509 -19.678  0.00  0.00    +0.134 C 
BRANCH  21  22
ATOM     22  O   UNL     1      35.308 -22.730 -19.086  0.00  0.00    -0.506 OA
ATOM     23  H   UNL     1      34.645 -23.377 -19.225  0.00  0.00    +0.292 HD
ENDBRANCH  21  22
ENDBRANCH   9  16
BRANCH  14  24
ATOM     24  O   UNL     1      32.898 -11.892 -23.065  0.00  0.00    -0.506 OA
ATOM     25  H   UNL     1      32.184 -11.695 -23.638  0.00  0.00    +0.292 HD
ENDBRANCH  14  24
TORSDOF 3
ENDMDL
MODEL 3
REMARK VINA RESULT:      -9.6      3.078      5.021
REMARK  Name = 11197931
REMARK  3 active torsions:
REMARK  status: ('A' for Active; 'I' for Inactive)
REMARK    1  A    between atoms: C_9  and  C_16
REMARK    2  A    between atoms: C_14  and  O_24
REMARK    3  A    between atoms: C_21  and  O_22
REMARK                            x       y       z     vdW  Elec       q    Type
REMARK                         _______ _______ _______ _____ _____    ______ ____
ROOT
ATOM      1  F   UNL     1      32.053 -13.702 -27.245  0.00  0.00    -0.204 F 
ATOM      2  F   UNL     1      34.230 -13.753 -27.151  0.00  0.00    -0.204 F 
ATOM      3  O   UNL     1      32.770 -13.814 -22.234  0.00  0.00    -0.475 OA
ATOM      4  C   UNL     1      34.095 -13.763 -24.300  0.00  0.00    +0.054 C 
ATOM      5  C   UNL     1      33.835 -12.250 -24.482  0.00  0.00    +0.035 C 
ATOM      6  C   UNL     1      33.066 -14.425 -25.225  0.00  0.00    +0.071 C 
ATOM      7  C   UNL     1      33.146 -12.112 -25.859  0.00  0.00    +0.071 C 
ATOM      8  C   UNL     1      33.108 -13.516 -26.431  0.00  0.00    +0.264 C 
ATOM      9  C   UNL     1      34.025 -14.177 -22.827  0.00  0.00    +0.188 C 
ATOM     10  C   UNL     1      32.990 -11.671 -23.369  0.00  0.00    +0.015 C 
ATOM     11  C   UNL     1      32.498 -12.474 -22.332  0.00  0.00    +0.135 C 
ATOM     12  C   UNL     1      32.676 -10.302 -23.367  0.00  0.00    +0.035 C 
ATOM     13  C   UNL     1      31.665 -11.936 -21.349  0.00  0.00    +0.040 C 
ATOM     14  C   UNL     1      31.860  -9.761 -22.372  0.00  0.00    +0.134 C 
ATOM     15  C   UNL     1      31.349 -10.579 -21.369  0.00  0.00    +0.040 C 
ENDROOT
BRANCH   9  16
ATOM     16  C   UNL     1      34.281 -15.661 -22.634  0.00  0.00    +0.017 C 
ATOM     17  C   UNL     1      33.842 -16.297 -21.474  0.00  0.00    +0.002 C 
ATOM     18  C   UNL     1      34.956 -16.384 -23.617  0.00  0.00    +0.002 C 
ATOM     19  C   UNL     1      34.078 -17.660 -21.296  0.00  0.00    +0.036 C 
ATOM     20  C   UNL     1      35.191 -17.747 -23.440  0.00  0.00    +0.036 C 
ATOM     21  C   UNL     1      34.752 -18.385 -22.279  0.00  0.00    +0.134 C 
BRANCH  21  22
ATOM     22  O   UNL     1      34.983 -19.716 -22.106  0.00  0.00    -0.506 OA
ATOM     23  H   UNL     1      34.615 -20.163 -21.368  0.00  0.00    +0.292 HD
ENDBRANCH  21  22
ENDBRANCH   9  16
BRANCH  14  24
ATOM     24  O   UNL     1      31.558  -8.433 -22.389  0.00  0.00    -0.506 OA
ATOM     25  H   UNL     1      30.793  -8.121 -21.949  0.00  0.00    +0.292 HD
ENDBRANCH  14  24
TORSDOF 3
ENDMDL
MODEL 4
REMARK VINA RESULT:      -9.6      6.233      8.862
REMARK  Name = 11197931
REMARK  3 active torsions:
REMARK  status: ('A' for Active; 'I' for Inactive)
REMARK    1  A    between atoms: C_9  and  C_16
REMARK    2  A    between atoms: C_14  and  O_24
REMARK    3  A    between atoms: C_21  and  O_22
REMARK                            x       y       z     vdW  Elec       q    Type
REMARK                         _______ _______ _______ _____ _____    ______ ____
ROOT
ATOM      1  F   UNL     1      36.721 -26.071 -15.216  0.00  0.00    -0.204 F 
ATOM      2  F   UNL     1      36.150 -24.766 -13.566  0.00  0.00    -0.204 F 
ATOM      3  O   UNL     1      33.170 -23.240 -17.452  0.00  0.00    -0.475 OA
ATOM      4  C   UNL     1      34.286 -23.443 -15.274  0.00  0.00    +0.054 C 
ATOM      5  C   UNL     1      35.548 -22.726 -15.806  0.00  0.00    +0.035 C 
ATOM      6  C   UNL     1      34.646 -24.931 -15.363  0.00  0.00    +0.071 C 
ATOM      7  C   UNL     1      36.709 -23.728 -15.602  0.00  0.00    +0.071 C 
ATOM      8  C   UNL     1      36.088 -24.926 -14.910  0.00  0.00    +0.264 C 
ATOM      9  C   UNL     1      33.029 -23.019 -16.041  0.00  0.00    +0.188 C 
ATOM     10  C   UNL     1      35.411 -22.309 -17.253  0.00  0.00    +0.015 C 
ATOM     11  C   UNL     1      34.256 -22.598 -17.989  0.00  0.00    +0.135 C 
ATOM     12  C   UNL     1      36.460 -21.625 -17.888  0.00  0.00    +0.035 C 
ATOM     13  C   UNL     1      34.171 -22.265 -19.343  0.00  0.00    +0.040 C 
ATOM     14  C   UNL     1      36.367 -21.273 -19.235  0.00  0.00    +0.134 C 
ATOM     15  C   UNL     1      35.227 -21.600 -19.964  0.00  0.00    +0.040 C 
ENDROOT
BRANCH   9  16
ATOM     16  C   UNL     1      31.781 -23.714 -15.528  0.00  0.00    +0.017 C 
ATOM     17  C   UNL     1      30.660 -23.827 -16.350  0.00  0.00    +0.002 C 
ATOM     18  C   UNL     1      31.757 -24.237 -14.236  0.00  0.00    +0.002 C 
ATOM     19  C   UNL     1      29.513 -24.466 -15.879  0.00  0.00    +0.036 C 
ATOM     20  C   UNL     1      30.610 -24.876 -13.765  0.00  0.00    +0.036 C 
ATOM     21  C   UNL     1      29.488 -24.990 -14.586  0.00  0.00    +0.134 C 
BRANCH  21  22
ATOM     22  O   UNL     1      28.368 -25.613 -14.126  0.00  0.00    -0.506 OA
ATOM     23  H   UNL     1      28.250 -26.531 -14.273  0.00  0.00    +0.292 HD
ENDBRANCH  21  22
ENDBRANCH   9  16
BRANCH  14  24
ATOM     24  O   UNL     1      37.397 -20.617 -19.838  0.00  0.00    -0.506 OA
ATOM     25  H   UNL     1      37.951 -21.069 -20.443  0.00  0.00    +0.292 HD
ENDBRANCH  14  24
TORSDOF 3
ENDMDL
MODEL 5
REMARK VINA RESULT:      -9.4      5.138      9.335
REMARK  Name = 11197931
REMARK  3 active torsions:
REMARK  status: ('A' for Active; 'I' for Inactive)
REMARK    1  A    between atoms: C_9  and  C_16
REMARK    2  A    between atoms: C_14  and  O_24
REMARK    3  A    between atoms: C_21  and  O_22
REMARK                            x       y       z     vdW  Elec       q    Type
REMARK                         _______ _______ _______ _____ _____    ______ ____
ROOT
ATOM      1  F   UNL     1      35.445 -22.772 -13.720  0.00  0.00    -0.204 F 
ATOM      2  F   UNL     1      36.203 -24.161 -15.218  0.00  0.00    -0.204 F 
ATOM      3  O   UNL     1      31.949 -22.239 -17.343  0.00  0.00    -0.475 OA
ATOM      4  C   UNL     1      33.985 -23.537 -16.903  0.00  0.00    +0.054 C 
ATOM      5  C   UNL     1      33.223 -24.495 -15.959  0.00  0.00    +0.035 C 
ATOM      6  C   UNL     1      34.663 -22.546 -15.948  0.00  0.00    +0.071 C 
ATOM      7  C   UNL     1      33.946 -24.394 -14.595  0.00  0.00    +0.071 C 
ATOM      8  C   UNL     1      35.115 -23.456 -14.830  0.00  0.00    +0.264 C 
ATOM      9  C   UNL     1      33.056 -22.918 -17.952  0.00  0.00    +0.188 C 
ATOM     10  C   UNL     1      31.755 -24.149 -15.845  0.00  0.00    +0.015 C 
ATOM     11  C   UNL     1      31.211 -23.049 -16.519  0.00  0.00    +0.135 C 
ATOM     12  C   UNL     1      30.910 -24.933 -15.043  0.00  0.00    +0.035 C 
ATOM     13  C   UNL     1      29.868 -22.703 -16.351  0.00  0.00    +0.040 C 
ATOM     14  C   UNL     1      29.563 -24.600 -14.892  0.00  0.00    +0.134 C 
ATOM     15  C   UNL     1      29.044 -23.482 -15.539  0.00  0.00    +0.040 C 
ENDROOT
BRANCH   9  16
ATOM     16  C   UNL     1      33.793 -21.976 -18.887  0.00  0.00    +0.017 C 
ATOM     17  C   UNL     1      33.083 -21.017 -19.609  0.00  0.00    +0.002 C 
ATOM     18  C   UNL     1      35.177 -22.073 -19.023  0.00  0.00    +0.002 C 
ATOM     19  C   UNL     1      33.760 -20.152 -20.469  0.00  0.00    +0.036 C 
ATOM     20  C   UNL     1      35.854 -21.207 -19.883  0.00  0.00    +0.036 C 
ATOM     21  C   UNL     1      35.144 -20.247 -20.606  0.00  0.00    +0.134 C 
BRANCH  21  22
ATOM     22  O   UNL     1      35.805 -19.403 -21.445  0.00  0.00    -0.506 OA
ATOM     23  H   UNL     1      36.211 -18.629 -21.107  0.00  0.00    +0.292 HD
ENDBRANCH  21  22
ENDBRANCH   9  16
BRANCH  14  24
ATOM     24  O   UNL     1      28.758 -25.366 -14.104  0.00  0.00    -0.506 OA
ATOM     25  H   UNL     1      29.124 -25.844 -13.385  0.00  0.00    +0.292 HD
ENDBRANCH  14  24
TORSDOF 3
ENDMDL
MODEL 6
REMARK VINA RESULT:      -9.2      4.003      7.796
REMARK  Name = 11197931
REMARK  3 active torsions:
REMARK  status: ('A' for Active; 'I' for Inactive)
REMARK    1  A    between atoms: C_9  and  C_16
REMARK    2  A    between atoms: C_14  and  O_24
REMARK    3  A    between atoms: C_21  and  O_22
REMARK                            x       y       z     vdW  Elec       q    Type
REMARK                         _______ _______ _______ _____ _____    ______ ____
ROOT
ATOM      1  F   UNL     1      34.587 -12.704 -27.814  0.00  0.00    -0.204 F 
ATOM      2  F   UNL     1      32.413 -12.686 -27.666  0.00  0.00    -0.204 F 
ATOM      3  O   UNL     1      33.971 -13.951 -22.946  0.00  0.00    -0.475 OA
ATOM      4  C   UNL     1      32.605 -13.446 -24.922  0.00  0.00    +0.054 C 
ATOM      5  C   UNL     1      32.857 -14.853 -25.510  0.00  0.00    +0.035 C 
ATOM      6  C   UNL     1      33.617 -12.556 -25.654  0.00  0.00    +0.071 C 
ATOM      7  C   UNL     1      33.517 -14.612 -26.888  0.00  0.00    +0.071 C 
ATOM      8  C   UNL     1      33.549 -13.106 -27.060  0.00  0.00    +0.264 C 
ATOM      9  C   UNL     1      32.706 -13.445 -23.393  0.00  0.00    +0.188 C 
ATOM     10  C   UNL     1      33.722 -15.709 -24.613  0.00  0.00    +0.015 C 
ATOM     11  C   UNL     1      34.237 -15.214 -23.408  0.00  0.00    +0.135 C 
ATOM     12  C   UNL     1      34.033 -17.026 -24.987  0.00  0.00    +0.035 C 
ATOM     13  C   UNL     1      35.089 -15.995 -22.623  0.00  0.00    +0.040 C 
ATOM     14  C   UNL     1      34.867 -17.814 -24.191  0.00  0.00    +0.134 C 
ATOM     15  C   UNL     1      35.401 -17.296 -23.015  0.00  0.00    +0.040 C 
ENDROOT
BRANCH   9  16
ATOM     16  C   UNL     1      32.458 -12.069 -22.802  0.00  0.00    +0.017 C 
ATOM     17  C   UNL     1      33.001 -10.941 -23.415  0.00  0.00    +0.002 C 
ATOM     18  C   UNL     1      31.689 -11.936 -21.646  0.00  0.00    +0.002 C 
ATOM     19  C   UNL     1      32.774  -9.676 -22.872  0.00  0.00    +0.036 C 
ATOM     20  C   UNL     1      31.462 -10.672 -21.103  0.00  0.00    +0.036 C 
ATOM     21  C   UNL     1      32.005  -9.541 -21.716  0.00  0.00    +0.134 C 
BRANCH  21  22
ATOM     22  O   UNL     1      31.783  -8.307 -21.185  0.00  0.00    -0.506 OA
ATOM     23  H   UNL     1      31.029  -8.157 -20.649  0.00  0.00    +0.292 HD
ENDBRANCH  21  22
ENDBRANCH   9  16
BRANCH  14  24
ATOM     24  O   UNL     1      35.164 -19.087 -24.572  0.00  0.00    -0.506 OA
ATOM     25  H   UNL     1      34.825 -19.427 -25.377  0.00  0.00    +0.292 HD
ENDBRANCH  14  24
TORSDOF 3
ENDMDL
MODEL 7
REMARK VINA RESULT:      -9.1      5.679      8.571
REMARK  Name = 11197931
REMARK  3 active torsions:
REMARK  status: ('A' for Active; 'I' for Inactive)
REMARK    1  A    between atoms: C_9  and  C_16
REMARK    2  A    between atoms: C_14  and  O_24
REMARK    3  A    between atoms: C_21  and  O_22
REMARK                            x       y       z     vdW  Elec       q    Type
REMARK                         _______ _______ _______ _____ _____    ______ ____
ROOT
ATOM      1  F   UNL     1      31.478 -22.038 -14.567  0.00  0.00    -0.204 F 
ATOM      2  F   UNL     1      31.353 -24.174 -14.978  0.00  0.00    -0.204 F 
ATOM      3  O   UNL     1      36.027 -22.858 -16.631  0.00  0.00    -0.475 OA
ATOM      4  C   UNL     1      33.978 -24.100 -16.096  0.00  0.00    +0.054 C 
ATOM      5  C   UNL     1      33.249 -23.512 -17.325  0.00  0.00    +0.035 C 
ATOM      6  C   UNL     1      33.500 -23.223 -14.932  0.00  0.00    +0.071 C 
ATOM      7  C   UNL     1      32.007 -22.784 -16.759  0.00  0.00    +0.071 C 
ATOM      8  C   UNL     1      32.037 -23.042 -15.265  0.00  0.00    +0.264 C 
ATOM      9  C   UNL     1      35.495 -24.151 -16.309  0.00  0.00    +0.188 C 
ATOM     10  C   UNL     1      34.128 -22.583 -18.131  0.00  0.00    +0.015 C 
ATOM     11  C   UNL     1      35.442 -22.298 -17.738  0.00  0.00    +0.135 C 
ATOM     12  C   UNL     1      33.628 -21.977 -19.295  0.00  0.00    +0.035 C 
ATOM     13  C   UNL     1      36.219 -21.387 -18.456  0.00  0.00    +0.040 C 
ATOM     14  C   UNL     1      34.412 -21.082 -20.025  0.00  0.00    +0.134 C 
ATOM     15  C   UNL     1      35.704 -20.781 -19.601  0.00  0.00    +0.040 C 
ENDROOT
BRANCH   9  16
ATOM     16  C   UNL     1      36.224 -24.728 -15.109  0.00  0.00    +0.017 C 
ATOM     17  C   UNL     1      36.755 -23.876 -14.141  0.00  0.00    +0.002 C 
ATOM     18  C   UNL     1      36.363 -26.109 -14.978  0.00  0.00    +0.002 C 
ATOM     19  C   UNL     1      37.426 -24.406 -13.039  0.00  0.00    +0.036 C 
ATOM     20  C   UNL     1      37.033 -26.640 -13.875  0.00  0.00    +0.036 C 
ATOM     21  C   UNL     1      37.565 -25.788 -12.906  0.00  0.00    +0.134 C 
BRANCH  21  22
ATOM     22  O   UNL     1      38.220 -26.306 -11.831  0.00  0.00    -0.506 OA
ATOM     23  H   UNL     1      38.988 -26.826 -11.957  0.00  0.00    +0.292 HD
ENDBRANCH  21  22
ENDBRANCH   9  16
BRANCH  14  24
ATOM     24  O   UNL     1      33.910 -20.498 -21.147  0.00  0.00    -0.506 OA
ATOM     25  H   UNL     1      34.000 -20.922 -21.978  0.00  0.00    +0.292 HD
ENDBRANCH  14  24
TORSDOF 3
ENDMDL
MODEL 8
REMARK VINA RESULT:      -9.1      7.742     11.303
REMARK  Name = 11197931
REMARK  3 active torsions:
REMARK  status: ('A' for Active; 'I' for Inactive)
REMARK    1  A    between atoms: C_9  and  C_16
REMARK    2  A    between atoms: C_14  and  O_24
REMARK    3  A    between atoms: C_21  and  O_22
REMARK                            x       y       z     vdW  Elec       q    Type
REMARK                         _______ _______ _______ _____ _____    ______ ____
ROOT
ATOM      1  F   UNL     1      33.266  -6.599 -19.392  0.00  0.00    -0.204 F 
ATOM      2  F   UNL     1      31.442  -7.791 -19.425  0.00  0.00    -0.204 F 
ATOM      3  O   UNL     1      32.963  -7.705 -24.323  0.00  0.00    -0.475 OA
ATOM      4  C   UNL     1      31.704  -8.092 -22.251  0.00  0.00    +0.054 C 
ATOM      5  C   UNL     1      31.130  -6.658 -22.281  0.00  0.00    +0.035 C 
ATOM      6  C   UNL     1      32.880  -7.994 -21.271  0.00  0.00    +0.071 C 
ATOM      7  C   UNL     1      31.575  -6.006 -20.951  0.00  0.00    +0.071 C 
ATOM      8  C   UNL     1      32.311  -7.097 -20.197  0.00  0.00    +0.264 C 
ATOM      9  C   UNL     1      32.053  -8.592 -23.657  0.00  0.00    +0.188 C 
ATOM     10  C   UNL     1      31.602  -5.869 -23.481  0.00  0.00    +0.015 C 
ATOM     11  C   UNL     1      32.492  -6.421 -24.412  0.00  0.00    +0.135 C 
ATOM     12  C   UNL     1      31.158  -4.551 -23.675  0.00  0.00    +0.035 C 
ATOM     13  C   UNL     1      32.971  -5.657 -25.479  0.00  0.00    +0.040 C 
ATOM     14  C   UNL     1      31.621  -3.795 -24.753  0.00  0.00    +0.134 C 
ATOM     15  C   UNL     1      32.533  -4.345 -25.649  0.00  0.00    +0.040 C 
ENDROOT
BRANCH   9  16
ATOM     16  C   UNL     1      32.617 -10.001 -23.642  0.00  0.00    +0.017 C 
ATOM     17  C   UNL     1      33.682 -10.332 -24.479  0.00  0.00    +0.002 C 
ATOM     18  C   UNL     1      32.069 -10.961 -22.793  0.00  0.00    +0.002 C 
ATOM     19  C   UNL     1      34.200 -11.627 -24.466  0.00  0.00    +0.036 C 
ATOM     20  C   UNL     1      32.588 -12.256 -22.779  0.00  0.00    +0.036 C 
ATOM     21  C   UNL     1      33.653 -12.589 -23.617  0.00  0.00    +0.134 C 
BRANCH  21  22
ATOM     22  O   UNL     1      34.159 -13.853 -23.604  0.00  0.00    -0.506 OA
ATOM     23  H   UNL     1      34.011 -14.409 -22.864  0.00  0.00    +0.292 HD
ENDBRANCH  21  22
ENDBRANCH   9  16
BRANCH  14  24
ATOM     24  O   UNL     1      31.185  -2.516 -24.922  0.00  0.00    -0.506 OA
ATOM     25  H   UNL     1      31.593  -1.962 -25.558  0.00  0.00    +0.292 HD
ENDBRANCH  14  24
TORSDOF 3
ENDMDL
MODEL 9
REMARK VINA RESULT:      -9.0      6.277     10.867
REMARK  Name = 11197931
REMARK  3 active torsions:
REMARK  status: ('A' for Active; 'I' for Inactive)
REMARK    1  A    between atoms: C_9  and  C_16
REMARK    2  A    between atoms: C_14  and  O_24
REMARK    3  A    between atoms: C_21  and  O_22
REMARK                            x       y       z     vdW  Elec       q    Type
REMARK                         _______ _______ _______ _____ _____    ______ ____
ROOT
ATOM      1  F   UNL     1      36.300  -9.970 -24.432  0.00  0.00    -0.204 F 
ATOM      2  F   UNL     1      34.869  -9.563 -26.024  0.00  0.00    -0.204 F 
ATOM      3  O   UNL     1      32.003  -9.674 -21.771  0.00  0.00    -0.475 OA
ATOM      4  C   UNL     1      32.758  -9.536 -24.103  0.00  0.00    +0.054 C 
ATOM      5  C   UNL     1      32.888 -11.073 -24.197  0.00  0.00    +0.035 C 
ATOM      6  C   UNL     1      34.192  -9.064 -23.831  0.00  0.00    +0.071 C 
ATOM      7  C   UNL     1      34.365 -11.341 -24.568  0.00  0.00    +0.071 C 
ATOM      8  C   UNL     1      34.991  -9.970 -24.738  0.00  0.00    +0.264 C 
ATOM      9  C   UNL     1      31.714  -9.119 -23.062  0.00  0.00    +0.188 C 
ATOM     10  C   UNL     1      32.494 -11.768 -22.914  0.00  0.00    +0.015 C 
ATOM     11  C   UNL     1      32.096 -11.042 -21.784  0.00  0.00    +0.135 C 
ATOM     12  C   UNL     1      32.533 -13.169 -22.833  0.00  0.00    +0.035 C 
ATOM     13  C   UNL     1      31.799 -11.694 -20.585  0.00  0.00    +0.040 C 
ATOM     14  C   UNL     1      32.216 -13.822 -21.641  0.00  0.00    +0.134 C 
ATOM     15  C   UNL     1      31.857 -13.085 -20.516  0.00  0.00    +0.040 C 
ENDROOT
BRANCH   9  16
ATOM     16  C   UNL     1      31.575  -7.611 -22.960  0.00  0.00    +0.017 C 
ATOM     17  C   UNL     1      31.195  -6.870 -24.079  0.00  0.00    +0.002 C 
ATOM     18  C   UNL     1      31.829  -6.969 -21.749  0.00  0.00    +0.002 C 
ATOM     19  C   UNL     1      31.068  -5.484 -23.986  0.00  0.00    +0.036 C 
ATOM     20  C   UNL     1      31.702  -5.583 -21.656  0.00  0.00    +0.036 C 
ATOM     21  C   UNL     1      31.322  -4.840 -22.775  0.00  0.00    +0.134 C 
BRANCH  21  22
ATOM     22  O   UNL     1      31.198  -3.487 -22.684  0.00  0.00    -0.506 OA
ATOM     23  H   UNL     1      30.374  -3.080 -22.868  0.00  0.00    +0.292 HD
ENDBRANCH  21  22
ENDBRANCH   9  16
BRANCH  14  24
ATOM     24  O   UNL     1      32.266 -15.182 -21.578  0.00  0.00    -0.506 OA
ATOM     25  H   UNL     1      32.952 -15.647 -22.016  0.00  0.00    +0.292 HD
ENDBRANCH  14  24
TORSDOF 3
ENDMDL
