MODEL 1
REMARK VINA RESULT:      -7.2      0.000      0.000
REMARK  Name = 21782
REMARK  7 active torsions:
REMARK  status: ('A' for Active; 'I' for Inactive)
REMARK    1  A    between atoms: N_4  and  S_9
REMARK    2  A    between atoms: C_5  and  C_14
REMARK    3  A    between atoms: S_9  and  C_13
REMARK    4  A    between atoms: C_14  and  C_15
REMARK    5  A    between atoms: C_14  and  C_17
REMARK    6  A    between atoms: C_17  and  C_18
REMARK    7  A    between atoms: C_18  and  C_19
REMARK                            x       y       z     vdW  Elec       q    Type
REMARK                         _______ _______ _______ _____ _____    ______ ____
ROOT
ATOM      1  O   UNL     1      34.980 -23.856 -16.333  0.00  0.00    -0.272 OA
ATOM      2  O   UNL     1      35.680 -24.346 -11.793  0.00  0.00    -0.251 OA
ATOM      3  N   UNL     1      33.801 -24.595 -13.151  0.00  0.00    -0.281 N 
ATOM      4  N   UNL     1      35.715 -23.996 -14.113  0.00  0.00    -0.161 N 
ATOM      5  C   UNL     1      33.458 -24.480 -14.547  0.00  0.00    +0.151 C 
ATOM      6  C   UNL     1      34.801 -24.072 -15.141  0.00  0.00    +0.260 C 
ATOM      7  C   UNL     1      35.146 -24.310 -12.894  0.00  0.00    +0.320 C 
ATOM      8  H   UNL     1      33.156 -24.848 -12.452  0.00  0.00    +0.151 HD
ENDROOT
BRANCH   4   9
ATOM      9  S   UNL     1      37.327 -23.577 -14.318  0.00  0.00    +0.008 S 
BRANCH   9  13
ATOM     10 CL   UNL     1      39.704 -25.118 -15.116  0.00  0.00    -0.070 Cl
ATOM     11 CL   UNL     1      38.364 -25.806 -12.637  0.00  0.00    -0.070 Cl
ATOM     12 CL   UNL     1      37.108 -26.412 -15.202  0.00  0.00    -0.070 Cl
ATOM     13  C   UNL     1      38.106 -25.227 -14.309  0.00  0.00    +0.255 C 
ENDBRANCH   9  13
ENDBRANCH   4   9
BRANCH   5  14
ATOM     14  C   UNL     1      32.382 -23.418 -14.793  0.00  0.00    +0.027 C 
BRANCH  14  15
ATOM     15  C   UNL     1      31.410 -23.308 -13.599  0.00  0.00    +0.002 C 
ATOM     16  C   UNL     1      30.518 -24.529 -13.415  0.00  0.00    +0.000 C 
ENDBRANCH  14  15
BRANCH  14  17
ATOM     17  C   UNL     1      31.571 -23.712 -16.075  0.00  0.00    +0.002 C 
BRANCH  17  18
ATOM     18  C   UNL     1      30.567 -22.613 -16.437  0.00  0.00    +0.000 C 
BRANCH  18  19
ATOM     19  C   UNL     1      29.157 -23.184 -16.599  0.00  0.00    +0.000 C 
ATOM     20  C   UNL     1      28.149 -22.434 -15.743  0.00  0.00    +0.000 C 
ENDBRANCH  18  19
ENDBRANCH  17  18
ENDBRANCH  14  17
ENDBRANCH   5  14
TORSDOF 7
ENDMDL
MODEL 2
REMARK VINA RESULT:      -7.1      1.564      2.111
REMARK  Name = 21782
REMARK  7 active torsions:
REMARK  status: ('A' for Active; 'I' for Inactive)
REMARK    1  A    between atoms: N_4  and  S_9
REMARK    2  A    between atoms: C_5  and  C_14
REMARK    3  A    between atoms: S_9  and  C_13
REMARK    4  A    between atoms: C_14  and  C_15
REMARK    5  A    between atoms: C_14  and  C_17
REMARK    6  A    between atoms: C_17  and  C_18
REMARK    7  A    between atoms: C_18  and  C_19
REMARK                            x       y       z     vdW  Elec       q    Type
REMARK                         _______ _______ _______ _____ _____    ______ ____
ROOT
ATOM      1  O   UNL     1      35.554 -23.784 -16.172  0.00  0.00    -0.272 OA
ATOM      2  O   UNL     1      35.068 -24.410 -11.621  0.00  0.00    -0.251 OA
ATOM      3  N   UNL     1      33.570 -24.472 -13.406  0.00  0.00    -0.281 N 
ATOM      4  N   UNL     1      35.704 -24.026 -13.847  0.00  0.00    -0.161 N 
ATOM      5  C   UNL     1      33.593 -24.303 -14.839  0.00  0.00    +0.151 C 
ATOM      6  C   UNL     1      35.069 -24.004 -15.069  0.00  0.00    +0.260 C 
ATOM      7  C   UNL     1      34.828 -24.309 -12.817  0.00  0.00    +0.320 C 
ATOM      8  H   UNL     1      32.754 -24.679 -12.897  0.00  0.00    +0.151 HD
ENDROOT
BRANCH   4   9
ATOM      9  S   UNL     1      37.344 -23.745 -13.634  0.00  0.00    +0.008 S 
BRANCH   9  13
ATOM     10 CL   UNL     1      39.773 -25.396 -13.831  0.00  0.00    -0.070 Cl
ATOM     11 CL   UNL     1      37.575 -26.338 -12.188  0.00  0.00    -0.070 Cl
ATOM     12 CL   UNL     1      37.339 -26.337 -15.098  0.00  0.00    -0.070 Cl
ATOM     13  C   UNL     1      37.986 -25.452 -13.686  0.00  0.00    +0.255 C 
ENDBRANCH   9  13
ENDBRANCH   4   9
BRANCH   5  14
ATOM     14  C   UNL     1      32.700 -23.147 -15.301  0.00  0.00    +0.027 C 
BRANCH  14  15
ATOM     15  C   UNL     1      31.590 -22.843 -14.272  0.00  0.00    +0.002 C 
ATOM     16  C   UNL     1      30.183 -23.128 -14.780  0.00  0.00    +0.000 C 
ENDBRANCH  14  15
BRANCH  14  17
ATOM     17  C   UNL     1      32.049 -23.441 -16.670  0.00  0.00    +0.002 C 
BRANCH  17  18
ATOM     18  C   UNL     1      32.243 -22.323 -17.700  0.00  0.00    +0.000 C 
BRANCH  18  19
ATOM     19  C   UNL     1      33.479 -22.575 -18.565  0.00  0.00    +0.000 C 
ATOM     20  C   UNL     1      33.705 -21.448 -19.559  0.00  0.00    +0.000 C 
ENDBRANCH  18  19
ENDBRANCH  17  18
ENDBRANCH  14  17
ENDBRANCH   5  14
TORSDOF 7
ENDMDL
MODEL 3
REMARK VINA RESULT:      -7.1      2.733      3.669
REMARK  Name = 21782
REMARK  7 active torsions:
REMARK  status: ('A' for Active; 'I' for Inactive)
REMARK    1  A    between atoms: N_4  and  S_9
REMARK    2  A    between atoms: C_5  and  C_14
REMARK    3  A    between atoms: S_9  and  C_13
REMARK    4  A    between atoms: C_14  and  C_15
REMARK    5  A    between atoms: C_14  and  C_17
REMARK    6  A    between atoms: C_17  and  C_18
REMARK    7  A    between atoms: C_18  and  C_19
REMARK                            x       y       z     vdW  Elec       q    Type
REMARK                         _______ _______ _______ _____ _____    ______ ____
ROOT
ATOM      1  O   UNL     1      35.820 -26.218 -15.798  0.00  0.00    -0.272 OA
ATOM      2  O   UNL     1      35.680 -23.496 -12.068  0.00  0.00    -0.251 OA
ATOM      3  N   UNL     1      34.522 -23.486 -14.091  0.00  0.00    -0.281 N 
ATOM      4  N   UNL     1      36.039 -25.079 -13.762  0.00  0.00    -0.161 N 
ATOM      5  C   UNL     1      34.469 -24.262 -15.306  0.00  0.00    +0.151 C 
ATOM      6  C   UNL     1      35.521 -25.324 -15.015  0.00  0.00    +0.260 C 
ATOM      7  C   UNL     1      35.456 -23.975 -13.172  0.00  0.00    +0.320 C 
ATOM      8  H   UNL     1      33.960 -22.694 -13.927  0.00  0.00    +0.151 HD
ENDROOT
BRANCH   4   9
ATOM      9  S   UNL     1      37.233 -26.009 -13.039  0.00  0.00    +0.008 S 
BRANCH   9  13
ATOM     10 CL   UNL     1      39.016 -23.859 -12.112  0.00  0.00    -0.070 Cl
ATOM     11 CL   UNL     1      40.156 -26.071 -13.604  0.00  0.00    -0.070 Cl
ATOM     12 CL   UNL     1      38.478 -24.098 -14.953  0.00  0.00    -0.070 Cl
ATOM     13  C   UNL     1      38.715 -25.025 -13.442  0.00  0.00    +0.255 C 
ENDBRANCH   9  13
ENDBRANCH   4   9
BRANCH   5  14
ATOM     14  C   UNL     1      34.828 -23.429 -16.541  0.00  0.00    +0.027 C 
BRANCH  14  15
ATOM     15  C   UNL     1      35.690 -22.205 -16.168  0.00  0.00    +0.002 C 
ATOM     16  C   UNL     1      36.829 -21.933 -17.142  0.00  0.00    +0.000 C 
ENDBRANCH  14  15
BRANCH  14  17
ATOM     17  C   UNL     1      33.566 -22.946 -17.290  0.00  0.00    +0.002 C 
BRANCH  17  18
ATOM     18  C   UNL     1      33.731 -22.898 -18.813  0.00  0.00    +0.000 C 
BRANCH  18  19
ATOM     19  C   UNL     1      33.434 -21.501 -19.358  0.00  0.00    +0.000 C 
ATOM     20  C   UNL     1      34.669 -20.871 -19.981  0.00  0.00    +0.000 C 
ENDBRANCH  18  19
ENDBRANCH  17  18
ENDBRANCH  14  17
ENDBRANCH   5  14
TORSDOF 7
ENDMDL
MODEL 4
REMARK VINA RESULT:      -6.8      1.396      2.216
REMARK  Name = 21782
REMARK  7 active torsions:
REMARK  status: ('A' for Active; 'I' for Inactive)
REMARK    1  A    between atoms: N_4  and  S_9
REMARK    2  A    between atoms: C_5  and  C_14
REMARK    3  A    between atoms: S_9  and  C_13
REMARK    4  A    between atoms: C_14  and  C_15
REMARK    5  A    between atoms: C_14  and  C_17
REMARK    6  A    between atoms: C_17  and  C_18
REMARK    7  A    between atoms: C_18  and  C_19
REMARK                            x       y       z     vdW  Elec       q    Type
REMARK                         _______ _______ _______ _____ _____    ______ ____
ROOT
ATOM      1  O   UNL     1      35.356 -25.524 -15.801  0.00  0.00    -0.272 OA
ATOM      2  O   UNL     1      36.579 -22.762 -12.306  0.00  0.00    -0.251 OA
ATOM      3  N   UNL     1      34.551 -23.716 -12.947  0.00  0.00    -0.281 N 
ATOM      4  N   UNL     1      36.346 -24.139 -14.191  0.00  0.00    -0.161 N 
ATOM      5  C   UNL     1      34.048 -24.579 -13.988  0.00  0.00    +0.151 C 
ATOM      6  C   UNL     1      35.316 -24.827 -14.795  0.00  0.00    +0.260 C 
ATOM      7  C   UNL     1      35.920 -23.457 -13.068  0.00  0.00    +0.320 C 
ATOM      8  H   UNL     1      33.989 -23.348 -12.228  0.00  0.00    +0.151 HD
ENDROOT
BRANCH   4   9
ATOM      9  S   UNL     1      37.927 -24.132 -14.752  0.00  0.00    +0.008 S 
BRANCH   9  13
ATOM     10 CL   UNL     1      37.872 -27.073 -14.848  0.00  0.00    -0.070 Cl
ATOM     11 CL   UNL     1      40.344 -25.747 -14.104  0.00  0.00    -0.070 Cl
ATOM     12 CL   UNL     1      38.075 -25.764 -12.266  0.00  0.00    -0.070 Cl
ATOM     13  C   UNL     1      38.562 -25.660 -13.984  0.00  0.00    +0.255 C 
ENDBRANCH   9  13
ENDBRANCH   4   9
BRANCH   5  14
ATOM     14  C   UNL     1      32.963 -23.899 -14.830  0.00  0.00    +0.027 C 
BRANCH  14  15
ATOM     15  C   UNL     1      33.575 -23.023 -15.943  0.00  0.00    +0.002 C 
ATOM     16  C   UNL     1      32.900 -23.187 -17.298  0.00  0.00    +0.000 C 
ENDBRANCH  14  15
BRANCH  14  17
ATOM     17  C   UNL     1      32.029 -23.027 -13.961  0.00  0.00    +0.002 C 
BRANCH  17  18
ATOM     18  C   UNL     1      30.541 -23.337 -14.151  0.00  0.00    +0.000 C 
BRANCH  18  19
ATOM     19  C   UNL     1      30.339 -24.687 -14.839  0.00  0.00    +0.000 C 
ATOM     20  C   UNL     1      29.295 -24.603 -15.941  0.00  0.00    +0.000 C 
ENDBRANCH  18  19
ENDBRANCH  17  18
ENDBRANCH  14  17
ENDBRANCH   5  14
TORSDOF 7
ENDMDL
MODEL 5
REMARK VINA RESULT:      -6.8     15.590     16.962
REMARK  Name = 21782
REMARK  7 active torsions:
REMARK  status: ('A' for Active; 'I' for Inactive)
REMARK    1  A    between atoms: N_4  and  S_9
REMARK    2  A    between atoms: C_5  and  C_14
REMARK    3  A    between atoms: S_9  and  C_13
REMARK    4  A    between atoms: C_14  and  C_15
REMARK    5  A    between atoms: C_14  and  C_17
REMARK    6  A    between atoms: C_17  and  C_18
REMARK    7  A    between atoms: C_18  and  C_19
REMARK                            x       y       z     vdW  Elec       q    Type
REMARK                         _______ _______ _______ _____ _____    ______ ____
ROOT
ATOM      1  O   UNL     1      31.574 -10.421 -21.760  0.00  0.00    -0.272 OA
ATOM      2  O   UNL     1      34.921  -8.649 -24.407  0.00  0.00    -0.251 OA
ATOM      3  N   UNL     1      33.863 -10.727 -24.354  0.00  0.00    -0.281 N 
ATOM      4  N   UNL     1      33.227  -9.191 -22.876  0.00  0.00    -0.161 N 
ATOM      5  C   UNL     1      32.827 -11.389 -23.600  0.00  0.00    +0.151 C 
ATOM      6  C   UNL     1      32.440 -10.292 -22.617  0.00  0.00    +0.260 C 
ATOM      7  C   UNL     1      34.099  -9.417 -23.923  0.00  0.00    +0.320 C 
ATOM      8  H   UNL     1      34.353 -11.152 -25.094  0.00  0.00    +0.151 HD
ENDROOT
BRANCH   4   9
ATOM      9  S   UNL     1      33.136  -7.749 -22.023  0.00  0.00    +0.008 S 
BRANCH   9  13
ATOM     10 CL   UNL     1      31.347  -5.419 -22.203  0.00  0.00    -0.070 Cl
ATOM     11 CL   UNL     1      33.020  -6.071 -24.481  0.00  0.00    -0.070 Cl
ATOM     12 CL   UNL     1      30.745  -7.768 -23.796  0.00  0.00    -0.070 Cl
ATOM     13  C   UNL     1      32.073  -6.769 -23.135  0.00  0.00    +0.255 C 
ENDBRANCH   9  13
ENDBRANCH   4   9
BRANCH   5  14
ATOM     14  C   UNL     1      33.342 -12.640 -22.882  0.00  0.00    +0.027 C 
BRANCH  14  15
ATOM     15  C   UNL     1      34.094 -13.579 -23.849  0.00  0.00    +0.002 C 
ATOM     16  C   UNL     1      33.309 -14.827 -24.232  0.00  0.00    +0.000 C 
ENDBRANCH  14  15
BRANCH  14  17
ATOM     17  C   UNL     1      32.196 -13.426 -22.209  0.00  0.00    +0.002 C 
BRANCH  17  18
ATOM     18  C   UNL     1      32.439 -13.727 -20.726  0.00  0.00    +0.000 C 
BRANCH  18  19
ATOM     19  C   UNL     1      32.865 -15.181 -20.519  0.00  0.00    +0.000 C 
ATOM     20  C   UNL     1      34.378 -15.324 -20.510  0.00  0.00    +0.000 C 
ENDBRANCH  18  19
ENDBRANCH  17  18
ENDBRANCH  14  17
ENDBRANCH   5  14
TORSDOF 7
ENDMDL
MODEL 6
REMARK VINA RESULT:      -6.7      1.729      2.757
REMARK  Name = 21782
REMARK  7 active torsions:
REMARK  status: ('A' for Active; 'I' for Inactive)
REMARK    1  A    between atoms: N_4  and  S_9
REMARK    2  A    between atoms: C_5  and  C_14
REMARK    3  A    between atoms: S_9  and  C_13
REMARK    4  A    between atoms: C_14  and  C_15
REMARK    5  A    between atoms: C_14  and  C_17
REMARK    6  A    between atoms: C_17  and  C_18
REMARK    7  A    between atoms: C_18  and  C_19
REMARK                            x       y       z     vdW  Elec       q    Type
REMARK                         _______ _______ _______ _____ _____    ______ ____
ROOT
ATOM      1  O   UNL     1      35.777 -26.314 -15.660  0.00  0.00    -0.272 OA
ATOM      2  O   UNL     1      35.821 -23.655 -11.883  0.00  0.00    -0.251 OA
ATOM      3  N   UNL     1      34.505 -23.666 -13.807  0.00  0.00    -0.281 N 
ATOM      4  N   UNL     1      36.110 -25.196 -13.628  0.00  0.00    -0.161 N 
ATOM      5  C   UNL     1      34.388 -24.426 -15.028  0.00  0.00    +0.151 C 
ATOM      6  C   UNL     1      35.504 -25.446 -14.841  0.00  0.00    +0.260 C 
ATOM      7  C   UNL     1      35.529 -24.128 -12.974  0.00  0.00    +0.320 C 
ATOM      8  H   UNL     1      33.925 -22.903 -13.585  0.00  0.00    +0.151 HD
ENDROOT
BRANCH   4   9
ATOM      9  S   UNL     1      37.396 -26.085 -13.019  0.00  0.00    +0.008 S 
BRANCH   9  13
ATOM     10 CL   UNL     1      38.400 -24.114 -14.961  0.00  0.00    -0.070 Cl
ATOM     11 CL   UNL     1      39.074 -23.780 -12.159  0.00  0.00    -0.070 Cl
ATOM     12 CL   UNL     1      40.287 -25.932 -13.715  0.00  0.00    -0.070 Cl
ATOM     13  C   UNL     1      38.791 -24.990 -13.445  0.00  0.00    +0.255 C 
ENDBRANCH   9  13
ENDBRANCH   4   9
BRANCH   5  14
ATOM     14  C   UNL     1      34.611 -23.561 -16.272  0.00  0.00    +0.027 C 
BRANCH  14  15
ATOM     15  C   UNL     1      35.546 -22.370 -15.974  0.00  0.00    +0.002 C 
ATOM     16  C   UNL     1      36.509 -22.042 -17.108  0.00  0.00    +0.000 C 
ENDBRANCH  14  15
BRANCH  14  17
ATOM     17  C   UNL     1      33.280 -23.024 -16.841  0.00  0.00    +0.002 C 
BRANCH  17  18
ATOM     18  C   UNL     1      32.037 -23.668 -16.219  0.00  0.00    +0.000 C 
BRANCH  18  19
ATOM     19  C   UNL     1      30.797 -22.800 -16.434  0.00  0.00    +0.000 C 
ATOM     20  C   UNL     1      29.875 -22.831 -15.226  0.00  0.00    +0.000 C 
ENDBRANCH  18  19
ENDBRANCH  17  18
ENDBRANCH  14  17
ENDBRANCH   5  14
TORSDOF 7
ENDMDL
MODEL 7
REMARK VINA RESULT:      -6.7      2.226      3.616
REMARK  Name = 21782
REMARK  7 active torsions:
REMARK  status: ('A' for Active; 'I' for Inactive)
REMARK    1  A    between atoms: N_4  and  S_9
REMARK    2  A    between atoms: C_5  and  C_14
REMARK    3  A    between atoms: S_9  and  C_13
REMARK    4  A    between atoms: C_14  and  C_15
REMARK    5  A    between atoms: C_14  and  C_17
REMARK    6  A    between atoms: C_17  and  C_18
REMARK    7  A    between atoms: C_18  and  C_19
REMARK                            x       y       z     vdW  Elec       q    Type
REMARK                         _______ _______ _______ _____ _____    ______ ____
ROOT
ATOM      1  O   UNL     1      35.456 -25.702 -15.751  0.00  0.00    -0.272 OA
ATOM      2  O   UNL     1      35.344 -24.159 -11.399  0.00  0.00    -0.251 OA
ATOM      3  N   UNL     1      33.954 -23.830 -13.241  0.00  0.00    -0.281 N 
ATOM      4  N   UNL     1      35.741 -25.130 -13.497  0.00  0.00    -0.161 N 
ATOM      5  C   UNL     1      33.876 -24.247 -14.620  0.00  0.00    +0.151 C 
ATOM      6  C   UNL     1      35.116 -25.126 -14.726  0.00  0.00    +0.260 C 
ATOM      7  C   UNL     1      35.064 -24.359 -12.574  0.00  0.00    +0.320 C 
ATOM      8  H   UNL     1      33.296 -23.235 -12.815  0.00  0.00    +0.151 HD
ENDROOT
BRANCH   4   9
ATOM      9  S   UNL     1      37.152 -25.973 -13.164  0.00  0.00    +0.008 S 
BRANCH   9  13
ATOM     10 CL   UNL     1      37.870 -23.564 -14.695  0.00  0.00    -0.070 Cl
ATOM     11 CL   UNL     1      38.530 -23.670 -11.872  0.00  0.00    -0.070 Cl
ATOM     12 CL   UNL     1      39.991 -25.323 -13.785  0.00  0.00    -0.070 Cl
ATOM     13  C   UNL     1      38.389 -24.648 -13.363  0.00  0.00    +0.255 C 
ENDBRANCH   9  13
ENDBRANCH   4   9
BRANCH   5  14
ATOM     14  C   UNL     1      33.936 -23.061 -15.588  0.00  0.00    +0.027 C 
BRANCH  14  15
ATOM     15  C   UNL     1      32.882 -23.191 -16.708  0.00  0.00    +0.002 C 
ATOM     16  C   UNL     1      31.444 -23.172 -16.208  0.00  0.00    +0.000 C 
ENDBRANCH  14  15
BRANCH  14  17
ATOM     17  C   UNL     1      35.334 -22.916 -16.228  0.00  0.00    +0.002 C 
BRANCH  17  18
ATOM     18  C   UNL     1      35.301 -22.448 -17.686  0.00  0.00    +0.000 C 
BRANCH  18  19
ATOM     19  C   UNL     1      36.576 -21.688 -18.053  0.00  0.00    +0.000 C 
ATOM     20  C   UNL     1      36.508 -21.131 -19.465  0.00  0.00    +0.000 C 
ENDBRANCH  18  19
ENDBRANCH  17  18
ENDBRANCH  14  17
ENDBRANCH   5  14
TORSDOF 7
ENDMDL
MODEL 8
REMARK VINA RESULT:      -6.6     15.345     16.724
REMARK  Name = 21782
REMARK  7 active torsions:
REMARK  status: ('A' for Active; 'I' for Inactive)
REMARK    1  A    between atoms: N_4  and  S_9
REMARK    2  A    between atoms: C_5  and  C_14
REMARK    3  A    between atoms: S_9  and  C_13
REMARK    4  A    between atoms: C_14  and  C_15
REMARK    5  A    between atoms: C_14  and  C_17
REMARK    6  A    between atoms: C_17  and  C_18
REMARK    7  A    between atoms: C_18  and  C_19
REMARK                            x       y       z     vdW  Elec       q    Type
REMARK                         _______ _______ _______ _____ _____    ______ ____
ROOT
ATOM      1  O   UNL     1      34.474  -9.969 -24.552  0.00  0.00    -0.272 OA
ATOM      2  O   UNL     1      30.689 -10.969 -22.100  0.00  0.00    -0.251 OA
ATOM      3  N   UNL     1      32.561 -12.213 -22.717  0.00  0.00    -0.281 N 
ATOM      4  N   UNL     1      32.446 -10.095 -23.386  0.00  0.00    -0.161 N 
ATOM      5  C   UNL     1      33.784 -12.024 -23.458  0.00  0.00    +0.151 C 
ATOM      6  C   UNL     1      33.641 -10.567 -23.882  0.00  0.00    +0.260 C 
ATOM      7  C   UNL     1      31.767 -11.063 -22.673  0.00  0.00    +0.320 C 
ATOM      8  H   UNL     1      32.312 -13.063 -22.288  0.00  0.00    +0.151 HD
ENDROOT
BRANCH   4   9
ATOM      9  S   UNL     1      31.885  -8.531 -23.618  0.00  0.00    +0.008 S 
BRANCH   9  13
ATOM     10 CL   UNL     1      32.141  -5.997 -22.142  0.00  0.00    -0.070 Cl
ATOM     11 CL   UNL     1      32.722  -8.481 -20.760  0.00  0.00    -0.070 Cl
ATOM     12 CL   UNL     1      34.547  -7.476 -22.805  0.00  0.00    -0.070 Cl
ATOM     13  C   UNL     1      32.830  -7.642 -22.336  0.00  0.00    +0.255 C 
ENDBRANCH   9  13
ENDBRANCH   4   9
BRANCH   5  14
ATOM     14  C   UNL     1      33.880 -12.961 -24.667  0.00  0.00    +0.027 C 
BRANCH  14  15
ATOM     15  C   UNL     1      33.449 -12.253 -25.968  0.00  0.00    +0.002 C 
ATOM     16  C   UNL     1      33.256 -13.195 -27.149  0.00  0.00    +0.000 C 
ENDBRANCH  14  15
BRANCH  14  17
ATOM     17  C   UNL     1      33.020 -14.229 -24.476  0.00  0.00    +0.002 C 
BRANCH  17  18
ATOM     18  C   UNL     1      33.827 -15.473 -24.091  0.00  0.00    +0.000 C 
BRANCH  18  19
ATOM     19  C   UNL     1      34.152 -16.323 -25.319  0.00  0.00    +0.000 C 
ATOM     20  C   UNL     1      34.629 -17.712 -24.927  0.00  0.00    +0.000 C 
ENDBRANCH  18  19
ENDBRANCH  17  18
ENDBRANCH  14  17
ENDBRANCH   5  14
TORSDOF 7
ENDMDL
MODEL 9
REMARK VINA RESULT:      -6.5     11.557     12.805
REMARK  Name = 21782
REMARK  7 active torsions:
REMARK  status: ('A' for Active; 'I' for Inactive)
REMARK    1  A    between atoms: N_4  and  S_9
REMARK    2  A    between atoms: C_5  and  C_14
REMARK    3  A    between atoms: S_9  and  C_13
REMARK    4  A    between atoms: C_14  and  C_15
REMARK    5  A    between atoms: C_14  and  C_17
REMARK    6  A    between atoms: C_17  and  C_18
REMARK    7  A    between atoms: C_18  and  C_19
REMARK                            x       y       z     vdW  Elec       q    Type
REMARK                         _______ _______ _______ _____ _____    ______ ____
ROOT
ATOM      1  O   UNL     1      33.240 -15.508 -24.231  0.00  0.00    -0.272 OA
ATOM      2  O   UNL     1      34.978 -15.573 -19.952  0.00  0.00    -0.251 OA
ATOM      3  N   UNL     1      33.111 -14.546 -20.897  0.00  0.00    -0.281 N 
ATOM      4  N   UNL     1      34.411 -15.773 -22.220  0.00  0.00    -0.161 N 
ATOM      5  C   UNL     1      32.469 -14.452 -22.186  0.00  0.00    +0.151 C 
ATOM      6  C   UNL     1      33.402 -15.306 -23.034  0.00  0.00    +0.260 C 
ATOM      7  C   UNL     1      34.265 -15.335 -20.918  0.00  0.00    +0.320 C 
ATOM      8  H   UNL     1      32.771 -14.101 -20.087  0.00  0.00    +0.151 HD
ENDROOT
BRANCH   4   9
ATOM      9  S   UNL     1      35.664 -16.757 -22.745  0.00  0.00    +0.008 S 
BRANCH   9  13
ATOM     10 CL   UNL     1      34.893 -19.496 -23.496  0.00  0.00    -0.070 Cl
ATOM     11 CL   UNL     1      36.319 -19.082 -21.003  0.00  0.00    -0.070 Cl
ATOM     12 CL   UNL     1      33.539 -18.227 -21.266  0.00  0.00    -0.070 Cl
ATOM     13  C   UNL     1      35.108 -18.375 -22.113  0.00  0.00    +0.255 C 
ENDBRANCH   9  13
ENDBRANCH   4   9
BRANCH   5  14
ATOM     14  C   UNL     1      32.401 -13.008 -22.694  0.00  0.00    +0.027 C 
BRANCH  14  15
ATOM     15  C   UNL     1      33.767 -12.530 -23.228  0.00  0.00    +0.002 C 
ATOM     16  C   UNL     1      33.702 -11.892 -24.609  0.00  0.00    +0.000 C 
ENDBRANCH  14  15
BRANCH  14  17
ATOM     17  C   UNL     1      31.923 -12.037 -21.593  0.00  0.00    +0.002 C 
BRANCH  17  18
ATOM     18  C   UNL     1      31.034 -10.902 -22.112  0.00  0.00    +0.000 C 
BRANCH  18  19
ATOM     19  C   UNL     1      31.760  -9.558 -22.051  0.00  0.00    +0.000 C 
ATOM     20  C   UNL     1      31.736  -8.848 -23.395  0.00  0.00    +0.000 C 
ENDBRANCH  18  19
ENDBRANCH  17  18
ENDBRANCH  14  17
ENDBRANCH   5  14
TORSDOF 7
ENDMDL
