MODEL 1
REMARK VINA RESULT:      -7.7      0.000      0.000
REMARK  Name = 9859632
REMARK  7 active torsions:
REMARK  status: ('A' for Active; 'I' for Inactive)
REMARK    1  A    between atoms: C_2  and  C_4
REMARK    2  A    between atoms: C_2  and  C_13
REMARK    3  A    between atoms: C_5  and  N_10
REMARK    4  A    between atoms: C_13  and  CA_14
REMARK    5  A    between atoms: CA_14  and  N_15
REMARK    6  A    between atoms: CA_14  and  C_20
REMARK    7  A    between atoms: C_20  and  O_21
REMARK                            x       y       z     vdW  Elec       q    Type
REMARK                         _______ _______ _______ _____ _____    ______ ____
ROOT
ATOM      1  O   UNL     1      35.276 -17.252 -21.050  0.00  0.00    -0.291 OA
ATOM      2  C   UNL     1      35.244 -18.358 -21.586  0.00  0.00    +0.173 C 
ENDROOT
BRANCH   2   4
ATOM      3 CL   UNL     1      33.519 -23.118 -18.425  0.00  0.00    -0.082 Cl
ATOM      4  C   UNL     1      34.837 -19.552 -20.787  0.00  0.00    +0.048 C 
ATOM      5  C   UNL     1      35.786 -20.282 -20.107  0.00  0.00    +0.045 C 
ATOM      6  C   UNL     1      33.498 -19.876 -20.768  0.00  0.00    +0.005 C 
ATOM      7  C   UNL     1      35.376 -21.393 -19.370  0.00  0.00    +0.026 C 
ATOM      8  C   UNL     1      33.088 -20.988 -20.032  0.00  0.00    +0.012 C 
ATOM      9  C   UNL     1      34.027 -21.746 -19.333  0.00  0.00    +0.059 C 
BRANCH   5  10
ATOM     10  N   UNL     1      37.157 -19.942 -20.133  0.00  0.00    -0.357 N 
ATOM     11  H   UNL     1      37.838 -20.623 -19.927  0.00  0.00    +0.142 HD
ATOM     12  H   UNL     1      37.432 -19.022 -20.357  0.00  0.00    +0.142 HD
ENDBRANCH   5  10
ENDBRANCH   2   4
BRANCH   2  13
ATOM     13  C   UNL     1      35.625 -18.512 -23.050  0.00  0.00    +0.058 C 
BRANCH  13  14
ATOM     14  CA  UNL     1      34.506 -18.045 -23.983  0.00  0.00    +0.043 C 
BRANCH  14  15
ATOM     15  N   UNL     1      34.300 -19.051 -25.028  0.00  0.00    +0.389 N 
ATOM     16  H1  UNL     1      33.696 -18.667 -25.755  0.00  0.00    -0.088 HD
ATOM     17  H2  UNL     1      33.861 -19.877 -24.623  0.00  0.00    -0.088 HD
ATOM     18  H3  UNL     1      35.199 -19.308 -25.434  0.00  0.00    -0.088 HD
ENDBRANCH  14  15
BRANCH  14  20
ATOM     19  OXT UNL     1      34.668 -16.477 -25.848  0.00  0.00    -0.253 OA
ATOM     20  C   UNL     1      34.893 -16.748 -24.676  0.00  0.00    +0.293 C 
BRANCH  20  21
ATOM     21  O   UNL     1      35.516 -15.885 -23.831  0.00  0.00    -0.482 OA
ATOM     22  H   UNL     1      36.132 -15.264 -24.166  0.00  0.00    +0.295 HD
ENDBRANCH  20  21
ENDBRANCH  14  20
ENDBRANCH  13  14
ENDBRANCH   2  13
TORSDOF 7
ENDMDL
MODEL 2
REMARK VINA RESULT:      -7.7      2.261      2.792
REMARK  Name = 9859632
REMARK  7 active torsions:
REMARK  status: ('A' for Active; 'I' for Inactive)
REMARK    1  A    between atoms: C_2  and  C_4
REMARK    2  A    between atoms: C_2  and  C_13
REMARK    3  A    between atoms: C_5  and  N_10
REMARK    4  A    between atoms: C_13  and  CA_14
REMARK    5  A    between atoms: CA_14  and  N_15
REMARK    6  A    between atoms: CA_14  and  C_20
REMARK    7  A    between atoms: C_20  and  O_21
REMARK                            x       y       z     vdW  Elec       q    Type
REMARK                         _______ _______ _______ _____ _____    ______ ____
ROOT
ATOM      1  O   UNL     1      34.840 -19.558 -22.805  0.00  0.00    -0.291 OA
ATOM      2  C   UNL     1      34.995 -19.244 -21.626  0.00  0.00    +0.173 C 
ENDROOT
BRANCH   2   4
ATOM      3 CL   UNL     1      34.253 -23.334 -17.343  0.00  0.00    -0.082 Cl
ATOM      4  C   UNL     1      34.783 -20.267 -20.559  0.00  0.00    +0.048 C 
ATOM      5  C   UNL     1      33.506 -20.643 -20.208  0.00  0.00    +0.045 C 
ATOM      6  C   UNL     1      35.904 -20.798 -19.959  0.00  0.00    +0.005 C 
ATOM      7  C   UNL     1      33.340 -21.599 -19.206  0.00  0.00    +0.026 C 
ATOM      8  C   UNL     1      35.738 -21.754 -18.957  0.00  0.00    +0.012 C 
ATOM      9  C   UNL     1      34.456 -22.155 -18.581  0.00  0.00    +0.059 C 
BRANCH   5  10
ATOM     10  N   UNL     1      32.363 -20.091 -20.829  0.00  0.00    -0.357 N 
ATOM     11  H   UNL     1      31.920 -19.304 -20.436  0.00  0.00    +0.142 HD
ATOM     12  H   UNL     1      32.009 -20.495 -21.655  0.00  0.00    +0.142 HD
ENDBRANCH   5  10
ENDBRANCH   2   4
BRANCH   2  13
ATOM     13  C   UNL     1      35.388 -17.824 -21.256  0.00  0.00    +0.058 C 
BRANCH  13  14
ATOM     14  CA  UNL     1      34.756 -16.793 -22.193  0.00  0.00    +0.043 C 
BRANCH  14  15
ATOM     15  N   UNL     1      35.597 -16.646 -23.384  0.00  0.00    +0.389 N 
ATOM     16  H1  UNL     1      35.921 -15.681 -23.453  0.00  0.00    -0.088 HD
ATOM     17  H2  UNL     1      35.056 -16.883 -24.214  0.00  0.00    -0.088 HD
ATOM     18  H3  UNL     1      36.401 -17.269 -23.311  0.00  0.00    -0.088 HD
ENDBRANCH  14  15
BRANCH  14  20
ATOM     19  OXT UNL     1      34.470 -14.370 -22.093  0.00  0.00    -0.253 OA
ATOM     20  C   UNL     1      34.682 -15.431 -21.522  0.00  0.00    +0.293 C 
BRANCH  20  21
ATOM     21  O   UNL     1      34.863 -15.516 -20.178  0.00  0.00    -0.482 OA
ATOM     22  H   UNL     1      34.300 -16.058 -19.662  0.00  0.00    +0.295 HD
ENDBRANCH  20  21
ENDBRANCH  14  20
ENDBRANCH  13  14
ENDBRANCH   2  13
TORSDOF 7
ENDMDL
MODEL 3
REMARK VINA RESULT:      -7.6      1.221      1.709
REMARK  Name = 9859632
REMARK  7 active torsions:
REMARK  status: ('A' for Active; 'I' for Inactive)
REMARK    1  A    between atoms: C_2  and  C_4
REMARK    2  A    between atoms: C_2  and  C_13
REMARK    3  A    between atoms: C_5  and  N_10
REMARK    4  A    between atoms: C_13  and  CA_14
REMARK    5  A    between atoms: CA_14  and  N_15
REMARK    6  A    between atoms: CA_14  and  C_20
REMARK    7  A    between atoms: C_20  and  O_21
REMARK                            x       y       z     vdW  Elec       q    Type
REMARK                         _______ _______ _______ _____ _____    ______ ____
ROOT
ATOM      1  O   UNL     1      35.350 -17.452 -20.828  0.00  0.00    -0.291 OA
ATOM      2  C   UNL     1      35.349 -18.543 -21.397  0.00  0.00    +0.173 C 
ENDROOT
BRANCH   2   4
ATOM      3 CL   UNL     1      33.769 -23.445 -18.381  0.00  0.00    -0.082 Cl
ATOM      4  C   UNL     1      34.928 -19.764 -20.647  0.00  0.00    +0.048 C 
ATOM      5  C   UNL     1      33.592 -20.006 -20.419  0.00  0.00    +0.045 C 
ATOM      6  C   UNL     1      35.922 -20.610 -20.206  0.00  0.00    +0.005 C 
ATOM      7  C   UNL     1      33.230 -21.154 -19.713  0.00  0.00    +0.026 C 
ATOM      8  C   UNL     1      35.560 -21.758 -19.499  0.00  0.00    +0.012 C 
ATOM      9  C   UNL     1      34.214 -22.029 -19.254  0.00  0.00    +0.059 C 
BRANCH   5  10
ATOM     10  N   UNL     1      32.581 -19.131 -20.875  0.00  0.00    -0.357 N 
ATOM     11  H   UNL     1      31.834 -19.480 -21.414  0.00  0.00    +0.142 HD
ATOM     12  H   UNL     1      32.624 -18.172 -20.655  0.00  0.00    +0.142 HD
ENDBRANCH   5  10
ENDBRANCH   2   4
BRANCH   2  13
ATOM     13  C   UNL     1      35.781 -18.650 -22.850  0.00  0.00    +0.058 C 
BRANCH  13  14
ATOM     14  CA  UNL     1      34.663 -18.239 -23.810  0.00  0.00    +0.043 C 
BRANCH  14  15
ATOM     15  N   UNL     1      34.498 -19.279 -24.830  0.00  0.00    +0.389 N 
ATOM     16  H1  UNL     1      35.353 -19.831 -24.893  0.00  0.00    -0.088 HD
ATOM     17  H2  UNL     1      34.306 -18.844 -25.731  0.00  0.00    -0.088 HD
ATOM     18  H3  UNL     1      33.720 -19.886 -24.572  0.00  0.00    -0.088 HD
ENDBRANCH  14  15
BRANCH  14  20
ATOM     19  OXT UNL     1      34.838 -16.732 -25.724  0.00  0.00    -0.253 OA
ATOM     20  C   UNL     1      35.023 -16.952 -24.534  0.00  0.00    +0.293 C 
BRANCH  20  21
ATOM     21  O   UNL     1      35.572 -16.033 -23.697  0.00  0.00    -0.482 OA
ATOM     22  H   UNL     1      36.425 -16.178 -23.336  0.00  0.00    +0.295 HD
ENDBRANCH  20  21
ENDBRANCH  14  20
ENDBRANCH  13  14
ENDBRANCH   2  13
TORSDOF 7
ENDMDL
MODEL 4
REMARK VINA RESULT:      -7.5      3.750      6.063
REMARK  Name = 9859632
REMARK  7 active torsions:
REMARK  status: ('A' for Active; 'I' for Inactive)
REMARK    1  A    between atoms: C_2  and  C_4
REMARK    2  A    between atoms: C_2  and  C_13
REMARK    3  A    between atoms: C_5  and  N_10
REMARK    4  A    between atoms: C_13  and  CA_14
REMARK    5  A    between atoms: CA_14  and  N_15
REMARK    6  A    between atoms: CA_14  and  C_20
REMARK    7  A    between atoms: C_20  and  O_21
REMARK                            x       y       z     vdW  Elec       q    Type
REMARK                         _______ _______ _______ _____ _____    ______ ____
ROOT
ATOM      1  O   UNL     1      36.272 -19.148 -20.476  0.00  0.00    -0.291 OA
ATOM      2  C   UNL     1      35.187 -19.234 -21.051  0.00  0.00    +0.173 C 
ENDROOT
BRANCH   2   4
ATOM      3 CL   UNL     1      34.046 -15.792 -25.791  0.00  0.00    -0.082 Cl
ATOM      4  C   UNL     1      34.903 -18.352 -22.221  0.00  0.00    +0.048 C 
ATOM      5  C   UNL     1      34.743 -16.996 -22.039  0.00  0.00    +0.045 C 
ATOM      6  C   UNL     1      34.810 -18.951 -23.458  0.00  0.00    +0.005 C 
ATOM      7  C   UNL     1      34.477 -16.198 -23.152  0.00  0.00    +0.026 C 
ATOM      8  C   UNL     1      34.542 -18.152 -24.571  0.00  0.00    +0.012 C 
ATOM      9  C   UNL     1      34.376 -16.776 -24.417  0.00  0.00    +0.059 C 
BRANCH   5  10
ATOM     10  N   UNL     1      34.841 -16.392 -20.766  0.00  0.00    -0.357 N 
ATOM     11  H   UNL     1      35.672 -16.473 -20.245  0.00  0.00    +0.142 HD
ATOM     12  H   UNL     1      34.076 -15.891 -20.399  0.00  0.00    +0.142 HD
ENDBRANCH   5  10
ENDBRANCH   2   4
BRANCH   2  13
ATOM     13  C   UNL     1      34.140 -20.225 -20.569  0.00  0.00    +0.058 C 
BRANCH  13  14
ATOM     14  CA  UNL     1      34.713 -21.208 -19.545  0.00  0.00    +0.043 C 
BRANCH  14  15
ATOM     15  N   UNL     1      35.865 -21.897 -20.133  0.00  0.00    +0.389 N 
ATOM     16  H1  UNL     1      36.702 -21.330 -20.003  0.00  0.00    -0.088 HD
ATOM     17  H2  UNL     1      35.703 -22.041 -21.129  0.00  0.00    -0.088 HD
ATOM     18  H3  UNL     1      35.991 -22.799 -19.674  0.00  0.00    -0.088 HD
ENDBRANCH  14  15
BRANCH  14  20
ATOM     19  OXT UNL     1      32.577 -22.055 -18.718  0.00  0.00    -0.253 OA
ATOM     20  C   UNL     1      33.686 -22.271 -19.189  0.00  0.00    +0.293 C 
BRANCH  20  21
ATOM     21  O   UNL     1      34.129 -23.523 -19.474  0.00  0.00    -0.482 OA
ATOM     22  H   UNL     1      34.578 -23.689 -20.280  0.00  0.00    +0.295 HD
ENDBRANCH  20  21
ENDBRANCH  14  20
ENDBRANCH  13  14
ENDBRANCH   2  13
TORSDOF 7
ENDMDL
MODEL 5
REMARK VINA RESULT:      -7.4      4.666      6.895
REMARK  Name = 9859632
REMARK  7 active torsions:
REMARK  status: ('A' for Active; 'I' for Inactive)
REMARK    1  A    between atoms: C_2  and  C_4
REMARK    2  A    between atoms: C_2  and  C_13
REMARK    3  A    between atoms: C_5  and  N_10
REMARK    4  A    between atoms: C_13  and  CA_14
REMARK    5  A    between atoms: CA_14  and  N_15
REMARK    6  A    between atoms: CA_14  and  C_20
REMARK    7  A    between atoms: C_20  and  O_21
REMARK                            x       y       z     vdW  Elec       q    Type
REMARK                         _______ _______ _______ _____ _____    ______ ____
ROOT
ATOM      1  O   UNL     1      34.072 -23.694 -19.521  0.00  0.00    -0.291 OA
ATOM      2  C   UNL     1      33.739 -22.615 -19.033  0.00  0.00    +0.173 C 
ENDROOT
BRANCH   2   4
ATOM      3 CL   UNL     1      34.936 -17.536 -21.929  0.00  0.00    -0.082 Cl
ATOM      4  C   UNL     1      34.064 -21.350 -19.755  0.00  0.00    +0.048 C 
ATOM      5  C   UNL     1      35.375 -20.954 -19.897  0.00  0.00    +0.045 C 
ATOM      6  C   UNL     1      33.010 -20.617 -20.257  0.00  0.00    +0.005 C 
ATOM      7  C   UNL     1      35.648 -19.766 -20.575  0.00  0.00    +0.026 C 
ATOM      8  C   UNL     1      33.283 -19.428 -20.934  0.00  0.00    +0.012 C 
ATOM      9  C   UNL     1      34.601 -19.003 -21.093  0.00  0.00    +0.059 C 
BRANCH   5  10
ATOM     10  N   UNL     1      36.449 -21.713 -19.378  0.00  0.00    -0.357 N 
ATOM     11  H   UNL     1      36.801 -21.517 -18.480  0.00  0.00    +0.142 HD
ATOM     12  H   UNL     1      36.845 -22.437 -19.916  0.00  0.00    +0.142 HD
ENDBRANCH   5  10
ENDBRANCH   2   4
BRANCH   2  13
ATOM     13  C   UNL     1      33.009 -22.569 -17.701  0.00  0.00    +0.058 C 
BRANCH  13  14
ATOM     14  CA  UNL     1      33.616 -23.538 -16.684  0.00  0.00    +0.043 C 
BRANCH  14  15
ATOM     15  N   UNL     1      32.689 -23.698 -15.560  0.00  0.00    +0.389 N 
ATOM     16  H1  UNL     1      32.511 -24.690 -15.405  0.00  0.00    -0.088 HD
ATOM     17  H2  UNL     1      31.812 -23.224 -15.772  0.00  0.00    -0.088 HD
ATOM     18  H3  UNL     1      33.101 -23.291 -14.720  0.00  0.00    -0.088 HD
ENDBRANCH  14  15
BRANCH  14  20
ATOM     19  OXT UNL     1      35.982 -22.936 -16.718  0.00  0.00    -0.253 OA
ATOM     20  C   UNL     1      34.914 -22.982 -16.122  0.00  0.00    +0.293 C 
BRANCH  20  21
ATOM     21  O   UNL     1      34.760 -22.509 -14.857  0.00  0.00    -0.482 OA
ATOM     22  H   UNL     1      34.337 -21.686 -14.713  0.00  0.00    +0.295 HD
ENDBRANCH  20  21
ENDBRANCH  14  20
ENDBRANCH  13  14
ENDBRANCH   2  13
TORSDOF 7
ENDMDL
MODEL 6
REMARK VINA RESULT:      -7.4      8.876     10.301
REMARK  Name = 9859632
REMARK  7 active torsions:
REMARK  status: ('A' for Active; 'I' for Inactive)
REMARK    1  A    between atoms: C_2  and  C_4
REMARK    2  A    between atoms: C_2  and  C_13
REMARK    3  A    between atoms: C_5  and  N_10
REMARK    4  A    between atoms: C_13  and  CA_14
REMARK    5  A    between atoms: CA_14  and  N_15
REMARK    6  A    between atoms: CA_14  and  C_20
REMARK    7  A    between atoms: C_20  and  O_21
REMARK                            x       y       z     vdW  Elec       q    Type
REMARK                         _______ _______ _______ _____ _____    ______ ____
ROOT
ATOM      1  O   UNL     1      37.663 -23.197 -12.988  0.00  0.00    -0.291 OA
ATOM      2  C   UNL     1      37.339 -23.715 -14.056  0.00  0.00    +0.173 C 
ENDROOT
BRANCH   2   4
ATOM      3 CL   UNL     1      31.638 -23.633 -15.820  0.00  0.00    -0.082 Cl
ATOM      4  C   UNL     1      35.906 -23.704 -14.474  0.00  0.00    +0.048 C 
ATOM      5  C   UNL     1      34.944 -24.242 -13.649  0.00  0.00    +0.045 C 
ATOM      6  C   UNL     1      35.607 -23.144 -15.697  0.00  0.00    +0.005 C 
ATOM      7  C   UNL     1      33.613 -24.220 -14.068  0.00  0.00    +0.026 C 
ATOM      8  C   UNL     1      34.276 -23.122 -16.116  0.00  0.00    +0.012 C 
ATOM      9  C   UNL     1      33.280 -23.660 -15.301  0.00  0.00    +0.059 C 
BRANCH   5  10
ATOM     10  N   UNL     1      35.261 -24.815 -12.397  0.00  0.00    -0.357 N 
ATOM     11  H   UNL     1      36.006 -25.454 -12.323  0.00  0.00    +0.142 HD
ATOM     12  H   UNL     1      34.737 -24.573 -11.599  0.00  0.00    +0.142 HD
ENDBRANCH   5  10
ENDBRANCH   2   4
BRANCH   2  13
ATOM     13  C   UNL     1      38.388 -24.369 -14.940  0.00  0.00    +0.058 C 
BRANCH  13  14
ATOM     14  CA  UNL     1      38.741 -25.778 -14.460  0.00  0.00    +0.043 C 
BRANCH  14  15
ATOM     15  N   UNL     1      38.596 -25.840 -13.002  0.00  0.00    +0.389 N 
ATOM     16  H1  UNL     1      38.987 -26.717 -12.659  0.00  0.00    -0.088 HD
ATOM     17  H2  UNL     1      37.609 -25.789 -12.757  0.00  0.00    -0.088 HD
ATOM     18  H3  UNL     1      39.094 -25.057 -12.579  0.00  0.00    -0.088 HD
ENDBRANCH  14  15
BRANCH  14  20
ATOM     19  OXT UNL     1      41.026 -26.493 -13.976  0.00  0.00    -0.253 OA
ATOM     20  C   UNL     1      40.190 -26.107 -14.782  0.00  0.00    +0.293 C 
BRANCH  20  21
ATOM     21  O   UNL     1      40.467 -25.944 -16.102  0.00  0.00    -0.482 OA
ATOM     22  H   UNL     1      40.240 -25.144 -16.534  0.00  0.00    +0.295 HD
ENDBRANCH  20  21
ENDBRANCH  14  20
ENDBRANCH  13  14
ENDBRANCH   2  13
TORSDOF 7
ENDMDL
MODEL 7
REMARK VINA RESULT:      -7.4      5.013      7.636
REMARK  Name = 9859632
REMARK  7 active torsions:
REMARK  status: ('A' for Active; 'I' for Inactive)
REMARK    1  A    between atoms: C_2  and  C_4
REMARK    2  A    between atoms: C_2  and  C_13
REMARK    3  A    between atoms: C_5  and  N_10
REMARK    4  A    between atoms: C_13  and  CA_14
REMARK    5  A    between atoms: CA_14  and  N_15
REMARK    6  A    between atoms: CA_14  and  C_20
REMARK    7  A    between atoms: C_20  and  O_21
REMARK                            x       y       z     vdW  Elec       q    Type
REMARK                         _______ _______ _______ _____ _____    ______ ____
ROOT
ATOM      1  O   UNL     1      34.438 -23.316 -17.796  0.00  0.00    -0.291 OA
ATOM      2  C   UNL     1      35.255 -22.406 -17.925  0.00  0.00    +0.173 C 
ENDROOT
BRANCH   2   4
ATOM      3 CL   UNL     1      34.904 -18.683 -22.577  0.00  0.00    -0.082 Cl
ATOM      4  C   UNL     1      35.141 -21.475 -19.087  0.00  0.00    +0.048 C 
ATOM      5  C   UNL     1      33.903 -21.168 -19.605  0.00  0.00    +0.045 C 
ATOM      6  C   UNL     1      36.309 -20.957 -19.601  0.00  0.00    +0.005 C 
ATOM      7  C   UNL     1      33.828 -20.297 -20.692  0.00  0.00    +0.026 C 
ATOM      8  C   UNL     1      36.235 -20.087 -20.689  0.00  0.00    +0.012 C 
ATOM      9  C   UNL     1      34.994 -19.757 -21.234  0.00  0.00    +0.059 C 
BRANCH   5  10
ATOM     10  N   UNL     1      32.710 -21.705 -19.071  0.00  0.00    -0.357 N 
ATOM     11  H   UNL     1      32.295 -21.293 -18.279  0.00  0.00    +0.142 HD
ATOM     12  H   UNL     1      32.294 -22.494 -19.491  0.00  0.00    +0.142 HD
ENDBRANCH   5  10
ENDBRANCH   2   4
BRANCH   2  13
ATOM     13  C   UNL     1      36.378 -22.234 -16.916  0.00  0.00    +0.058 C 
BRANCH  13  14
ATOM     14  CA  UNL     1      36.225 -23.180 -15.724  0.00  0.00    +0.043 C 
BRANCH  14  15
ATOM     15  N   UNL     1      35.203 -22.650 -14.817  0.00  0.00    +0.389 N 
ATOM     16  H1  UNL     1      34.302 -23.075 -15.034  0.00  0.00    -0.088 HD
ATOM     17  H2  UNL     1      35.139 -21.640 -14.931  0.00  0.00    -0.088 HD
ATOM     18  H3  UNL     1      35.458 -22.869 -13.854  0.00  0.00    -0.088 HD
ENDBRANCH  14  15
BRANCH  14  20
ATOM     19  OXT UNL     1      37.633 -23.105 -13.730  0.00  0.00    -0.253 OA
ATOM     20  C   UNL     1      37.523 -23.268 -14.938  0.00  0.00    +0.293 C 
BRANCH  20  21
ATOM     21  O   UNL     1      38.580 -23.575 -15.735  0.00  0.00    -0.482 OA
ATOM     22  H   UNL     1      39.367 -23.069 -15.685  0.00  0.00    +0.295 HD
ENDBRANCH  20  21
ENDBRANCH  14  20
ENDBRANCH  13  14
ENDBRANCH   2  13
TORSDOF 7
ENDMDL
MODEL 8
REMARK VINA RESULT:      -7.3      1.838      2.033
REMARK  Name = 9859632
REMARK  7 active torsions:
REMARK  status: ('A' for Active; 'I' for Inactive)
REMARK    1  A    between atoms: C_2  and  C_4
REMARK    2  A    between atoms: C_2  and  C_13
REMARK    3  A    between atoms: C_5  and  N_10
REMARK    4  A    between atoms: C_13  and  CA_14
REMARK    5  A    between atoms: CA_14  and  N_15
REMARK    6  A    between atoms: CA_14  and  C_20
REMARK    7  A    between atoms: C_20  and  O_21
REMARK                            x       y       z     vdW  Elec       q    Type
REMARK                         _______ _______ _______ _____ _____    ______ ____
ROOT
ATOM      1  O   UNL     1      36.026 -18.525 -22.866  0.00  0.00    -0.291 OA
ATOM      2  C   UNL     1      35.279 -18.282 -21.919  0.00  0.00    +0.173 C 
ENDROOT
BRANCH   2   4
ATOM      3 CL   UNL     1      33.334 -22.727 -18.444  0.00  0.00    -0.082 Cl
ATOM      4  C   UNL     1      34.817 -19.398 -21.042  0.00  0.00    +0.048 C 
ATOM      5  C   UNL     1      35.736 -20.161 -20.355  0.00  0.00    +0.045 C 
ATOM      6  C   UNL     1      33.460 -19.620 -20.960  0.00  0.00    +0.005 C 
ATOM      7  C   UNL     1      35.274 -21.198 -19.545  0.00  0.00    +0.026 C 
ATOM      8  C   UNL     1      32.998 -20.658 -20.150  0.00  0.00    +0.012 C 
ATOM      9  C   UNL     1      33.905 -21.447 -19.442  0.00  0.00    +0.059 C 
BRANCH   5  10
ATOM     10  N   UNL     1      37.126 -19.925 -20.446  0.00  0.00    -0.357 N 
ATOM     11  H   UNL     1      37.722 -20.205 -19.714  0.00  0.00    +0.142 HD
ATOM     12  H   UNL     1      37.499 -19.481 -21.243  0.00  0.00    +0.142 HD
ENDBRANCH   5  10
ENDBRANCH   2   4
BRANCH   2  13
ATOM     13  C   UNL     1      34.822 -16.858 -21.649  0.00  0.00    +0.058 C 
BRANCH  13  14
ATOM     14  CA  UNL     1      34.211 -16.209 -22.892  0.00  0.00    +0.043 C 
BRANCH  14  15
ATOM     15  N   UNL     1      35.265 -15.990 -23.887  0.00  0.00    +0.389 N 
ATOM     16  H1  UNL     1      35.652 -16.889 -24.175  0.00  0.00    -0.088 HD
ATOM     17  H2  UNL     1      36.003 -15.418 -23.480  0.00  0.00    -0.088 HD
ATOM     18  H3  UNL     1      34.872 -15.514 -24.698  0.00  0.00    -0.088 HD
ENDBRANCH  14  15
BRANCH  14  20
ATOM     19  OXT UNL     1      32.500 -14.653 -22.108  0.00  0.00    -0.253 OA
ATOM     20  C   UNL     1      33.623 -14.849 -22.553  0.00  0.00    +0.293 C 
BRANCH  20  21
ATOM     21  O   UNL     1      34.505 -13.841 -22.784  0.00  0.00    -0.482 OA
ATOM     22  H   UNL     1      35.222 -13.702 -22.198  0.00  0.00    +0.295 HD
ENDBRANCH  20  21
ENDBRANCH  14  20
ENDBRANCH  13  14
ENDBRANCH   2  13
TORSDOF 7
ENDMDL
MODEL 9
REMARK VINA RESULT:      -7.2      3.738      6.004
REMARK  Name = 9859632
REMARK  7 active torsions:
REMARK  status: ('A' for Active; 'I' for Inactive)
REMARK    1  A    between atoms: C_2  and  C_4
REMARK    2  A    between atoms: C_2  and  C_13
REMARK    3  A    between atoms: C_5  and  N_10
REMARK    4  A    between atoms: C_13  and  CA_14
REMARK    5  A    between atoms: CA_14  and  N_15
REMARK    6  A    between atoms: CA_14  and  C_20
REMARK    7  A    between atoms: C_20  and  O_21
REMARK                            x       y       z     vdW  Elec       q    Type
REMARK                         _______ _______ _______ _____ _____    ______ ____
ROOT
ATOM      1  O   UNL     1      36.720 -18.996 -20.561  0.00  0.00    -0.291 OA
ATOM      2  C   UNL     1      35.568 -18.822 -20.956  0.00  0.00    +0.173 C 
ENDROOT
BRANCH   2   4
ATOM      3 CL   UNL     1      34.015 -13.517 -23.207  0.00  0.00    -0.082 Cl
ATOM      4  C   UNL     1      35.184 -17.504 -21.543  0.00  0.00    +0.048 C 
ATOM      5  C   UNL     1      35.291 -17.297 -22.900  0.00  0.00    +0.045 C 
ATOM      6  C   UNL     1      34.731 -16.532 -20.678  0.00  0.00    +0.005 C 
ATOM      7  C   UNL     1      34.926 -16.055 -23.419  0.00  0.00    +0.026 C 
ATOM      8  C   UNL     1      34.367 -15.290 -21.197  0.00  0.00    +0.012 C 
ATOM      9  C   UNL     1      34.464 -15.051 -22.568  0.00  0.00    +0.059 C 
BRANCH   5  10
ATOM     10  N   UNL     1      35.757 -18.300 -23.779  0.00  0.00    -0.357 N 
ATOM     11  H   UNL     1      36.365 -18.065 -24.517  0.00  0.00    +0.142 HD
ATOM     12  H   UNL     1      35.473 -19.235 -23.653  0.00  0.00    +0.142 HD
ENDBRANCH   5  10
ENDBRANCH   2   4
BRANCH   2  13
ATOM     13  C   UNL     1      34.540 -19.936 -20.839  0.00  0.00    +0.058 C 
BRANCH  13  14
ATOM     14  CA  UNL     1      34.937 -20.971 -19.785  0.00  0.00    +0.043 C 
BRANCH  14  15
ATOM     15  N   UNL     1      36.135 -21.684 -20.238  0.00  0.00    +0.389 N 
ATOM     16  H1  UNL     1      35.895 -22.655 -20.440  0.00  0.00    -0.088 HD
ATOM     17  H2  UNL     1      36.845 -21.653 -19.508  0.00  0.00    -0.088 HD
ATOM     18  H3  UNL     1      36.494 -21.240 -21.083  0.00  0.00    -0.088 HD
ENDBRANCH  14  15
BRANCH  14  20
ATOM     19  OXT UNL     1      33.976 -23.105 -19.089  0.00  0.00    -0.253 OA
ATOM     20  C   UNL     1      33.837 -22.005 -19.607  0.00  0.00    +0.293 C 
BRANCH  20  21
ATOM     21  O   UNL     1      32.642 -21.563 -20.079  0.00  0.00    -0.482 OA
ATOM     22  H   UNL     1      32.187 -22.053 -20.735  0.00  0.00    +0.295 HD
ENDBRANCH  20  21
ENDBRANCH  14  20
ENDBRANCH  13  14
ENDBRANCH   2  13
TORSDOF 7
ENDMDL
