MODEL 1
REMARK VINA RESULT:      -9.8      0.000      0.000
REMARK  Name = 4410
REMARK  4 active torsions:
REMARK  status: ('A' for Active; 'I' for Inactive)
REMARK    1  A    between atoms: C_9  and  N_17
REMARK    2  A    between atoms: C_16  and  C_26
REMARK    3  A    between atoms: C_22  and  O_23
REMARK    4  A    between atoms: C_26  and  O_27
REMARK                            x       y       z     vdW  Elec       q    Type
REMARK                         _______ _______ _______ _____ _____    ______ ____
ROOT
ATOM      1  F   UNL     1      34.977 -19.916 -24.098  0.00  0.00    -0.203 F 
ATOM      2  O   UNL     1      34.133 -15.642 -26.609  0.00  0.00    -0.286 OA
ATOM      3  N   UNL     1      33.456 -14.738 -22.690  0.00  0.00    -0.287 N 
ATOM      4  C   UNL     1      33.948 -17.072 -22.044  0.00  0.00    +0.007 C 
ATOM      5  C   UNL     1      33.331 -14.374 -21.267  0.00  0.00    +0.078 C 
ATOM      6  C   UNL     1      33.679 -16.783 -20.592  0.00  0.00    +0.031 C 
ATOM      7  C   UNL     1      32.800 -15.549 -20.443  0.00  0.00    +0.025 C 
ATOM      8  C   UNL     1      33.828 -16.062 -23.020  0.00  0.00    +0.052 C 
ATOM      9  C   UNL     1      34.348 -18.367 -22.414  0.00  0.00    +0.073 C 
ATOM     10  C   UNL     1      34.076 -16.406 -24.368  0.00  0.00    +0.055 C 
ATOM     11  C   UNL     1      34.600 -18.678 -23.747  0.00  0.00    +0.153 C 
ATOM     12  C   UNL     1      34.666 -13.838 -20.742  0.00  0.00    +0.022 C 
ATOM     13  C   UNL     1      33.324 -13.800 -23.699  0.00  0.00    +0.075 C 
ATOM     14  C   UNL     1      34.459 -17.703 -24.727  0.00  0.00    +0.035 C 
ATOM     15  C   UNL     1      33.928 -15.377 -25.431  0.00  0.00    +0.204 C 
ATOM     16  C   UNL     1      33.520 -14.016 -25.005  0.00  0.00    +0.129 C 
ENDROOT
BRANCH   9  17
ATOM     17  N   UNL     1      34.509 -19.375 -21.455  0.00  0.00    -0.306 N 
ATOM     18  C   UNL     1      35.830 -19.505 -20.824  0.00  0.00    +0.093 C 
ATOM     19  C   UNL     1      33.356 -19.793 -20.649  0.00  0.00    +0.093 C 
ATOM     20  C   UNL     1      36.035 -20.922 -20.296  0.00  0.00    +0.051 C 
ATOM     21  C   UNL     1      33.560 -21.210 -20.115  0.00  0.00    +0.051 C 
ATOM     22  C   UNL     1      34.890 -21.347 -19.382  0.00  0.00    +0.114 C 
BRANCH  22  23
ATOM     23  O   UNL     1      35.061 -22.705 -18.995  0.00  0.00    -0.384 OA
ATOM     24  H   UNL     1      34.397 -23.255 -19.440  0.00  0.00    +0.210 HD
ENDBRANCH  22  23
ENDBRANCH   9  17
BRANCH  16  26
ATOM     25  O   UNL     1      33.718 -11.760 -25.729  0.00  0.00    -0.245 OA
ATOM     26  C   UNL     1      33.334 -12.899 -25.931  0.00  0.00    +0.342 C 
BRANCH  26  27
ATOM     27  O   UNL     1      32.676 -13.326 -27.030  0.00  0.00    -0.477 OA
ATOM     28  H   UNL     1      31.994 -12.801 -27.401  0.00  0.00    +0.295 HD
ENDBRANCH  26  27
ENDBRANCH  16  26
TORSDOF 4
ENDMDL
MODEL 2
REMARK VINA RESULT:      -9.7      4.750      7.130
REMARK  Name = 4410
REMARK  4 active torsions:
REMARK  status: ('A' for Active; 'I' for Inactive)
REMARK    1  A    between atoms: C_9  and  N_17
REMARK    2  A    between atoms: C_16  and  C_26
REMARK    3  A    between atoms: C_22  and  O_23
REMARK    4  A    between atoms: C_26  and  O_27
REMARK                            x       y       z     vdW  Elec       q    Type
REMARK                         _______ _______ _______ _____ _____    ______ ____
ROOT
ATOM      1  F   UNL     1      35.038 -11.474 -25.695  0.00  0.00    -0.203 F 
ATOM      2  O   UNL     1      33.757  -6.880 -24.104  0.00  0.00    -0.286 OA
ATOM      3  N   UNL     1      31.771  -9.460 -21.648  0.00  0.00    -0.287 N 
ATOM      4  C   UNL     1      32.704 -11.388 -22.883  0.00  0.00    +0.007 C 
ATOM      5  C   UNL     1      31.150 -10.384 -20.683  0.00  0.00    +0.078 C 
ATOM      6  C   UNL     1      31.964 -12.370 -22.015  0.00  0.00    +0.031 C 
ATOM      7  C   UNL     1      30.765 -11.705 -21.353  0.00  0.00    +0.025 C 
ATOM      8  C   UNL     1      32.582  -9.998 -22.674  0.00  0.00    +0.052 C 
ATOM      9  C   UNL     1      33.544 -11.878 -23.897  0.00  0.00    +0.073 C 
ATOM     10  C   UNL     1      33.289  -9.132 -23.538  0.00  0.00    +0.055 C 
ATOM     11  C   UNL     1      34.240 -11.004 -24.726  0.00  0.00    +0.153 C 
ATOM     12  C   UNL     1      32.070 -10.580 -19.475  0.00  0.00    +0.022 C 
ATOM     13  C   UNL     1      31.668  -8.087 -21.517  0.00  0.00    +0.075 C 
ATOM     14  C   UNL     1      34.111  -9.630 -24.554  0.00  0.00    +0.035 C 
ATOM     15  C   UNL     1      33.161  -7.659 -23.372  0.00  0.00    +0.204 C 
ATOM     16  C   UNL     1      32.279  -7.174 -22.282  0.00  0.00    +0.129 C 
ENDROOT
BRANCH   9  17
ATOM     17  N   UNL     1      33.707 -13.254 -24.097  0.00  0.00    -0.306 N 
ATOM     18  C   UNL     1      34.144 -14.059 -22.946  0.00  0.00    +0.093 C 
ATOM     19  C   UNL     1      32.880 -13.940 -25.097  0.00  0.00    +0.093 C 
ATOM     20  C   UNL     1      34.828 -15.339 -23.417  0.00  0.00    +0.051 C 
ATOM     21  C   UNL     1      33.561 -15.224 -25.567  0.00  0.00    +0.051 C 
ATOM     22  C   UNL     1      33.949 -16.115 -24.392  0.00  0.00    +0.114 C 
BRANCH  22  23
ATOM     23  O   UNL     1      34.660 -17.243 -24.889  0.00  0.00    -0.384 OA
ATOM     24  H   UNL     1      35.246 -16.965 -25.609  0.00  0.00    +0.210 HD
ENDBRANCH  22  23
ENDBRANCH   9  17
BRANCH  16  26
ATOM     25  O   UNL     1      31.697  -4.932 -22.815  0.00  0.00    -0.245 OA
ATOM     26  C   UNL     1      32.052  -5.759 -21.993  0.00  0.00    +0.342 C 
BRANCH  26  27
ATOM     27  O   UNL     1      32.296  -5.517 -20.687  0.00  0.00    -0.477 OA
ATOM     28  H   UNL     1      32.811  -4.776 -20.436  0.00  0.00    +0.295 HD
ENDBRANCH  26  27
ENDBRANCH  16  26
TORSDOF 4
ENDMDL
MODEL 3
REMARK VINA RESULT:      -8.3      3.219      7.242
REMARK  Name = 4410
REMARK  4 active torsions:
REMARK  status: ('A' for Active; 'I' for Inactive)
REMARK    1  A    between atoms: C_9  and  N_17
REMARK    2  A    between atoms: C_16  and  C_26
REMARK    3  A    between atoms: C_22  and  O_23
REMARK    4  A    between atoms: C_26  and  O_27
REMARK                            x       y       z     vdW  Elec       q    Type
REMARK                         _______ _______ _______ _____ _____    ______ ____
ROOT
ATOM      1  F   UNL     1      33.357 -12.043 -25.902  0.00  0.00    -0.203 F 
ATOM      2  O   UNL     1      34.635 -16.906 -25.987  0.00  0.00    -0.286 OA
ATOM      3  N   UNL     1      33.845 -16.071 -22.074  0.00  0.00    -0.287 N 
ATOM      4  C   UNL     1      33.367 -13.715 -22.651  0.00  0.00    +0.007 C 
ATOM      5  C   UNL     1      33.442 -15.808 -20.681  0.00  0.00    +0.078 C 
ATOM      6  C   UNL     1      33.095 -13.363 -21.213  0.00  0.00    +0.031 C 
ATOM      7  C   UNL     1      33.759 -14.365 -20.279  0.00  0.00    +0.025 C 
ATOM      8  C   UNL     1      33.726 -15.027 -23.021  0.00  0.00    +0.052 C 
ATOM      9  C   UNL     1      33.233 -12.717 -23.629  0.00  0.00    +0.073 C 
ATOM     10  C   UNL     1      33.986 -15.285 -24.386  0.00  0.00    +0.055 C 
ATOM     11  C   UNL     1      33.481 -12.999 -24.970  0.00  0.00    +0.153 C 
ATOM     12  C   UNL     1      31.967 -16.167 -20.483  0.00  0.00    +0.022 C 
ATOM     13  C   UNL     1      34.233 -17.330 -22.498  0.00  0.00    +0.075 C 
ATOM     14  C   UNL     1      33.864 -14.280 -25.351  0.00  0.00    +0.035 C 
ATOM     15  C   UNL     1      34.400 -16.648 -24.813  0.00  0.00    +0.204 C 
ATOM     16  C   UNL     1      34.516 -17.684 -23.757  0.00  0.00    +0.129 C 
ENDROOT
BRANCH   9  17
ATOM     17  N   UNL     1      32.842 -11.417 -23.287  0.00  0.00    -0.306 N 
ATOM     18  C   UNL     1      33.490 -10.305 -23.998  0.00  0.00    +0.093 C 
ATOM     19  C   UNL     1      31.474 -11.178 -22.809  0.00  0.00    +0.093 C 
ATOM     20  C   UNL     1      33.432  -9.029 -23.164  0.00  0.00    +0.051 C 
ATOM     21  C   UNL     1      31.413  -9.898 -21.977  0.00  0.00    +0.051 C 
ATOM     22  C   UNL     1      32.005  -8.711 -22.728  0.00  0.00    +0.114 C 
BRANCH  22  23
ATOM     23  O   UNL     1      32.004  -7.578 -21.868  0.00  0.00    -0.384 OA
ATOM     24  H   UNL     1      32.281  -6.794 -22.366  0.00  0.00    +0.210 HD
ENDBRANCH  22  23
ENDBRANCH   9  17
BRANCH  16  26
ATOM     25  O   UNL     1      35.570 -19.756 -23.259  0.00  0.00    -0.245 OA
ATOM     26  C   UNL     1      34.910 -19.067 -24.019  0.00  0.00    +0.342 C 
BRANCH  26  27
ATOM     27  O   UNL     1      34.434 -19.455 -25.221  0.00  0.00    -0.477 OA
ATOM     28  H   UNL     1      34.996 -19.895 -25.828  0.00  0.00    +0.295 HD
ENDBRANCH  26  27
ENDBRANCH  16  26
TORSDOF 4
ENDMDL
MODEL 4
REMARK VINA RESULT:      -7.9      5.646      8.832
REMARK  Name = 4410
REMARK  4 active torsions:
REMARK  status: ('A' for Active; 'I' for Inactive)
REMARK    1  A    between atoms: C_9  and  N_17
REMARK    2  A    between atoms: C_16  and  C_26
REMARK    3  A    between atoms: C_22  and  O_23
REMARK    4  A    between atoms: C_26  and  O_27
REMARK                            x       y       z     vdW  Elec       q    Type
REMARK                         _______ _______ _______ _____ _____    ______ ____
ROOT
ATOM      1  F   UNL     1      38.540 -22.512 -15.885  0.00  0.00    -0.203 F 
ATOM      2  O   UNL     1      36.370 -20.197 -19.786  0.00  0.00    -0.286 OA
ATOM      3  N   UNL     1      33.440 -22.512 -18.144  0.00  0.00    -0.287 N 
ATOM      4  C   UNL     1      35.029 -23.357 -16.449  0.00  0.00    +0.007 C 
ATOM      5  C   UNL     1      32.349 -23.249 -17.484  0.00  0.00    +0.078 C 
ATOM      6  C   UNL     1      33.981 -24.246 -15.834  0.00  0.00    +0.031 C 
ATOM      7  C   UNL     1      32.866 -24.532 -16.831  0.00  0.00    +0.025 C 
ATOM      8  C   UNL     1      34.728 -22.541 -17.559  0.00  0.00    +0.052 C 
ATOM      9  C   UNL     1      36.314 -23.333 -15.882  0.00  0.00    +0.073 C 
ATOM     10  C   UNL     1      35.763 -21.746 -18.100  0.00  0.00    +0.055 C 
ATOM     11  C   UNL     1      37.313 -22.530 -16.425  0.00  0.00    +0.153 C 
ATOM     12  C   UNL     1      31.620 -22.334 -16.495  0.00  0.00    +0.022 C 
ATOM     13  C   UNL     1      33.219 -21.714 -19.253  0.00  0.00    +0.075 C 
ATOM     14  C   UNL     1      37.044 -21.740 -17.537  0.00  0.00    +0.035 C 
ATOM     15  C   UNL     1      35.496 -20.897 -19.291  0.00  0.00    +0.204 C 
ATOM     16  C   UNL     1      34.124 -20.933 -19.855  0.00  0.00    +0.129 C 
ENDROOT
BRANCH   9  17
ATOM     17  N   UNL     1      36.622 -24.107 -14.758  0.00  0.00    -0.306 N 
ATOM     18  C   UNL     1      37.463 -25.296 -14.964  0.00  0.00    +0.093 C 
ATOM     19  C   UNL     1      36.714 -23.463 -13.442  0.00  0.00    +0.093 C 
ATOM     20  C   UNL     1      37.231 -26.316 -13.854  0.00  0.00    +0.051 C 
ATOM     21  C   UNL     1      36.486 -24.483 -12.328  0.00  0.00    +0.051 C 
ATOM     22  C   UNL     1      37.407 -25.689 -12.474  0.00  0.00    +0.114 C 
BRANCH  22  23
ATOM     23  O   UNL     1      37.080 -26.640 -11.468  0.00  0.00    -0.384 OA
ATOM     24  H   UNL     1      37.689 -27.392 -11.523  0.00  0.00    +0.210 HD
ENDBRANCH  22  23
ENDBRANCH   9  17
BRANCH  16  26
ATOM     25  O   UNL     1      32.600 -19.664 -21.166  0.00  0.00    -0.245 OA
ATOM     26  C   UNL     1      33.706 -20.155 -21.021  0.00  0.00    +0.342 C 
BRANCH  26  27
ATOM     27  O   UNL     1      34.729 -20.069 -21.899  0.00  0.00    -0.477 OA
ATOM     28  H   UNL     1      35.201 -20.839 -22.145  0.00  0.00    +0.295 HD
ENDBRANCH  26  27
ENDBRANCH  16  26
TORSDOF 4
ENDMDL
MODEL 5
REMARK VINA RESULT:      -7.5      1.714      3.362
REMARK  Name = 4410
REMARK  4 active torsions:
REMARK  status: ('A' for Active; 'I' for Inactive)
REMARK    1  A    between atoms: C_9  and  N_17
REMARK    2  A    between atoms: C_16  and  C_26
REMARK    3  A    between atoms: C_22  and  O_23
REMARK    4  A    between atoms: C_26  and  O_27
REMARK                            x       y       z     vdW  Elec       q    Type
REMARK                         _______ _______ _______ _____ _____    ______ ____
ROOT
ATOM      1  F   UNL     1      35.072 -16.535 -19.647  0.00  0.00    -0.203 F 
ATOM      2  O   UNL     1      33.825 -13.197 -23.195  0.00  0.00    -0.286 OA
ATOM      3  N   UNL     1      34.056 -16.782 -25.126  0.00  0.00    -0.287 N 
ATOM      4  C   UNL     1      34.702 -17.900 -23.018  0.00  0.00    +0.007 C 
ATOM      5  C   UNL     1      34.017 -18.091 -25.804  0.00  0.00    +0.078 C 
ATOM      6  C   UNL     1      34.825 -19.236 -23.702  0.00  0.00    +0.031 C 
ATOM      7  C   UNL     1      35.039 -19.055 -25.198  0.00  0.00    +0.025 C 
ATOM      8  C   UNL     1      34.331 -16.747 -23.739  0.00  0.00    +0.052 C 
ATOM      9  C   UNL     1      34.938 -17.823 -21.635  0.00  0.00    +0.073 C 
ATOM     10  C   UNL     1      34.253 -15.522 -23.039  0.00  0.00    +0.055 C 
ATOM     11  C   UNL     1      34.842 -16.607 -20.966  0.00  0.00    +0.153 C 
ATOM     12  C   UNL     1      32.592 -18.650 -25.785  0.00  0.00    +0.022 C 
ATOM     13  C   UNL     1      33.730 -15.608 -25.782  0.00  0.00    +0.075 C 
ATOM     14  C   UNL     1      34.506 -15.453 -21.665  0.00  0.00    +0.035 C 
ATOM     15  C   UNL     1      33.899 -14.276 -23.770  0.00  0.00    +0.204 C 
ATOM     16  C   UNL     1      33.639 -14.395 -25.226  0.00  0.00    +0.129 C 
ENDROOT
BRANCH   9  17
ATOM     17  N   UNL     1      35.271 -18.964 -20.894  0.00  0.00    -0.306 N 
ATOM     18  C   UNL     1      34.285 -20.054 -20.850  0.00  0.00    +0.093 C 
ATOM     19  C   UNL     1      36.680 -19.352 -20.763  0.00  0.00    +0.093 C 
ATOM     20  C   UNL     1      34.489 -20.909 -19.603  0.00  0.00    +0.051 C 
ATOM     21  C   UNL     1      36.886 -20.212 -19.518  0.00  0.00    +0.051 C 
ATOM     22  C   UNL     1      35.929 -21.399 -19.491  0.00  0.00    +0.114 C 
BRANCH  22  23
ATOM     23  O   UNL     1      36.106 -22.102 -18.267  0.00  0.00    -0.384 OA
ATOM     24  H   UNL     1      35.593 -22.925 -18.290  0.00  0.00    +0.210 HD
ENDBRANCH  22  23
ENDBRANCH   9  17
BRANCH  16  26
ATOM     25  O   UNL     1      32.604 -13.345 -27.091  0.00  0.00    -0.245 OA
ATOM     26  C   UNL     1      33.280 -13.263 -26.080  0.00  0.00    +0.342 C 
BRANCH  26  27
ATOM     27  O   UNL     1      33.809 -12.128 -25.576  0.00  0.00    -0.477 OA
ATOM     28  H   UNL     1      34.012 -12.070 -24.663  0.00  0.00    +0.295 HD
ENDBRANCH  26  27
ENDBRANCH  16  26
TORSDOF 4
ENDMDL
MODEL 6
REMARK VINA RESULT:      -7.5      4.560      7.241
REMARK  Name = 4410
REMARK  4 active torsions:
REMARK  status: ('A' for Active; 'I' for Inactive)
REMARK    1  A    between atoms: C_9  and  N_17
REMARK    2  A    between atoms: C_16  and  C_26
REMARK    3  A    between atoms: C_22  and  O_23
REMARK    4  A    between atoms: C_26  and  O_27
REMARK                            x       y       z     vdW  Elec       q    Type
REMARK                         _______ _______ _______ _____ _____    ______ ____
ROOT
ATOM      1  F   UNL     1      31.764 -14.135 -21.455  0.00  0.00    -0.203 F 
ATOM      2  O   UNL     1      31.165  -9.489 -19.629  0.00  0.00    -0.286 OA
ATOM      3  N   UNL     1      33.510  -9.049 -22.937  0.00  0.00    -0.287 N 
ATOM      4  C   UNL     1      33.478 -11.493 -23.310  0.00  0.00    +0.007 C 
ATOM      5  C   UNL     1      34.252  -8.870 -24.198  0.00  0.00    +0.078 C 
ATOM      6  C   UNL     1      34.366 -11.373 -24.520  0.00  0.00    +0.031 C 
ATOM      7  C   UNL     1      35.156 -10.072 -24.480  0.00  0.00    +0.025 C 
ATOM      8  C   UNL     1      33.092 -10.352 -22.577  0.00  0.00    +0.052 C 
ATOM      9  C   UNL     1      33.016 -12.764 -22.933  0.00  0.00    +0.073 C 
ATOM     10  C   UNL     1      32.274 -10.537 -21.441  0.00  0.00    +0.055 C 
ATOM     11  C   UNL     1      32.200 -12.920 -21.816  0.00  0.00    +0.153 C 
ATOM     12  C   UNL     1      33.280  -8.578 -25.344  0.00  0.00    +0.022 C 
ATOM     13  C   UNL     1      33.122  -7.974 -22.157  0.00  0.00    +0.075 C 
ATOM     14  C   UNL     1      31.831 -11.810 -21.064  0.00  0.00    +0.035 C 
ATOM     15  C   UNL     1      31.872  -9.363 -20.621  0.00  0.00    +0.204 C 
ATOM     16  C   UNL     1      32.363  -8.033 -21.057  0.00  0.00    +0.129 C 
ENDROOT
BRANCH   9  17
ATOM     17  N   UNL     1      33.358 -13.906 -23.669  0.00  0.00    -0.306 N 
ATOM     18  C   UNL     1      33.997 -15.013 -22.943  0.00  0.00    +0.093 C 
ATOM     19  C   UNL     1      32.560 -14.270 -24.846  0.00  0.00    +0.093 C 
ATOM     20  C   UNL     1      34.817 -15.876 -23.897  0.00  0.00    +0.051 C 
ATOM     21  C   UNL     1      33.378 -15.138 -25.800  0.00  0.00    +0.051 C 
ATOM     22  C   UNL     1      33.983 -16.341 -25.086  0.00  0.00    +0.114 C 
BRANCH  22  23
ATOM     23  O   UNL     1      34.805 -17.052 -26.003  0.00  0.00    -0.384 OA
ATOM     24  H   UNL     1      35.233 -17.793 -25.547  0.00  0.00    +0.210 HD
ENDBRANCH  22  23
ENDBRANCH   9  17
BRANCH  16  26
ATOM     25  O   UNL     1      31.304  -5.922 -20.780  0.00  0.00    -0.245 OA
ATOM     26  C   UNL     1      32.053  -6.786 -20.357  0.00  0.00    +0.342 C 
BRANCH  26  27
ATOM     27  O   UNL     1      32.722  -6.745 -19.185  0.00  0.00    -0.477 OA
ATOM     28  H   UNL     1      33.187  -7.501 -18.884  0.00  0.00    +0.295 HD
ENDBRANCH  26  27
ENDBRANCH  16  26
TORSDOF 4
ENDMDL
MODEL 7
REMARK VINA RESULT:      -7.5      4.877      9.289
REMARK  Name = 4410
REMARK  4 active torsions:
REMARK  status: ('A' for Active; 'I' for Inactive)
REMARK    1  A    between atoms: C_9  and  N_17
REMARK    2  A    between atoms: C_16  and  C_26
REMARK    3  A    between atoms: C_22  and  O_23
REMARK    4  A    between atoms: C_26  and  O_27
REMARK                            x       y       z     vdW  Elec       q    Type
REMARK                         _______ _______ _______ _____ _____    ______ ____
ROOT
ATOM      1  F   UNL     1      34.076 -10.412 -25.804  0.00  0.00    -0.203 F 
ATOM      2  O   UNL     1      33.689 -14.891 -23.552  0.00  0.00    -0.286 OA
ATOM      3  N   UNL     1      32.147 -12.214 -20.890  0.00  0.00    -0.287 N 
ATOM      4  C   UNL     1      32.635 -10.354 -22.444  0.00  0.00    +0.007 C 
ATOM      5  C   UNL     1      31.478 -11.270 -19.977  0.00  0.00    +0.078 C 
ATOM      6  C   UNL     1      32.101  -9.334 -21.476  0.00  0.00    +0.031 C 
ATOM      7  C   UNL     1      32.116  -9.881 -20.055  0.00  0.00    +0.025 C 
ATOM      8  C   UNL     1      32.641 -11.727 -22.123  0.00  0.00    +0.052 C 
ATOM      9  C   UNL     1      33.110  -9.919 -23.693  0.00  0.00    +0.073 C 
ATOM     10  C   UNL     1      33.175 -12.630 -23.070  0.00  0.00    +0.055 C 
ATOM     11  C   UNL     1      33.619 -10.830 -24.614  0.00  0.00    +0.153 C 
ATOM     12  C   UNL     1      29.973 -11.246 -20.257  0.00  0.00    +0.022 C 
ATOM     13  C   UNL     1      32.211 -13.570 -20.622  0.00  0.00    +0.075 C 
ATOM     14  C   UNL     1      33.660 -12.184 -24.305  0.00  0.00    +0.035 C 
ATOM     15  C   UNL     1      33.230 -14.082 -22.756  0.00  0.00    +0.204 C 
ATOM     16  C   UNL     1      32.706 -14.510 -21.436  0.00  0.00    +0.129 C 
ENDROOT
BRANCH   9  17
ATOM     17  N   UNL     1      33.079  -8.565 -24.046  0.00  0.00    -0.306 N 
ATOM     18  C   UNL     1      31.815  -7.842 -23.847  0.00  0.00    +0.093 C 
ATOM     19  C   UNL     1      34.309  -7.768 -23.954  0.00  0.00    +0.093 C 
ATOM     20  C   UNL     1      31.738  -6.633 -24.774  0.00  0.00    +0.051 C 
ATOM     21  C   UNL     1      34.232  -6.555 -24.878  0.00  0.00    +0.051 C 
ATOM     22  C   UNL     1      32.967  -5.741 -24.632  0.00  0.00    +0.114 C 
BRANCH  22  23
ATOM     23  O   UNL     1      32.909  -4.685 -25.584  0.00  0.00    -0.384 OA
ATOM     24  H   UNL     1      32.110  -4.780 -26.124  0.00  0.00    +0.210 HD
ENDBRANCH  22  23
ENDBRANCH   9  17
BRANCH  16  26
ATOM     25  O   UNL     1      31.690 -16.504 -20.631  0.00  0.00    -0.245 OA
ATOM     26  C   UNL     1      32.690 -15.901 -20.983  0.00  0.00    +0.342 C 
BRANCH  26  27
ATOM     27  O   UNL     1      33.943 -16.403 -21.015  0.00  0.00    -0.477 OA
ATOM     28  H   UNL     1      34.122 -17.240 -20.633  0.00  0.00    +0.295 HD
ENDBRANCH  26  27
ENDBRANCH  16  26
TORSDOF 4
ENDMDL
MODEL 8
REMARK VINA RESULT:      -7.4      2.915      8.758
REMARK  Name = 4410
REMARK  4 active torsions:
REMARK  status: ('A' for Active; 'I' for Inactive)
REMARK    1  A    between atoms: C_9  and  N_17
REMARK    2  A    between atoms: C_16  and  C_26
REMARK    3  A    between atoms: C_22  and  O_23
REMARK    4  A    between atoms: C_26  and  O_27
REMARK                            x       y       z     vdW  Elec       q    Type
REMARK                         _______ _______ _______ _____ _____    ______ ____
ROOT
ATOM      1  F   UNL     1      31.845 -19.692 -21.338  0.00  0.00    -0.203 F 
ATOM      2  O   UNL     1      31.677 -22.810 -17.397  0.00  0.00    -0.286 OA
ATOM      3  N   UNL     1      35.643 -22.115 -18.048  0.00  0.00    -0.287 N 
ATOM      4  C   UNL     1      35.095 -20.676 -19.982  0.00  0.00    +0.007 C 
ATOM      5  C   UNL     1      37.068 -21.771 -18.201  0.00  0.00    +0.078 C 
ATOM      6  C   UNL     1      36.550 -20.419 -20.271  0.00  0.00    +0.031 C 
ATOM      7  C   UNL     1      37.419 -21.514 -19.668  0.00  0.00    +0.025 C 
ATOM      8  C   UNL     1      34.702 -21.498 -18.906  0.00  0.00    +0.052 C 
ATOM      9  C   UNL     1      34.125 -20.060 -20.791  0.00  0.00    +0.073 C 
ATOM     10  C   UNL     1      33.321 -21.713 -18.703  0.00  0.00    +0.055 C 
ATOM     11  C   UNL     1      32.769 -20.277 -20.562  0.00  0.00    +0.153 C 
ATOM     12  C   UNL     1      37.424 -20.591 -17.292  0.00  0.00    +0.022 C 
ATOM     13  C   UNL     1      35.193 -22.937 -17.030  0.00  0.00    +0.075 C 
ATOM     14  C   UNL     1      32.363 -21.108 -19.524  0.00  0.00    +0.035 C 
ATOM     15  C   UNL     1      32.866 -22.600 -17.599  0.00  0.00    +0.204 C 
ATOM     16  C   UNL     1      33.915 -23.221 -16.753  0.00  0.00    +0.129 C 
ENDROOT
BRANCH   9  17
ATOM     17  N   UNL     1      34.493 -19.211 -21.842  0.00  0.00    -0.306 N 
ATOM     18  C   UNL     1      34.972 -17.867 -21.490  0.00  0.00    +0.093 C 
ATOM     19  C   UNL     1      35.022 -19.789 -23.083  0.00  0.00    +0.093 C 
ATOM     20  C   UNL     1      34.768 -16.904 -22.655  0.00  0.00    +0.051 C 
ATOM     21  C   UNL     1      34.823 -18.825 -24.251  0.00  0.00    +0.051 C 
ATOM     22  C   UNL     1      35.388 -17.444 -23.940  0.00  0.00    +0.114 C 
BRANCH  22  23
ATOM     23  O   UNL     1      35.087 -16.572 -25.024  0.00  0.00    -0.384 OA
ATOM     24  H   UNL     1      34.487 -17.017 -25.641  0.00  0.00    +0.210 HD
ENDBRANCH  22  23
ENDBRANCH   9  17
BRANCH  16  26
ATOM     25  O   UNL     1      34.310 -25.075 -15.318  0.00  0.00    -0.245 OA
ATOM     26  C   UNL     1      33.628 -24.114 -15.632  0.00  0.00    +0.342 C 
BRANCH  26  27
ATOM     27  O   UNL     1      32.501 -23.711 -15.007  0.00  0.00    -0.477 OA
ATOM     28  H   UNL     1      31.796 -23.344 -15.503  0.00  0.00    +0.295 HD
ENDBRANCH  26  27
ENDBRANCH  16  26
TORSDOF 4
ENDMDL
MODEL 9
REMARK VINA RESULT:      -7.1      9.072     10.926
REMARK  Name = 4410
REMARK  4 active torsions:
REMARK  status: ('A' for Active; 'I' for Inactive)
REMARK    1  A    between atoms: C_9  and  N_17
REMARK    2  A    between atoms: C_16  and  C_26
REMARK    3  A    between atoms: C_22  and  O_23
REMARK    4  A    between atoms: C_26  and  O_27
REMARK                            x       y       z     vdW  Elec       q    Type
REMARK                         _______ _______ _______ _____ _____    ______ ____
ROOT
ATOM      1  F   UNL     1      35.614 -22.989 -17.140  0.00  0.00    -0.203 F 
ATOM      2  O   UNL     1      30.800 -21.984 -18.189  0.00  0.00    -0.286 OA
ATOM      3  N   UNL     1      30.736 -23.920 -14.600  0.00  0.00    -0.287 N 
ATOM      4  C   UNL     1      33.195 -24.164 -14.664  0.00  0.00    +0.007 C 
ATOM      5  C   UNL     1      30.717 -24.508 -13.248  0.00  0.00    +0.078 C 
ATOM      6  C   UNL     1      33.209 -24.908 -13.355  0.00  0.00    +0.031 C 
ATOM      7  C   UNL     1      31.846 -25.526 -13.074  0.00  0.00    +0.025 C 
ATOM      8  C   UNL     1      31.986 -23.709 -15.228  0.00  0.00    +0.052 C 
ATOM      9  C   UNL     1      34.416 -23.907 -15.309  0.00  0.00    +0.073 C 
ATOM     10  C   UNL     1      32.043 -23.036 -16.468  0.00  0.00    +0.055 C 
ATOM     11  C   UNL     1      34.447 -23.229 -16.524  0.00  0.00    +0.153 C 
ATOM     12  C   UNL     1      30.751 -23.400 -12.192  0.00  0.00    +0.022 C 
ATOM     13  C   UNL     1      29.582 -23.477 -15.222  0.00  0.00    +0.075 C 
ATOM     14  C   UNL     1      33.263 -22.798 -17.110  0.00  0.00    +0.035 C 
ATOM     15  C   UNL     1      30.786 -22.569 -17.113  0.00  0.00    +0.204 C 
ATOM     16  C   UNL     1      29.516 -22.842 -16.398  0.00  0.00    +0.129 C 
ENDROOT
BRANCH   9  17
ATOM     17  N   UNL     1      35.631 -24.318 -14.747  0.00  0.00    -0.306 N 
ATOM     18  C   UNL     1      36.263 -25.522 -15.308  0.00  0.00    +0.093 C 
ATOM     19  C   UNL     1      36.534 -23.315 -14.169  0.00  0.00    +0.093 C 
ATOM     20  C   UNL     1      37.190 -26.167 -14.282  0.00  0.00    +0.051 C 
ATOM     21  C   UNL     1      37.466 -23.960 -13.144  0.00  0.00    +0.051 C 
ATOM     22  C   UNL     1      38.197 -25.163 -13.730  0.00  0.00    +0.114 C 
BRANCH  22  23
ATOM     23  O   UNL     1      38.972 -25.772 -12.704  0.00  0.00    -0.384 OA
ATOM     24  H   UNL     1      38.943 -25.221 -11.906  0.00  0.00    +0.210 HD
ENDBRANCH  22  23
ENDBRANCH   9  17
BRANCH  16  26
ATOM     25  O   UNL     1      27.492 -21.594 -16.393  0.00  0.00    -0.245 OA
ATOM     26  C   UNL     1      28.201 -22.446 -16.901  0.00  0.00    +0.342 C 
BRANCH  26  27
ATOM     27  O   UNL     1      27.901 -23.165 -18.004  0.00  0.00    -0.477 OA
ATOM     28  H   UNL     1      28.561 -23.333 -18.647  0.00  0.00    +0.295 HD
ENDBRANCH  26  27
ENDBRANCH  16  26
TORSDOF 4
ENDMDL
