MODEL 1
REMARK VINA RESULT:      -9.5      0.000      0.000
REMARK  Name = 76071881
REMARK  2 active torsions:
REMARK  status: ('A' for Active; 'I' for Inactive)
REMARK    1  A    between atoms: C_2  and  N_14
REMARK    2  A    between atoms: C_9  and  C_22
REMARK                            x       y       z     vdW  Elec       q    Type
REMARK                         _______ _______ _______ _____ _____    ______ ____
ROOT
ATOM      1  N   UNL     1      34.207 -21.423 -19.733  0.00  0.00    -0.234 NA
ATOM      2  C   UNL     1      36.539 -23.267 -15.637  0.00  0.00    +0.070 C 
ATOM      3  C   UNL     1      35.270 -23.452 -16.189  0.00  0.00    +0.016 C 
ATOM      4  C   UNL     1      37.452 -22.414 -16.253  0.00  0.00    +0.016 C 
ATOM      5  C   UNL     1      34.900 -22.785 -17.368  0.00  0.00    +0.005 C 
ATOM      6  C   UNL     1      35.827 -21.923 -17.989  0.00  0.00    +0.028 C 
ATOM      7  C   UNL     1      37.100 -21.743 -17.424  0.00  0.00    +0.004 C 
ATOM      8  C   UNL     1      33.636 -22.951 -17.946  0.00  0.00    +0.021 C 
ATOM      9  C   UNL     1      35.422 -21.277 -19.159  0.00  0.00    +0.149 C 
ATOM     10  C   UNL     1      33.345 -22.257 -19.111  0.00  0.00    +0.100 C 
ENDROOT
BRANCH   2  14
ATOM     11  S   UNL     1      38.213 -25.079 -14.618  0.00  0.00    +0.113 S 
ATOM     12  O   UNL     1      37.716 -26.276 -15.270  0.00  0.00    -0.138 OA
ATOM     13  O   UNL     1      39.370 -24.385 -15.153  0.00  0.00    -0.138 OA
ATOM     14  N   UNL     1      36.905 -23.961 -14.421  0.00  0.00    -0.181 N 
ATOM     15  N   UNL     1      38.520 -25.443 -12.964  0.00  0.00    -0.166 NA
ATOM     16  C   UNL     1      36.254 -24.790 -12.163  0.00  0.00    +0.039 C 
ATOM     17  C   UNL     1      35.769 -24.457 -13.583  0.00  0.00    +0.118 C 
ATOM     18  C   UNL     1      37.343 -25.869 -12.162  0.00  0.00    +0.095 C 
ATOM     19  C   UNL     1      36.705 -23.531 -11.413  0.00  0.00    +0.003 C 
ATOM     20  H   UNL     1      38.909 -24.608 -12.527  0.00  0.00    +0.150 HD
ENDBRANCH   2  14
BRANCH   9  22
ATOM     21  N   UNL     1      36.946 -19.647 -20.477  0.00  0.00    -0.189 NA
ATOM     22  C   UNL     1      36.263 -20.378 -19.887  0.00  0.00    +0.120 C 
ENDBRANCH   9  22
TORSDOF 2
ENDMDL
MODEL 2
REMARK VINA RESULT:      -8.9      5.744      9.342
REMARK  Name = 76071881
REMARK  2 active torsions:
REMARK  status: ('A' for Active; 'I' for Inactive)
REMARK    1  A    between atoms: C_2  and  N_14
REMARK    2  A    between atoms: C_9  and  C_22
REMARK                            x       y       z     vdW  Elec       q    Type
REMARK                         _______ _______ _______ _____ _____    ______ ____
ROOT
ATOM      1  N   UNL     1      35.395 -22.598 -18.004  0.00  0.00    -0.234 NA
ATOM      2  C   UNL     1      34.269 -18.933 -21.307  0.00  0.00    +0.070 C 
ATOM      3  C   UNL     1      35.466 -19.417 -20.777  0.00  0.00    +0.016 C 
ATOM      4  C   UNL     1      33.054 -19.495 -20.922  0.00  0.00    +0.016 C 
ATOM      5  C   UNL     1      35.461 -20.475 -19.853  0.00  0.00    +0.005 C 
ATOM      6  C   UNL     1      34.229 -21.043 -19.466  0.00  0.00    +0.028 C 
ATOM      7  C   UNL     1      33.031 -20.547 -20.006  0.00  0.00    +0.004 C 
ATOM      8  C   UNL     1      36.644 -20.984 -19.304  0.00  0.00    +0.021 C 
ATOM      9  C   UNL     1      34.264 -22.093 -18.546  0.00  0.00    +0.149 C 
ATOM     10  C   UNL     1      36.556 -22.030 -18.398  0.00  0.00    +0.100 C 
ENDROOT
BRANCH   2  14
ATOM     11  S   UNL     1      34.761 -18.312 -23.856  0.00  0.00    +0.113 S 
ATOM     12  O   UNL     1      36.199 -18.501 -23.888  0.00  0.00    -0.138 OA
ATOM     13  O   UNL     1      33.878 -19.359 -24.334  0.00  0.00    -0.138 OA
ATOM     14  N   UNL     1      34.291 -17.841 -22.257  0.00  0.00    -0.181 N 
ATOM     15  N   UNL     1      34.380 -16.860 -24.697  0.00  0.00    -0.166 NA
ATOM     16  C   UNL     1      34.494 -15.395 -22.687  0.00  0.00    +0.039 C 
ATOM     17  C   UNL     1      34.895 -16.561 -21.770  0.00  0.00    +0.118 C 
ATOM     18  C   UNL     1      34.954 -15.610 -24.133  0.00  0.00    +0.095 C 
ATOM     19  C   UNL     1      32.989 -15.111 -22.609  0.00  0.00    +0.003 C 
ATOM     20  H   UNL     1      33.365 -16.760 -24.706  0.00  0.00    +0.150 HD
ENDBRANCH   2  14
BRANCH   9  22
ATOM     21  N   UNL     1      32.136 -23.294 -17.684  0.00  0.00    -0.189 NA
ATOM     22  C   UNL     1      33.090 -22.756 -18.070  0.00  0.00    +0.120 C 
ENDBRANCH   9  22
TORSDOF 2
ENDMDL
MODEL 3
REMARK VINA RESULT:      -8.9      4.304      8.263
REMARK  Name = 76071881
REMARK  2 active torsions:
REMARK  status: ('A' for Active; 'I' for Inactive)
REMARK    1  A    between atoms: C_2  and  N_14
REMARK    2  A    between atoms: C_9  and  C_22
REMARK                            x       y       z     vdW  Elec       q    Type
REMARK                         _______ _______ _______ _____ _____    ______ ____
ROOT
ATOM      1  N   UNL     1      35.211 -23.281 -16.195  0.00  0.00    -0.234 NA
ATOM      2  C   UNL     1      34.850 -20.578 -20.459  0.00  0.00    +0.070 C 
ATOM      3  C   UNL     1      35.913 -20.913 -19.617  0.00  0.00    +0.016 C 
ATOM      4  C   UNL     1      33.562 -21.023 -20.171  0.00  0.00    +0.016 C 
ATOM      5  C   UNL     1      35.697 -21.700 -18.474  0.00  0.00    +0.005 C 
ATOM      6  C   UNL     1      34.391 -22.149 -18.186  0.00  0.00    +0.028 C 
ATOM      7  C   UNL     1      33.331 -21.805 -19.039  0.00  0.00    +0.004 C 
ATOM      8  C   UNL     1      36.741 -22.053 -17.611  0.00  0.00    +0.021 C 
ATOM      9  C   UNL     1      34.216 -22.929 -17.041  0.00  0.00    +0.149 C 
ATOM     10  C   UNL     1      36.448 -22.833 -16.503  0.00  0.00    +0.100 C 
ENDROOT
BRANCH   2  14
ATOM     11  S   UNL     1      36.245 -18.499 -21.386  0.00  0.00    +0.113 S 
ATOM     12  O   UNL     1      35.613 -17.423 -20.645  0.00  0.00    -0.138 OA
ATOM     13  O   UNL     1      37.496 -19.066 -20.921  0.00  0.00    -0.138 OA
ATOM     14  N   UNL     1      35.089 -19.765 -21.632  0.00  0.00    -0.181 N 
ATOM     15  N   UNL     1      36.455 -17.993 -23.017  0.00  0.00    -0.166 NA
ATOM     16  C   UNL     1      34.273 -18.887 -23.817  0.00  0.00    +0.039 C 
ATOM     17  C   UNL     1      33.875 -19.371 -22.414  0.00  0.00    +0.118 C 
ATOM     18  C   UNL     1      35.212 -17.676 -23.766  0.00  0.00    +0.095 C 
ATOM     19  C   UNL     1      34.864 -20.025 -24.658  0.00  0.00    +0.003 C 
ATOM     20  H   UNL     1      36.939 -18.740 -23.517  0.00  0.00    +0.150 HD
ENDBRANCH   2  14
BRANCH   9  22
ATOM     21  N   UNL     1      31.916 -23.868 -16.303  0.00  0.00    -0.189 NA
ATOM     22  C   UNL     1      32.947 -23.448 -16.634  0.00  0.00    +0.120 C 
ENDBRANCH   9  22
TORSDOF 2
ENDMDL
MODEL 4
REMARK VINA RESULT:      -8.7      3.012      4.317
REMARK  Name = 76071881
REMARK  2 active torsions:
REMARK  status: ('A' for Active; 'I' for Inactive)
REMARK    1  A    between atoms: C_2  and  N_14
REMARK    2  A    between atoms: C_9  and  C_22
REMARK                            x       y       z     vdW  Elec       q    Type
REMARK                         _______ _______ _______ _____ _____    ______ ____
ROOT
ATOM      1  N   UNL     1      31.568 -22.546 -17.628  0.00  0.00    -0.234 NA
ATOM      2  C   UNL     1      35.055 -24.105 -14.309  0.00  0.00    +0.070 C 
ATOM      3  C   UNL     1      35.116 -23.643 -15.625  0.00  0.00    +0.016 C 
ATOM      4  C   UNL     1      33.828 -24.204 -13.658  0.00  0.00    +0.016 C 
ATOM      5  C   UNL     1      33.946 -23.274 -16.306  0.00  0.00    +0.005 C 
ATOM      6  C   UNL     1      32.704 -23.375 -15.644  0.00  0.00    +0.028 C 
ATOM      7  C   UNL     1      32.655 -23.842 -14.321  0.00  0.00    +0.004 C 
ATOM      8  C   UNL     1      33.973 -22.807 -17.626  0.00  0.00    +0.021 C 
ATOM      9  C   UNL     1      31.562 -22.999 -16.355  0.00  0.00    +0.149 C 
ATOM     10  C   UNL     1      32.774 -22.461 -18.231  0.00  0.00    +0.100 C 
ENDROOT
BRANCH   2  14
ATOM     11  S   UNL     1      36.225 -24.204 -11.911  0.00  0.00    +0.113 S 
ATOM     12  O   UNL     1      36.405 -22.786 -11.660  0.00  0.00    -0.138 OA
ATOM     13  O   UNL     1      35.096 -24.908 -11.333  0.00  0.00    -0.138 OA
ATOM     14  N   UNL     1      36.271 -24.483 -13.620  0.00  0.00    -0.181 N 
ATOM     15  N   UNL     1      37.666 -25.028 -11.456  0.00  0.00    -0.166 NA
ATOM     16  C   UNL     1      38.728 -24.890 -13.704  0.00  0.00    +0.039 C 
ATOM     17  C   UNL     1      37.551 -24.095 -14.291  0.00  0.00    +0.118 C 
ATOM     18  C   UNL     1      38.896 -24.649 -12.199  0.00  0.00    +0.095 C 
ATOM     19  C   UNL     1      38.614 -26.384 -14.028  0.00  0.00    +0.003 C 
ATOM     20  H   UNL     1      37.512 -26.027 -11.596  0.00  0.00    +0.150 HD
ENDBRANCH   2  14
BRANCH   9  22
ATOM     21  N   UNL     1      29.174 -23.099 -15.354  0.00  0.00    -0.189 NA
ATOM     22  C   UNL     1      30.244 -23.053 -15.802  0.00  0.00    +0.120 C 
ENDBRANCH   9  22
TORSDOF 2
ENDMDL
MODEL 5
REMARK VINA RESULT:      -8.5      9.132     12.242
REMARK  Name = 76071881
REMARK  2 active torsions:
REMARK  status: ('A' for Active; 'I' for Inactive)
REMARK    1  A    between atoms: C_2  and  N_14
REMARK    2  A    between atoms: C_9  and  C_22
REMARK                            x       y       z     vdW  Elec       q    Type
REMARK                         _______ _______ _______ _____ _____    ______ ____
ROOT
ATOM      1  N   UNL     1      31.277  -9.986 -21.080  0.00  0.00    -0.234 NA
ATOM      2  C   UNL     1      33.381 -14.323 -22.620  0.00  0.00    +0.070 C 
ATOM      3  C   UNL     1      32.747 -13.925 -21.442  0.00  0.00    +0.016 C 
ATOM      4  C   UNL     1      33.529 -13.425 -23.673  0.00  0.00    +0.016 C 
ATOM      5  C   UNL     1      32.252 -12.618 -21.304  0.00  0.00    +0.005 C 
ATOM      6  C   UNL     1      32.403 -11.710 -22.373  0.00  0.00    +0.028 C 
ATOM      7  C   UNL     1      33.043 -12.122 -23.553  0.00  0.00    +0.004 C 
ATOM      8  C   UNL     1      31.611 -12.188 -20.136  0.00  0.00    +0.021 C 
ATOM      9  C   UNL     1      31.898 -10.420 -22.199  0.00  0.00    +0.149 C 
ATOM     10  C   UNL     1      31.150 -10.882 -20.077  0.00  0.00    +0.100 C 
ENDROOT
BRANCH   2  14
ATOM     11  S   UNL     1      33.909 -16.556 -21.255  0.00  0.00    +0.113 S 
ATOM     12  O   UNL     1      35.032 -16.103 -20.456  0.00  0.00    -0.138 OA
ATOM     13  O   UNL     1      32.575 -16.584 -20.686  0.00  0.00    -0.138 OA
ATOM     14  N   UNL     1      33.887 -15.674 -22.746  0.00  0.00    -0.181 N 
ATOM     15  N   UNL     1      34.269 -18.124 -21.866  0.00  0.00    -0.166 NA
ATOM     16  C   UNL     1      35.292 -17.315 -23.987  0.00  0.00    +0.039 C 
ATOM     17  C   UNL     1      35.105 -15.840 -23.598  0.00  0.00    +0.118 C 
ATOM     18  C   UNL     1      35.452 -18.221 -22.760  0.00  0.00    +0.095 C 
ATOM     19  C   UNL     1      34.166 -17.802 -24.905  0.00  0.00    +0.003 C 
ATOM     20  H   UNL     1      33.455 -18.450 -22.389  0.00  0.00    +0.150 HD
ENDBRANCH   2  14
BRANCH   9  22
ATOM     21  N   UNL     1      32.057  -8.579 -24.016  0.00  0.00    -0.189 NA
ATOM     22  C   UNL     1      31.986  -9.404 -23.202  0.00  0.00    +0.120 C 
ENDBRANCH   9  22
TORSDOF 2
ENDMDL
MODEL 6
REMARK VINA RESULT:      -8.4      1.854      2.226
REMARK  Name = 76071881
REMARK  2 active torsions:
REMARK  status: ('A' for Active; 'I' for Inactive)
REMARK    1  A    between atoms: C_2  and  N_14
REMARK    2  A    between atoms: C_9  and  C_22
REMARK                            x       y       z     vdW  Elec       q    Type
REMARK                         _______ _______ _______ _____ _____    ______ ____
ROOT
ATOM      1  N   UNL     1      34.094 -21.025 -19.857  0.00  0.00    -0.234 NA
ATOM      2  C   UNL     1      36.147 -23.510 -15.956  0.00  0.00    +0.070 C 
ATOM      3  C   UNL     1      34.875 -23.501 -16.531  0.00  0.00    +0.016 C 
ATOM      4  C   UNL     1      37.155 -22.703 -16.476  0.00  0.00    +0.016 C 
ATOM      5  C   UNL     1      34.597 -22.684 -17.638  0.00  0.00    +0.005 C 
ATOM      6  C   UNL     1      35.621 -21.868 -18.163  0.00  0.00    +0.028 C 
ATOM      7  C   UNL     1      36.897 -21.884 -17.576  0.00  0.00    +0.004 C 
ATOM      8  C   UNL     1      33.333 -22.653 -18.238  0.00  0.00    +0.021 C 
ATOM      9  C   UNL     1      35.308 -21.068 -19.264  0.00  0.00    +0.149 C 
ATOM     10  C   UNL     1      33.138 -21.819 -19.328  0.00  0.00    +0.100 C 
ENDROOT
BRANCH   2  14
ATOM     11  S   UNL     1      35.620 -23.853 -13.361  0.00  0.00    +0.113 S 
ATOM     12  O   UNL     1      36.327 -22.713 -12.808  0.00  0.00    -0.138 OA
ATOM     13  O   UNL     1      34.189 -23.781 -13.590  0.00  0.00    -0.138 OA
ATOM     14  N   UNL     1      36.416 -24.358 -14.814  0.00  0.00    -0.181 N 
ATOM     15  N   UNL     1      35.940 -25.227 -12.376  0.00  0.00    -0.166 NA
ATOM     16  C   UNL     1      37.924 -25.984 -13.677  0.00  0.00    +0.039 C 
ATOM     17  C   UNL     1      37.839 -24.788 -14.640  0.00  0.00    +0.118 C 
ATOM     18  C   UNL     1      37.362 -25.650 -12.290  0.00  0.00    +0.095 C 
ATOM     19  C   UNL     1      37.261 -27.232 -14.271  0.00  0.00    +0.003 C 
ATOM     20  H   UNL     1      35.403 -26.011 -12.749  0.00  0.00    +0.150 HD
ENDBRANCH   2  14
BRANCH   9  22
ATOM     21  N   UNL     1      37.019 -19.489 -20.401  0.00  0.00    -0.189 NA
ATOM     22  C   UNL     1      36.252 -20.196 -19.892  0.00  0.00    +0.120 C 
ENDBRANCH   9  22
TORSDOF 2
ENDMDL
MODEL 7
REMARK VINA RESULT:      -8.3      8.842     11.858
REMARK  Name = 76071881
REMARK  2 active torsions:
REMARK  status: ('A' for Active; 'I' for Inactive)
REMARK    1  A    between atoms: C_2  and  N_14
REMARK    2  A    between atoms: C_9  and  C_22
REMARK                            x       y       z     vdW  Elec       q    Type
REMARK                         _______ _______ _______ _____ _____    ______ ____
ROOT
ATOM      1  N   UNL     1      32.332 -10.160 -22.741  0.00  0.00    -0.234 NA
ATOM      2  C   UNL     1      33.494 -15.082 -22.550  0.00  0.00    +0.070 C 
ATOM      3  C   UNL     1      33.787 -14.057 -23.452  0.00  0.00    +0.016 C 
ATOM      4  C   UNL     1      32.724 -14.821 -21.420  0.00  0.00    +0.016 C 
ATOM      5  C   UNL     1      33.311 -12.754 -23.231  0.00  0.00    +0.005 C 
ATOM      6  C   UNL     1      32.532 -12.493 -22.085  0.00  0.00    +0.028 C 
ATOM      7  C   UNL     1      32.243 -13.532 -21.185  0.00  0.00    +0.004 C 
ATOM      8  C   UNL     1      33.588 -11.705 -24.115  0.00  0.00    +0.021 C 
ATOM      9  C   UNL     1      32.076 -11.186 -21.899  0.00  0.00    +0.149 C 
ATOM     10  C   UNL     1      33.082 -10.446 -23.827  0.00  0.00    +0.100 C 
ENDROOT
BRANCH   2  14
ATOM     11  S   UNL     1      34.138 -17.384 -21.362  0.00  0.00    +0.113 S 
ATOM     12  O   UNL     1      35.321 -16.969 -20.633  0.00  0.00    -0.138 OA
ATOM     13  O   UNL     1      32.855 -17.454 -20.689  0.00  0.00    -0.138 OA
ATOM     14  N   UNL     1      33.992 -16.419 -22.793  0.00  0.00    -0.181 N 
ATOM     15  N   UNL     1      34.450 -18.913 -22.088  0.00  0.00    -0.166 NA
ATOM     16  C   UNL     1      35.295 -17.978 -24.236  0.00  0.00    +0.039 C 
ATOM     17  C   UNL     1      35.137 -16.528 -23.750  0.00  0.00    +0.118 C 
ATOM     18  C   UNL     1      35.557 -18.950 -23.079  0.00  0.00    +0.095 C 
ATOM     19  C   UNL     1      34.099 -18.420 -25.086  0.00  0.00    +0.003 C 
ATOM     20  H   UNL     1      33.597 -19.215 -22.561  0.00  0.00    +0.150 HD
ENDBRANCH   2  14
BRANCH   9  22
ATOM     21  N   UNL     1      30.631 -10.463 -19.873  0.00  0.00    -0.189 NA
ATOM     22  C   UNL     1      31.278 -10.787 -20.781  0.00  0.00    +0.120 C 
ENDBRANCH   9  22
TORSDOF 2
ENDMDL
MODEL 8
REMARK VINA RESULT:      -8.3      4.086      5.541
REMARK  Name = 76071881
REMARK  2 active torsions:
REMARK  status: ('A' for Active; 'I' for Inactive)
REMARK    1  A    between atoms: C_2  and  N_14
REMARK    2  A    between atoms: C_9  and  C_22
REMARK                            x       y       z     vdW  Elec       q    Type
REMARK                         _______ _______ _______ _____ _____    ______ ____
ROOT
ATOM      1  N   UNL     1      37.358 -22.023 -17.076  0.00  0.00    -0.234 NA
ATOM      2  C   UNL     1      32.555 -23.298 -16.120  0.00  0.00    +0.070 C 
ATOM      3  C   UNL     1      33.721 -23.297 -15.354  0.00  0.00    +0.016 C 
ATOM      4  C   UNL     1      32.589 -22.882 -17.448  0.00  0.00    +0.016 C 
ATOM      5  C   UNL     1      34.940 -22.876 -15.911  0.00  0.00    +0.005 C 
ATOM      6  C   UNL     1      34.971 -22.455 -17.257  0.00  0.00    +0.028 C 
ATOM      7  C   UNL     1      33.791 -22.461 -18.017  0.00  0.00    +0.004 C 
ATOM      8  C   UNL     1      36.127 -22.862 -15.169  0.00  0.00    +0.021 C 
ATOM      9  C   UNL     1      36.201 -22.044 -17.775  0.00  0.00    +0.149 C 
ATOM     10  C   UNL     1      37.290 -22.433 -15.790  0.00  0.00    +0.100 C 
ENDROOT
BRANCH   2  14
ATOM     11  S   UNL     1      31.468 -24.353 -13.921  0.00  0.00    +0.113 S 
ATOM     12  O   UNL     1      32.024 -25.692 -13.984  0.00  0.00    -0.138 OA
ATOM     13  O   UNL     1      32.083 -23.348 -13.074  0.00  0.00    -0.138 OA
ATOM     14  N   UNL     1      31.307 -23.735 -15.532  0.00  0.00    -0.181 N 
ATOM     15  N   UNL     1      29.804 -24.469 -13.499  0.00  0.00    -0.166 NA
ATOM     16  C   UNL     1      28.979 -24.569 -15.847  0.00  0.00    +0.039 C 
ATOM     17  C   UNL     1      30.403 -24.526 -16.425  0.00  0.00    +0.118 C 
ATOM     18  C   UNL     1      28.940 -25.210 -14.454  0.00  0.00    +0.095 C 
ATOM     19  C   UNL     1      28.329 -23.181 -15.848  0.00  0.00    +0.003 C 
ATOM     20  H   UNL     1      29.436 -23.521 -13.416  0.00  0.00    +0.150 HD
ENDBRANCH   2  14
BRANCH   9  22
ATOM     21  N   UNL     1      36.510 -21.230 -20.216  0.00  0.00    -0.189 NA
ATOM     22  C   UNL     1      36.371 -21.594 -19.122  0.00  0.00    +0.120 C 
ENDBRANCH   9  22
TORSDOF 2
ENDMDL
MODEL 9
REMARK VINA RESULT:      -8.2      6.101      9.814
REMARK  Name = 76071881
REMARK  2 active torsions:
REMARK  status: ('A' for Active; 'I' for Inactive)
REMARK    1  A    between atoms: C_2  and  N_14
REMARK    2  A    between atoms: C_9  and  C_22
REMARK                            x       y       z     vdW  Elec       q    Type
REMARK                         _______ _______ _______ _____ _____    ______ ____
ROOT
ATOM      1  N   UNL     1      35.690 -22.271 -18.630  0.00  0.00    -0.234 NA
ATOM      2  C   UNL     1      34.374 -18.378 -21.584  0.00  0.00    +0.070 C 
ATOM      3  C   UNL     1      35.600 -18.901 -21.169  0.00  0.00    +0.016 C 
ATOM      4  C   UNL     1      33.184 -18.964 -21.161  0.00  0.00    +0.016 C 
ATOM      5  C   UNL     1      35.649 -20.022 -20.324  0.00  0.00    +0.005 C 
ATOM      6  C   UNL     1      34.441 -20.614 -19.898  0.00  0.00    +0.028 C 
ATOM      7  C   UNL     1      33.214 -20.078 -20.321  0.00  0.00    +0.004 C 
ATOM      8  C   UNL     1      36.862 -20.571 -19.891  0.00  0.00    +0.021 C 
ATOM      9  C   UNL     1      34.530 -21.726 -19.059  0.00  0.00    +0.149 C 
ATOM     10  C   UNL     1      36.826 -21.678 -19.058  0.00  0.00    +0.100 C 
ENDROOT
BRANCH   2  14
ATOM     11  S   UNL     1      34.016 -15.733 -21.631  0.00  0.00    +0.113 S 
ATOM     12  O   UNL     1      32.600 -15.666 -21.321  0.00  0.00    -0.138 OA
ATOM     13  O   UNL     1      35.000 -15.530 -20.584  0.00  0.00    -0.138 OA
ATOM     14  N   UNL     1      34.341 -17.222 -22.454  0.00  0.00    -0.181 N 
ATOM     15  N   UNL     1      34.351 -14.630 -22.908  0.00  0.00    -0.166 NA
ATOM     16  C   UNL     1      33.999 -16.283 -24.737  0.00  0.00    +0.039 C 
ATOM     17  C   UNL     1      33.617 -17.399 -23.751  0.00  0.00    +0.118 C 
ATOM     18  C   UNL     1      33.654 -14.890 -24.194  0.00  0.00    +0.095 C 
ATOM     19  C   UNL     1      35.471 -16.379 -25.153  0.00  0.00    +0.003 C 
ATOM     20  H   UNL     1      35.356 -14.654 -23.087  0.00  0.00    +0.150 HD
ENDBRANCH   2  14
BRANCH   9  22
ATOM     21  N   UNL     1      32.455 -22.983 -18.145  0.00  0.00    -0.189 NA
ATOM     22  C   UNL     1      33.384 -22.419 -18.555  0.00  0.00    +0.120 C 
ENDBRANCH   9  22
TORSDOF 2
ENDMDL
