MODEL 1
REMARK VINA RESULT:      -8.8      0.000      0.000
REMARK  Name = 68792
REMARK  5 active torsions:
REMARK  status: ('A' for Active; 'I' for Inactive)
REMARK    1  A    between atoms: C_1  and  C_4
REMARK    2  A    between atoms: C_1  and  O_11
REMARK    3  A    between atoms: C_5  and  N_10
REMARK    4  A    between atoms: O_11  and  C_12
REMARK    5  A    between atoms: C_15  and  S_18
REMARK                            x       y       z     vdW  Elec       q    Type
REMARK                         _______ _______ _______ _____ _____    ______ ____
ROOT
ATOM      1  C   UNL     1      33.402 -22.979 -17.946  0.00  0.00    +0.266 C 
ENDROOT
BRANCH   1   4
ATOM      2  N   UNL     1      32.741 -23.509 -15.603  0.00  0.00    -0.251 N 
ATOM      3  N   UNL     1      31.134 -22.764 -16.944  0.00  0.00    -0.226 NA
ATOM      4  C   UNL     1      32.396 -23.074 -16.842  0.00  0.00    +0.158 C 
ATOM      5  C   UNL     1      31.606 -23.476 -14.844  0.00  0.00    +0.218 C 
ATOM      6  C   UNL     1      34.055 -23.929 -15.169  0.00  0.00    +0.120 C 
ATOM      7  C   UNL     1      30.628 -23.013 -15.693  0.00  0.00    +0.140 C 
BRANCH   5  10
ATOM      8  O   UNL     1      31.846 -23.015 -12.601  0.00  0.00    -0.125 OA
ATOM      9  O   UNL     1      31.229 -25.040 -13.196  0.00  0.00    -0.125 OA
ATOM     10  N   UNL     1      31.559 -23.857 -13.498  0.00  0.00    +0.074 N 
ENDBRANCH   5  10
ENDBRANCH   1   4
BRANCH   1  11
ATOM     11  O   UNL     1      32.779 -22.278 -19.021  0.00  0.00    -0.468 OA
BRANCH  11  12
ATOM     12  C   UNL     1      33.536 -21.365 -19.687  0.00  0.00    +0.139 C 
ATOM     13  C   UNL     1      32.920 -20.330 -20.391  0.00  0.00    +0.037 C 
ATOM     14  C   UNL     1      34.927 -21.462 -19.665  0.00  0.00    +0.037 C 
ATOM     15  C   UNL     1      35.087 -19.491 -21.051  0.00  0.00    +0.025 C 
ATOM     16  C   UNL     1      33.696 -19.393 -21.074  0.00  0.00    +0.009 C 
ATOM     17  C   UNL     1      35.703 -20.525 -20.347  0.00  0.00    +0.009 C 
BRANCH  15  18
ATOM     18  S   UNL     1      36.079 -18.294 -21.923  0.00  0.00    -0.113 S 
ATOM     19  C   UNL     1      35.276 -18.264 -23.551  0.00  0.00    +0.074 C 
ENDBRANCH  15  18
ENDBRANCH  11  12
ENDBRANCH   1  11
TORSDOF 5
ENDMDL
MODEL 2
REMARK VINA RESULT:      -8.6      3.878      5.731
REMARK  Name = 68792
REMARK  5 active torsions:
REMARK  status: ('A' for Active; 'I' for Inactive)
REMARK    1  A    between atoms: C_1  and  C_4
REMARK    2  A    between atoms: C_1  and  O_11
REMARK    3  A    between atoms: C_5  and  N_10
REMARK    4  A    between atoms: O_11  and  C_12
REMARK    5  A    between atoms: C_15  and  S_18
REMARK                            x       y       z     vdW  Elec       q    Type
REMARK                         _______ _______ _______ _____ _____    ______ ____
ROOT
ATOM      1  C   UNL     1      35.724 -18.820 -21.256  0.00  0.00    +0.266 C 
ENDROOT
BRANCH   1   4
ATOM      2  N   UNL     1      35.197 -20.915 -20.017  0.00  0.00    -0.251 N 
ATOM      3  N   UNL     1      33.466 -19.747 -20.773  0.00  0.00    -0.226 NA
ATOM      4  C   UNL     1      34.764 -19.818 -20.688  0.00  0.00    +0.158 C 
ATOM      5  C   UNL     1      34.083 -21.610 -19.638  0.00  0.00    +0.218 C 
ATOM      6  C   UNL     1      36.570 -21.284 -19.755  0.00  0.00    +0.120 C 
ATOM      7  C   UNL     1      33.027 -20.868 -20.115  0.00  0.00    +0.140 C 
BRANCH   5  10
ATOM      8  O   UNL     1      33.901 -23.901 -19.517  0.00  0.00    -0.125 OA
ATOM      9  O   UNL     1      34.379 -22.788 -17.682  0.00  0.00    -0.125 OA
ATOM     10  N   UNL     1      34.122 -22.810 -18.920  0.00  0.00    +0.074 N 
ENDBRANCH   5  10
ENDBRANCH   1   4
BRANCH   1  11
ATOM     11  O   UNL     1      35.452 -17.571 -20.622  0.00  0.00    -0.468 OA
BRANCH  11  12
ATOM     12  C   UNL     1      35.010 -16.557 -21.414  0.00  0.00    +0.139 C 
ATOM     13  C   UNL     1      34.476 -15.404 -20.838  0.00  0.00    +0.037 C 
ATOM     14  C   UNL     1      35.092 -16.669 -22.802  0.00  0.00    +0.037 C 
ATOM     15  C   UNL     1      34.106 -14.477 -23.038  0.00  0.00    +0.025 C 
ATOM     16  C   UNL     1      34.023 -14.364 -21.650  0.00  0.00    +0.009 C 
ATOM     17  C   UNL     1      34.640 -15.629 -23.614  0.00  0.00    +0.009 C 
BRANCH  15  18
ATOM     18  S   UNL     1      33.527 -13.148 -24.075  0.00  0.00    -0.113 S 
ATOM     19  C   UNL     1      33.037 -14.040 -25.579  0.00  0.00    +0.074 C 
ENDBRANCH  15  18
ENDBRANCH  11  12
ENDBRANCH   1  11
TORSDOF 5
ENDMDL
MODEL 3
REMARK VINA RESULT:      -8.6      3.995      6.091
REMARK  Name = 68792
REMARK  5 active torsions:
REMARK  status: ('A' for Active; 'I' for Inactive)
REMARK    1  A    between atoms: C_1  and  C_4
REMARK    2  A    between atoms: C_1  and  O_11
REMARK    3  A    between atoms: C_5  and  N_10
REMARK    4  A    between atoms: O_11  and  C_12
REMARK    5  A    between atoms: C_15  and  S_18
REMARK                            x       y       z     vdW  Elec       q    Type
REMARK                         _______ _______ _______ _____ _____    ______ ____
ROOT
ATOM      1  C   UNL     1      35.807 -18.693 -21.397  0.00  0.00    +0.266 C 
ENDROOT
BRANCH   1   4
ATOM      2  N   UNL     1      34.476 -20.537 -20.380  0.00  0.00    -0.251 N 
ATOM      3  N   UNL     1      36.624 -20.438 -19.821  0.00  0.00    -0.226 NA
ATOM      4  C   UNL     1      35.664 -19.897 -20.518  0.00  0.00    +0.158 C 
ATOM      5  C   UNL     1      34.687 -21.578 -19.520  0.00  0.00    +0.218 C 
ATOM      6  C   UNL     1      33.225 -20.186 -21.015  0.00  0.00    +0.120 C 
ATOM      7  C   UNL     1      36.020 -21.496 -19.189  0.00  0.00    +0.140 C 
BRANCH   5  10
ATOM      8  O   UNL     1      32.646 -22.039 -18.560  0.00  0.00    -0.125 OA
ATOM      9  O   UNL     1      33.842 -23.712 -19.341  0.00  0.00    -0.125 OA
ATOM     10  N   UNL     1      33.689 -22.475 -19.125  0.00  0.00    +0.074 N 
ENDBRANCH   5  10
ENDBRANCH   1   4
BRANCH   1  11
ATOM     11  O   UNL     1      35.452 -17.557 -20.610  0.00  0.00    -0.468 OA
BRANCH  11  12
ATOM     12  C   UNL     1      34.932 -16.486 -21.268  0.00  0.00    +0.139 C 
ATOM     13  C   UNL     1      35.065 -16.386 -22.653  0.00  0.00    +0.037 C 
ATOM     14  C   UNL     1      34.265 -15.488 -20.558  0.00  0.00    +0.037 C 
ATOM     15  C   UNL     1      33.864 -14.291 -22.617  0.00  0.00    +0.025 C 
ATOM     16  C   UNL     1      34.531 -15.288 -23.328  0.00  0.00    +0.009 C 
ATOM     17  C   UNL     1      33.730 -14.390 -21.233  0.00  0.00    +0.009 C 
BRANCH  15  18
ATOM     18  S   UNL     1      33.181 -12.888 -23.479  0.00  0.00    -0.113 S 
ATOM     19  C   UNL     1      32.003 -12.241 -22.259  0.00  0.00    +0.074 C 
ENDBRANCH  15  18
ENDBRANCH  11  12
ENDBRANCH   1  11
TORSDOF 5
ENDMDL
MODEL 4
REMARK VINA RESULT:      -8.6      1.175      2.267
REMARK  Name = 68792
REMARK  5 active torsions:
REMARK  status: ('A' for Active; 'I' for Inactive)
REMARK    1  A    between atoms: C_1  and  C_4
REMARK    2  A    between atoms: C_1  and  O_11
REMARK    3  A    between atoms: C_5  and  N_10
REMARK    4  A    between atoms: O_11  and  C_12
REMARK    5  A    between atoms: C_15  and  S_18
REMARK                            x       y       z     vdW  Elec       q    Type
REMARK                         _______ _______ _______ _____ _____    ______ ____
ROOT
ATOM      1  C   UNL     1      33.539 -22.938 -18.183  0.00  0.00    +0.266 C 
ENDROOT
BRANCH   1   4
ATOM      2  N   UNL     1      32.599 -23.446 -15.932  0.00  0.00    -0.251 N 
ATOM      3  N   UNL     1      34.780 -23.776 -16.195  0.00  0.00    -0.226 NA
ATOM      4  C   UNL     1      33.671 -23.395 -16.763  0.00  0.00    +0.158 C 
ATOM      5  C   UNL     1      33.057 -23.897 -14.726  0.00  0.00    +0.218 C 
ATOM      6  C   UNL     1      31.236 -23.089 -16.255  0.00  0.00    +0.120 C 
ATOM      7  C   UNL     1      34.405 -24.094 -14.913  0.00  0.00    +0.140 C 
BRANCH   5  10
ATOM      8  O   UNL     1      31.774 -25.229 -13.355  0.00  0.00    -0.125 OA
ATOM      9  O   UNL     1      31.983 -23.098 -12.853  0.00  0.00    -0.125 OA
ATOM     10  N   UNL     1      32.242 -24.082 -13.605  0.00  0.00    +0.074 N 
ENDBRANCH   5  10
ENDBRANCH   1   4
BRANCH   1  11
ATOM     11  O   UNL     1      34.853 -22.637 -18.649  0.00  0.00    -0.468 OA
BRANCH  11  12
ATOM     12  C   UNL     1      34.993 -21.539 -19.440  0.00  0.00    +0.139 C 
ATOM     13  C   UNL     1      36.265 -21.037 -19.717  0.00  0.00    +0.037 C 
ATOM     14  C   UNL     1      33.866 -20.917 -19.976  0.00  0.00    +0.037 C 
ATOM     15  C   UNL     1      35.281 -19.290 -21.065  0.00  0.00    +0.025 C 
ATOM     16  C   UNL     1      36.409 -19.912 -20.530  0.00  0.00    +0.009 C 
ATOM     17  C   UNL     1      34.009 -19.792 -20.788  0.00  0.00    +0.009 C 
BRANCH  15  18
ATOM     18  S   UNL     1      35.465 -17.852 -22.103  0.00  0.00    -0.113 S 
ATOM     19  C   UNL     1      34.821 -16.537 -21.029  0.00  0.00    +0.074 C 
ENDBRANCH  15  18
ENDBRANCH  11  12
ENDBRANCH   1  11
TORSDOF 5
ENDMDL
MODEL 5
REMARK VINA RESULT:      -8.4      3.391      4.239
REMARK  Name = 68792
REMARK  5 active torsions:
REMARK  status: ('A' for Active; 'I' for Inactive)
REMARK    1  A    between atoms: C_1  and  C_4
REMARK    2  A    between atoms: C_1  and  O_11
REMARK    3  A    between atoms: C_5  and  N_10
REMARK    4  A    between atoms: O_11  and  C_12
REMARK    5  A    between atoms: C_15  and  S_18
REMARK                            x       y       z     vdW  Elec       q    Type
REMARK                         _______ _______ _______ _____ _____    ______ ____
ROOT
ATOM      1  C   UNL     1      35.797 -22.361 -16.126  0.00  0.00    +0.266 C 
ENDROOT
BRANCH   1   4
ATOM      2  N   UNL     1      36.181 -24.337 -14.658  0.00  0.00    -0.251 N 
ATOM      3  N   UNL     1      37.989 -23.356 -15.496  0.00  0.00    -0.226 NA
ATOM      4  C   UNL     1      36.688 -23.345 -15.433  0.00  0.00    +0.158 C 
ATOM      5  C   UNL     1      37.247 -25.046 -14.180  0.00  0.00    +0.218 C 
ATOM      6  C   UNL     1      34.785 -24.594 -14.385  0.00  0.00    +0.120 C 
ATOM      7  C   UNL     1      38.351 -24.422 -14.712  0.00  0.00    +0.140 C 
BRANCH   5  10
ATOM      8  O   UNL     1      36.944 -25.978 -12.097  0.00  0.00    -0.125 OA
ATOM      9  O   UNL     1      37.202 -27.319 -13.820  0.00  0.00    -0.125 OA
ATOM     10  N   UNL     1      37.127 -26.154 -13.335  0.00  0.00    +0.074 N 
ENDBRANCH   5  10
ENDBRANCH   1   4
BRANCH   1  11
ATOM     11  O   UNL     1      35.457 -22.924 -17.392  0.00  0.00    -0.468 OA
BRANCH  11  12
ATOM     12  C   UNL     1      35.343 -22.065 -18.441  0.00  0.00    +0.139 C 
ATOM     13  C   UNL     1      34.087 -21.786 -18.980  0.00  0.00    +0.037 C 
ATOM     14  C   UNL     1      36.480 -21.464 -18.978  0.00  0.00    +0.037 C 
ATOM     15  C   UNL     1      35.107 -20.304 -20.591  0.00  0.00    +0.025 C 
ATOM     16  C   UNL     1      33.968 -20.905 -20.055  0.00  0.00    +0.009 C 
ATOM     17  C   UNL     1      36.363 -20.583 -20.054  0.00  0.00    +0.009 C 
BRANCH  15  18
ATOM     18  S   UNL     1      34.956 -19.178 -21.966  0.00  0.00    -0.113 S 
ATOM     19  C   UNL     1      35.006 -17.567 -21.131  0.00  0.00    +0.074 C 
ENDBRANCH  15  18
ENDBRANCH  11  12
ENDBRANCH   1  11
TORSDOF 5
ENDMDL
MODEL 6
REMARK VINA RESULT:      -8.3      6.106      9.062
REMARK  Name = 68792
REMARK  5 active torsions:
REMARK  status: ('A' for Active; 'I' for Inactive)
REMARK    1  A    between atoms: C_1  and  C_4
REMARK    2  A    between atoms: C_1  and  O_11
REMARK    3  A    between atoms: C_5  and  N_10
REMARK    4  A    between atoms: O_11  and  C_12
REMARK    5  A    between atoms: C_15  and  S_18
REMARK                            x       y       z     vdW  Elec       q    Type
REMARK                         _______ _______ _______ _____ _____    ______ ____
ROOT
ATOM      1  C   UNL     1      35.381 -17.665 -21.330  0.00  0.00    +0.266 C 
ENDROOT
BRANCH   1   4
ATOM      2  N   UNL     1      34.373 -15.530 -22.127  0.00  0.00    -0.251 N 
ATOM      3  N   UNL     1      34.680 -17.114 -23.654  0.00  0.00    -0.226 NA
ATOM      4  C   UNL     1      34.811 -16.785 -22.399  0.00  0.00    +0.158 C 
ATOM      5  C   UNL     1      33.920 -15.007 -23.305  0.00  0.00    +0.218 C 
ATOM      6  C   UNL     1      34.379 -14.872 -20.839  0.00  0.00    +0.120 C 
ATOM      7  C   UNL     1      34.120 -16.002 -24.232  0.00  0.00    +0.140 C 
BRANCH   5  10
ATOM      8  O   UNL     1      32.192 -13.504 -23.070  0.00  0.00    -0.125 OA
ATOM      9  O   UNL     1      34.101 -12.789 -23.897  0.00  0.00    -0.125 OA
ATOM     10  N   UNL     1      33.384 -13.720 -23.429  0.00  0.00    +0.074 N 
ENDBRANCH   5  10
ENDBRANCH   1   4
BRANCH   1  11
ATOM     11  O   UNL     1      35.269 -19.010 -21.792  0.00  0.00    -0.468 OA
BRANCH  11  12
ATOM     12  C   UNL     1      34.850 -19.941 -20.893  0.00  0.00    +0.139 C 
ATOM     13  C   UNL     1      33.494 -20.054 -20.587  0.00  0.00    +0.037 C 
ATOM     14  C   UNL     1      35.775 -20.783 -20.277  0.00  0.00    +0.037 C 
ATOM     15  C   UNL     1      33.990 -21.851 -19.050  0.00  0.00    +0.025 C 
ATOM     16  C   UNL     1      33.063 -21.010 -19.665  0.00  0.00    +0.009 C 
ATOM     17  C   UNL     1      35.346 -21.739 -19.356  0.00  0.00    +0.009 C 
BRANCH  15  18
ATOM     18  S   UNL     1      33.440 -23.071 -17.873  0.00  0.00    -0.113 S 
ATOM     19  C   UNL     1      34.738 -22.973 -16.606  0.00  0.00    +0.074 C 
ENDBRANCH  15  18
ENDBRANCH  11  12
ENDBRANCH   1  11
TORSDOF 5
ENDMDL
MODEL 7
REMARK VINA RESULT:      -8.2      2.418      3.335
REMARK  Name = 68792
REMARK  5 active torsions:
REMARK  status: ('A' for Active; 'I' for Inactive)
REMARK    1  A    between atoms: C_1  and  C_4
REMARK    2  A    between atoms: C_1  and  O_11
REMARK    3  A    between atoms: C_5  and  N_10
REMARK    4  A    between atoms: O_11  and  C_12
REMARK    5  A    between atoms: C_15  and  S_18
REMARK                            x       y       z     vdW  Elec       q    Type
REMARK                         _______ _______ _______ _____ _____    ______ ____
ROOT
ATOM      1  C   UNL     1      33.948 -23.031 -17.087  0.00  0.00    +0.266 C 
ENDROOT
BRANCH   1   4
ATOM      2  N   UNL     1      34.804 -23.638 -14.828  0.00  0.00    -0.251 N 
ATOM      3  N   UNL     1      36.317 -23.000 -16.324  0.00  0.00    -0.226 NA
ATOM      4  C   UNL     1      35.052 -23.216 -16.093  0.00  0.00    +0.158 C 
ATOM      5  C   UNL     1      36.010 -23.699 -14.189  0.00  0.00    +0.218 C 
ATOM      6  C   UNL     1      33.513 -23.959 -14.261  0.00  0.00    +0.120 C 
ATOM      7  C   UNL     1      36.928 -23.301 -15.133  0.00  0.00    +0.140 C 
BRANCH   5  10
ATOM      8  O   UNL     1      36.324 -25.318 -12.582  0.00  0.00    -0.125 OA
ATOM      9  O   UNL     1      36.145 -23.222 -11.941  0.00  0.00    -0.125 OA
ATOM     10  N   UNL     1      36.165 -24.095 -12.856  0.00  0.00    +0.074 N 
ENDBRANCH   5  10
ENDBRANCH   1   4
BRANCH   1  11
ATOM     11  O   UNL     1      34.526 -23.168 -18.385  0.00  0.00    -0.468 OA
BRANCH  11  12
ATOM     12  C   UNL     1      34.549 -22.060 -19.173  0.00  0.00    +0.139 C 
ATOM     13  C   UNL     1      35.768 -21.529 -19.594  0.00  0.00    +0.037 C 
ATOM     14  C   UNL     1      33.354 -21.456 -19.562  0.00  0.00    +0.037 C 
ATOM     15  C   UNL     1      34.596 -19.789 -20.792  0.00  0.00    +0.025 C 
ATOM     16  C   UNL     1      35.792 -20.393 -20.404  0.00  0.00    +0.009 C 
ATOM     17  C   UNL     1      33.377 -20.320 -20.372  0.00  0.00    +0.009 C 
BRANCH  15  18
ATOM     18  S   UNL     1      34.626 -18.337 -21.826  0.00  0.00    -0.113 S 
ATOM     19  C   UNL     1      34.829 -19.064 -23.478  0.00  0.00    +0.074 C 
ENDBRANCH  15  18
ENDBRANCH  11  12
ENDBRANCH   1  11
TORSDOF 5
ENDMDL
MODEL 8
REMARK VINA RESULT:      -8.2      5.732      7.681
REMARK  Name = 68792
REMARK  5 active torsions:
REMARK  status: ('A' for Active; 'I' for Inactive)
REMARK    1  A    between atoms: C_1  and  C_4
REMARK    2  A    between atoms: C_1  and  O_11
REMARK    3  A    between atoms: C_5  and  N_10
REMARK    4  A    between atoms: O_11  and  C_12
REMARK    5  A    between atoms: C_15  and  S_18
REMARK                            x       y       z     vdW  Elec       q    Type
REMARK                         _______ _______ _______ _____ _____    ______ ____
ROOT
ATOM      1  C   UNL     1      34.860 -23.664 -13.714  0.00  0.00    +0.266 C 
ENDROOT
BRANCH   1   4
ATOM      2  N   UNL     1      37.162 -24.534 -14.101  0.00  0.00    -0.251 N 
ATOM      3  N   UNL     1      36.077 -25.343 -12.339  0.00  0.00    -0.226 NA
ATOM      4  C   UNL     1      36.026 -24.531 -13.357  0.00  0.00    +0.158 C 
ATOM      5  C   UNL     1      38.016 -25.423 -13.512  0.00  0.00    +0.218 C 
ATOM      6  C   UNL     1      37.420 -23.751 -15.289  0.00  0.00    +0.120 C 
ATOM      7  C   UNL     1      37.325 -25.909 -12.427  0.00  0.00    +0.140 C 
BRANCH   5  10
ATOM      8  O   UNL     1      39.490 -26.745 -14.687  0.00  0.00    -0.125 OA
ATOM      9  O   UNL     1      40.250 -24.915 -13.733  0.00  0.00    -0.125 OA
ATOM     10  N   UNL     1      39.298 -25.705 -13.995  0.00  0.00    +0.074 N 
ENDBRANCH   5  10
ENDBRANCH   1   4
BRANCH   1  11
ATOM     11  O   UNL     1      33.701 -24.262 -13.134  0.00  0.00    -0.468 OA
BRANCH  11  12
ATOM     12  C   UNL     1      32.552 -24.220 -13.862  0.00  0.00    +0.139 C 
ATOM     13  C   UNL     1      31.573 -25.195 -13.676  0.00  0.00    +0.037 C 
ATOM     14  C   UNL     1      32.353 -23.201 -14.792  0.00  0.00    +0.037 C 
ATOM     15  C   UNL     1      30.196 -24.132 -15.351  0.00  0.00    +0.025 C 
ATOM     16  C   UNL     1      30.394 -25.152 -14.421  0.00  0.00    +0.009 C 
ATOM     17  C   UNL     1      31.174 -23.156 -15.538  0.00  0.00    +0.009 C 
BRANCH  15  18
ATOM     18  S   UNL     1      28.690 -24.077 -16.304  0.00  0.00    -0.113 S 
ATOM     19  C   UNL     1      27.988 -22.482 -15.792  0.00  0.00    +0.074 C 
ENDBRANCH  15  18
ENDBRANCH  11  12
ENDBRANCH   1  11
TORSDOF 5
ENDMDL
MODEL 9
REMARK VINA RESULT:      -7.9      3.145      3.788
REMARK  Name = 68792
REMARK  5 active torsions:
REMARK  status: ('A' for Active; 'I' for Inactive)
REMARK    1  A    between atoms: C_1  and  C_4
REMARK    2  A    between atoms: C_1  and  O_11
REMARK    3  A    between atoms: C_5  and  N_10
REMARK    4  A    between atoms: O_11  and  C_12
REMARK    5  A    between atoms: C_15  and  S_18
REMARK                            x       y       z     vdW  Elec       q    Type
REMARK                         _______ _______ _______ _____ _____    ______ ____
ROOT
ATOM      1  C   UNL     1      34.367 -22.501 -17.448  0.00  0.00    +0.266 C 
ENDROOT
BRANCH   1   4
ATOM      2  N   UNL     1      36.300 -22.947 -15.941  0.00  0.00    -0.251 N 
ATOM      3  N   UNL     1      34.694 -24.480 -15.976  0.00  0.00    -0.226 NA
ATOM      4  C   UNL     1      35.103 -23.337 -16.448  0.00  0.00    +0.158 C 
ATOM      5  C   UNL     1      36.695 -23.922 -15.070  0.00  0.00    +0.218 C 
ATOM      6  C   UNL     1      37.023 -21.736 -16.262  0.00  0.00    +0.120 C 
ATOM      7  C   UNL     1      35.688 -24.857 -15.108  0.00  0.00    +0.140 C 
BRANCH   5  10
ATOM      8  O   UNL     1      37.913 -23.325 -13.210  0.00  0.00    -0.125 OA
ATOM      9  O   UNL     1      38.936 -24.397 -14.835  0.00  0.00    -0.125 OA
ATOM     10  N   UNL     1      37.891 -23.879 -14.345  0.00  0.00    +0.074 N 
ENDBRANCH   5  10
ENDBRANCH   1   4
BRANCH   1  11
ATOM     11  O   UNL     1      35.042 -22.651 -18.696  0.00  0.00    -0.468 OA
BRANCH  11  12
ATOM     12  C   UNL     1      35.144 -21.545 -19.482  0.00  0.00    +0.139 C 
ATOM     13  C   UNL     1      33.993 -20.898 -19.929  0.00  0.00    +0.037 C 
ATOM     14  C   UNL     1      36.401 -21.057 -19.840  0.00  0.00    +0.037 C 
ATOM     15  C   UNL     1      35.355 -19.276 -21.092  0.00  0.00    +0.025 C 
ATOM     16  C   UNL     1      34.097 -19.763 -20.734  0.00  0.00    +0.009 C 
ATOM     17  C   UNL     1      36.507 -19.923 -20.645  0.00  0.00    +0.009 C 
BRANCH  15  18
ATOM     18  S   UNL     1      35.489 -17.827 -22.121  0.00  0.00    -0.113 S 
ATOM     19  C   UNL     1      34.466 -16.633 -21.213  0.00  0.00    +0.074 C 
ENDBRANCH  15  18
ENDBRANCH  11  12
ENDBRANCH   1  11
TORSDOF 5
ENDMDL
