MODEL 1
REMARK VINA RESULT:      -7.4      0.000      0.000
REMARK  Name = 445210
REMARK  3 active torsions:
REMARK  status: ('A' for Active; 'I' for Inactive)
REMARK    1  A    between atoms: N_1  and  C_13
REMARK    2  A    between atoms: C_13  and  C_14
REMARK    3  A    between atoms: C_14  and  O_16
REMARK                            x       y       z     vdW  Elec       q    Type
REMARK                         _______ _______ _______ _____ _____    ______ ____
ROOT
ATOM      1  N   UNL     1      34.776 -19.362 -21.120  0.00  0.00    -0.269 N 
ATOM      2  N   UNL     1      32.884 -20.385 -20.535  0.00  0.00    -0.242 NA
ATOM      3  N   UNL     1      36.360 -20.611 -19.766  0.00  0.00    -0.228 NA
ATOM      4  N   UNL     1      35.237 -22.329 -18.447  0.00  0.00    -0.229 NA
ATOM      5  C   UNL     1      35.130 -20.325 -20.219  0.00  0.00    +0.151 C 
ATOM      6  C   UNL     1      33.943 -20.948 -19.868  0.00  0.00    +0.140 C 
ATOM      7  C   UNL     1      33.418 -19.437 -21.277  0.00  0.00    +0.221 C 
ATOM      8  C   UNL     1      34.025 -21.986 -18.946  0.00  0.00    +0.143 C 
ATOM      9  C   UNL     1      36.313 -21.630 -18.881  0.00  0.00    +0.253 C 
ATOM     10  N   UNL     1      32.871 -22.676 -18.535  0.00  0.00    -0.342 N 
ATOM     11  H   UNL     1      32.942 -23.409 -17.882  0.00  0.00    +0.144 HD
ATOM     12  H   UNL     1      31.992 -22.425 -18.901  0.00  0.00    +0.144 HD
ENDROOT
BRANCH   1  13
ATOM     13  C   UNL     1      35.657 -18.435 -21.787  0.00  0.00    +0.123 C 
BRANCH  13  14
ATOM     14  C   UNL     1      34.975 -17.701 -22.946  0.00  0.00    +0.130 C 
ATOM     15  C   UNL     1      34.982 -18.555 -24.206  0.00  0.00    +0.034 C 
BRANCH  14  16
ATOM     16  O   UNL     1      35.680 -16.498 -23.242  0.00  0.00    -0.383 OA
ATOM     17  H   UNL     1      36.579 -16.553 -22.884  0.00  0.00    +0.210 HD
ENDBRANCH  14  16
ENDBRANCH  13  14
ENDBRANCH   1  13
TORSDOF 3
ENDMDL
MODEL 2
REMARK VINA RESULT:      -7.1      3.823      5.573
REMARK  Name = 445210
REMARK  3 active torsions:
REMARK  status: ('A' for Active; 'I' for Inactive)
REMARK    1  A    between atoms: N_1  and  C_13
REMARK    2  A    between atoms: C_13  and  C_14
REMARK    3  A    between atoms: C_14  and  O_16
REMARK                            x       y       z     vdW  Elec       q    Type
REMARK                         _______ _______ _______ _____ _____    ______ ____
ROOT
ATOM      1  N   UNL     1      33.965 -15.612 -24.123  0.00  0.00    -0.269 N 
ATOM      2  N   UNL     1      34.960 -17.566 -23.719  0.00  0.00    -0.242 NA
ATOM      3  N   UNL     1      33.942 -14.684 -21.878  0.00  0.00    -0.228 NA
ATOM      4  N   UNL     1      34.961 -16.217 -20.275  0.00  0.00    -0.229 NA
ATOM      5  C   UNL     1      34.223 -15.635 -22.782  0.00  0.00    +0.151 C 
ATOM      6  C   UNL     1      34.840 -16.854 -22.551  0.00  0.00    +0.140 C 
ATOM      7  C   UNL     1      34.425 -16.794 -24.641  0.00  0.00    +0.221 C 
ATOM      8  C   UNL     1      35.214 -17.133 -21.241  0.00  0.00    +0.143 C 
ATOM      9  C   UNL     1      34.350 -15.067 -20.649  0.00  0.00    +0.253 C 
ATOM     10  N   UNL     1      35.848 -18.345 -20.917  0.00  0.00    -0.342 N 
ATOM     11  H   UNL     1      36.108 -18.531 -19.985  0.00  0.00    +0.144 HD
ATOM     12  H   UNL     1      36.032 -19.008 -21.621  0.00  0.00    +0.144 HD
ENDROOT
BRANCH   1  13
ATOM     13  C   UNL     1      33.328 -14.551 -24.864  0.00  0.00    +0.123 C 
BRANCH  13  14
ATOM     14  C   UNL     1      33.367 -14.783 -26.378  0.00  0.00    +0.130 C 
ATOM     15  C   UNL     1      33.287 -13.462 -27.130  0.00  0.00    +0.034 C 
BRANCH  14  16
ATOM     16  O   UNL     1      32.248 -15.569 -26.779  0.00  0.00    -0.383 OA
ATOM     17  H   UNL     1      31.898 -15.230 -27.617  0.00  0.00    +0.210 HD
ENDBRANCH  14  16
ENDBRANCH  13  14
ENDBRANCH   1  13
TORSDOF 3
ENDMDL
MODEL 3
REMARK VINA RESULT:      -7.0      3.892      6.487
REMARK  Name = 445210
REMARK  3 active torsions:
REMARK  status: ('A' for Active; 'I' for Inactive)
REMARK    1  A    between atoms: N_1  and  C_13
REMARK    2  A    between atoms: C_13  and  C_14
REMARK    3  A    between atoms: C_14  and  O_16
REMARK                            x       y       z     vdW  Elec       q    Type
REMARK                         _______ _______ _______ _____ _____    ______ ____
ROOT
ATOM      1  N   UNL     1      35.216 -17.648 -23.423  0.00  0.00    -0.269 N 
ATOM      2  N   UNL     1      34.163 -17.638 -25.388  0.00  0.00    -0.242 NA
ATOM      3  N   UNL     1      34.861 -15.342 -22.747  0.00  0.00    -0.228 NA
ATOM      4  N   UNL     1      33.582 -14.115 -24.425  0.00  0.00    -0.229 NA
ATOM      5  C   UNL     1      34.735 -16.381 -23.588  0.00  0.00    +0.151 C 
ATOM      6  C   UNL     1      34.085 -16.395 -24.811  0.00  0.00    +0.140 C 
ATOM      7  C   UNL     1      34.848 -18.365 -24.531  0.00  0.00    +0.221 C 
ATOM      8  C   UNL     1      33.494 -15.206 -25.224  0.00  0.00    +0.143 C 
ATOM      9  C   UNL     1      34.250 -14.249 -23.254  0.00  0.00    +0.253 C 
ATOM     10  N   UNL     1      32.812 -15.130 -26.451  0.00  0.00    -0.342 N 
ATOM     11  H   UNL     1      32.398 -14.282 -26.732  0.00  0.00    +0.144 HD
ATOM     12  H   UNL     1      32.749 -15.925 -27.029  0.00  0.00    +0.144 HD
ENDROOT
BRANCH   1  13
ATOM     13  C   UNL     1      35.972 -18.149 -22.301  0.00  0.00    +0.123 C 
BRANCH  13  14
ATOM     14  C   UNL     1      35.276 -19.315 -21.593  0.00  0.00    +0.130 C 
ATOM     15  C   UNL     1      33.880 -18.916 -21.135  0.00  0.00    +0.034 C 
BRANCH  14  16
ATOM     16  O   UNL     1      36.014 -19.691 -20.433  0.00  0.00    -0.383 OA
ATOM     17  H   UNL     1      35.447 -19.617 -19.651  0.00  0.00    +0.210 HD
ENDBRANCH  14  16
ENDBRANCH  13  14
ENDBRANCH   1  13
TORSDOF 3
ENDMDL
MODEL 4
REMARK VINA RESULT:      -6.9      7.501      8.789
REMARK  Name = 445210
REMARK  3 active torsions:
REMARK  status: ('A' for Active; 'I' for Inactive)
REMARK    1  A    between atoms: N_1  and  C_13
REMARK    2  A    between atoms: C_13  and  C_14
REMARK    3  A    between atoms: C_14  and  O_16
REMARK                            x       y       z     vdW  Elec       q    Type
REMARK                         _______ _______ _______ _____ _____    ______ ____
ROOT
ATOM      1  N   UNL     1      35.910 -23.687 -14.606  0.00  0.00    -0.269 N 
ATOM      2  N   UNL     1      37.930 -23.580 -13.668  0.00  0.00    -0.242 NA
ATOM      3  N   UNL     1      35.960 -25.966 -15.444  0.00  0.00    -0.228 NA
ATOM      4  N   UNL     1      38.078 -27.058 -14.914  0.00  0.00    -0.229 NA
ATOM      5  C   UNL     1      36.488 -24.907 -14.810  0.00  0.00    +0.151 C 
ATOM      6  C   UNL     1      37.739 -24.821 -14.221  0.00  0.00    +0.140 C 
ATOM      7  C   UNL     1      36.815 -22.924 -13.917  0.00  0.00    +0.221 C 
ATOM      8  C   UNL     1      38.546 -25.951 -14.288  0.00  0.00    +0.143 C 
ATOM      9  C   UNL     1      36.833 -26.997 -15.446  0.00  0.00    +0.253 C 
ATOM     10  N   UNL     1      39.830 -25.953 -13.716  0.00  0.00    -0.342 N 
ATOM     11  H   UNL     1      40.392 -26.760 -13.770  0.00  0.00    +0.144 HD
ATOM     12  H   UNL     1      40.166 -25.147 -13.260  0.00  0.00    +0.144 HD
ENDROOT
BRANCH   1  13
ATOM     13  C   UNL     1      34.597 -23.268 -15.032  0.00  0.00    +0.123 C 
BRANCH  13  14
ATOM     14  C   UNL     1      33.478 -23.883 -14.186  0.00  0.00    +0.130 C 
ATOM     15  C   UNL     1      32.122 -23.321 -14.591  0.00  0.00    +0.034 C 
BRANCH  14  16
ATOM     16  O   UNL     1      33.677 -23.565 -12.811  0.00  0.00    -0.383 OA
ATOM     17  H   UNL     1      33.100 -24.120 -12.264  0.00  0.00    +0.210 HD
ENDBRANCH  14  16
ENDBRANCH  13  14
ENDBRANCH   1  13
TORSDOF 3
ENDMDL
MODEL 5
REMARK VINA RESULT:      -6.8      7.489      9.065
REMARK  Name = 445210
REMARK  3 active torsions:
REMARK  status: ('A' for Active; 'I' for Inactive)
REMARK    1  A    between atoms: N_1  and  C_13
REMARK    2  A    between atoms: C_13  and  C_14
REMARK    3  A    between atoms: C_14  and  O_16
REMARK                            x       y       z     vdW  Elec       q    Type
REMARK                         _______ _______ _______ _____ _____    ______ ____
ROOT
ATOM      1  N   UNL     1      35.213 -24.209 -14.040  0.00  0.00    -0.269 N 
ATOM      2  N   UNL     1      36.710 -23.921 -15.666  0.00  0.00    -0.242 NA
ATOM      3  N   UNL     1      36.526 -25.548 -12.497  0.00  0.00    -0.228 NA
ATOM      4  N   UNL     1      38.770 -25.957 -13.366  0.00  0.00    -0.229 NA
ATOM      5  C   UNL     1      36.340 -24.865 -13.637  0.00  0.00    +0.151 C 
ATOM      6  C   UNL     1      37.257 -24.675 -14.658  0.00  0.00    +0.140 C 
ATOM      7  C   UNL     1      35.484 -23.659 -15.265  0.00  0.00    +0.221 C 
ATOM      8  C   UNL     1      38.511 -25.251 -14.494  0.00  0.00    +0.143 C 
ATOM      9  C   UNL     1      37.775 -26.060 -12.452  0.00  0.00    +0.253 C 
ATOM     10  N   UNL     1      39.503 -25.107 -15.479  0.00  0.00    -0.342 N 
ATOM     11  H   UNL     1      40.388 -25.520 -15.352  0.00  0.00    +0.144 HD
ATOM     12  H   UNL     1      39.313 -24.593 -16.298  0.00  0.00    +0.144 HD
ENDROOT
BRANCH   1  13
ATOM     13  C   UNL     1      33.965 -24.108 -13.321  0.00  0.00    +0.123 C 
BRANCH  13  14
ATOM     14  C   UNL     1      32.746 -24.331 -14.222  0.00  0.00    +0.130 C 
ATOM     15  C   UNL     1      31.766 -23.172 -14.103  0.00  0.00    +0.034 C 
BRANCH  14  16
ATOM     16  O   UNL     1      32.057 -25.513 -13.823  0.00  0.00    -0.383 OA
ATOM     17  H   UNL     1      31.923 -26.085 -14.595  0.00  0.00    +0.210 HD
ENDBRANCH  14  16
ENDBRANCH  13  14
ENDBRANCH   1  13
TORSDOF 3
ENDMDL
MODEL 6
REMARK VINA RESULT:      -6.8      3.210      4.924
REMARK  Name = 445210
REMARK  3 active torsions:
REMARK  status: ('A' for Active; 'I' for Inactive)
REMARK    1  A    between atoms: N_1  and  C_13
REMARK    2  A    between atoms: C_13  and  C_14
REMARK    3  A    between atoms: C_14  and  O_16
REMARK                            x       y       z     vdW  Elec       q    Type
REMARK                         _______ _______ _______ _____ _____    ______ ____
ROOT
ATOM      1  N   UNL     1      34.536 -15.137 -22.106  0.00  0.00    -0.269 N 
ATOM      2  N   UNL     1      34.982 -16.352 -20.290  0.00  0.00    -0.242 NA
ATOM      3  N   UNL     1      34.867 -16.820 -23.825  0.00  0.00    -0.228 NA
ATOM      4  N   UNL     1      35.502 -18.967 -22.853  0.00  0.00    -0.229 NA
ATOM      5  C   UNL     1      34.839 -16.390 -22.554  0.00  0.00    +0.151 C 
ATOM      6  C   UNL     1      35.112 -17.129 -21.414  0.00  0.00    +0.140 C 
ATOM      7  C   UNL     1      34.637 -15.164 -20.740  0.00  0.00    +0.221 C 
ATOM      8  C   UNL     1      35.453 -18.465 -21.596  0.00  0.00    +0.143 C 
ATOM      9  C   UNL     1      35.210 -18.126 -23.874  0.00  0.00    +0.253 C 
ATOM     10  N   UNL     1      35.744 -19.289 -20.494  0.00  0.00    -0.342 N 
ATOM     11  H   UNL     1      35.985 -20.233 -20.635  0.00  0.00    +0.144 HD
ATOM     12  H   UNL     1      35.707 -18.921 -19.581  0.00  0.00    +0.144 HD
ENDROOT
BRANCH   1  13
ATOM     13  C   UNL     1      34.179 -13.993 -22.908  0.00  0.00    +0.123 C 
BRANCH  13  14
ATOM     14  C   UNL     1      32.796 -14.132 -23.552  0.00  0.00    +0.130 C 
ATOM     15  C   UNL     1      32.876 -13.920 -25.058  0.00  0.00    +0.034 C 
BRANCH  14  16
ATOM     16  O   UNL     1      31.914 -13.143 -23.029  0.00  0.00    -0.383 OA
ATOM     17  H   UNL     1      31.665 -12.525 -23.734  0.00  0.00    +0.210 HD
ENDBRANCH  14  16
ENDBRANCH  13  14
ENDBRANCH   1  13
TORSDOF 3
ENDMDL
MODEL 7
REMARK VINA RESULT:      -6.8      3.452      6.173
REMARK  Name = 445210
REMARK  3 active torsions:
REMARK  status: ('A' for Active; 'I' for Inactive)
REMARK    1  A    between atoms: N_1  and  C_13
REMARK    2  A    between atoms: C_13  and  C_14
REMARK    3  A    between atoms: C_14  and  O_16
REMARK                            x       y       z     vdW  Elec       q    Type
REMARK                         _______ _______ _______ _____ _____    ______ ____
ROOT
ATOM      1  N   UNL     1      35.088 -17.041 -21.970  0.00  0.00    -0.269 N 
ATOM      2  N   UNL     1      34.093 -15.062 -22.223  0.00  0.00    -0.242 NA
ATOM      3  N   UNL     1      35.047 -17.826 -24.269  0.00  0.00    -0.228 NA
ATOM      4  N   UNL     1      33.995 -16.190 -25.744  0.00  0.00    -0.229 NA
ATOM      5  C   UNL     1      34.794 -16.933 -23.299  0.00  0.00    +0.151 C 
ATOM      6  C   UNL     1      34.178 -15.699 -23.436  0.00  0.00    +0.140 C 
ATOM      7  C   UNL     1      34.647 -15.894 -21.366  0.00  0.00    +0.221 C 
ATOM      8  C   UNL     1      33.772 -15.336 -24.716  0.00  0.00    +0.143 C 
ATOM      9  C   UNL     1      34.609 -17.364 -25.460  0.00  0.00    +0.253 C 
ATOM     10  N   UNL     1      33.141 -14.102 -24.947  0.00  0.00    -0.342 N 
ATOM     11  H   UNL     1      32.858 -13.856 -25.857  0.00  0.00    +0.144 HD
ATOM     12  H   UNL     1      32.981 -13.483 -24.197  0.00  0.00    +0.144 HD
ENDROOT
BRANCH   1  13
ATOM     13  C   UNL     1      35.738 -18.150 -21.315  0.00  0.00    +0.123 C 
BRANCH  13  14
ATOM     14  C   UNL     1      34.753 -19.238 -20.878  0.00  0.00    +0.130 C 
ATOM     15  C   UNL     1      35.493 -20.464 -20.364  0.00  0.00    +0.034 C 
BRANCH  14  16
ATOM     16  O   UNL     1      33.962 -19.652 -21.988  0.00  0.00    -0.383 OA
ATOM     17  H   UNL     1      34.432 -20.341 -22.482  0.00  0.00    +0.210 HD
ENDBRANCH  14  16
ENDBRANCH  13  14
ENDBRANCH   1  13
TORSDOF 3
ENDMDL
MODEL 8
REMARK VINA RESULT:      -6.7      5.852      7.651
REMARK  Name = 445210
REMARK  3 active torsions:
REMARK  status: ('A' for Active; 'I' for Inactive)
REMARK    1  A    between atoms: N_1  and  C_13
REMARK    2  A    between atoms: C_13  and  C_14
REMARK    3  A    between atoms: C_14  and  O_16
REMARK                            x       y       z     vdW  Elec       q    Type
REMARK                         _______ _______ _______ _____ _____    ______ ____
ROOT
ATOM      1  N   UNL     1      33.566 -13.551 -23.269  0.00  0.00    -0.269 N 
ATOM      2  N   UNL     1      34.818 -15.277 -22.616  0.00  0.00    -0.242 NA
ATOM      3  N   UNL     1      32.915 -14.322 -25.479  0.00  0.00    -0.228 NA
ATOM      4  N   UNL     1      33.867 -16.515 -25.969  0.00  0.00    -0.229 NA
ATOM      5  C   UNL     1      33.550 -14.443 -24.303  0.00  0.00    +0.151 C 
ATOM      6  C   UNL     1      34.331 -15.506 -23.879  0.00  0.00    +0.140 C 
ATOM      7  C   UNL     1      34.341 -14.096 -22.280  0.00  0.00    +0.221 C 
ATOM      8  C   UNL     1      34.480 -16.570 -24.762  0.00  0.00    +0.143 C 
ATOM      9  C   UNL     1      33.134 -15.410 -26.248  0.00  0.00    +0.253 C 
ATOM     10  N   UNL     1      35.254 -17.691 -24.413  0.00  0.00    -0.342 N 
ATOM     11  H   UNL     1      35.352 -18.438 -25.047  0.00  0.00    +0.144 HD
ATOM     12  H   UNL     1      35.698 -17.728 -23.535  0.00  0.00    +0.144 HD
ENDROOT
BRANCH   1  13
ATOM     13  C   UNL     1      32.899 -12.273 -23.218  0.00  0.00    +0.123 C 
BRANCH  13  14
ATOM     14  C   UNL     1      33.715 -11.154 -23.872  0.00  0.00    +0.130 C 
ATOM     15  C   UNL     1      33.055  -9.801 -23.648  0.00  0.00    +0.034 C 
BRANCH  14  16
ATOM     16  O   UNL     1      33.787 -11.365 -25.280  0.00  0.00    -0.383 OA
ATOM     17  H   UNL     1      32.895 -11.325 -25.659  0.00  0.00    +0.210 HD
ENDBRANCH  14  16
ENDBRANCH  13  14
ENDBRANCH   1  13
TORSDOF 3
ENDMDL
MODEL 9
REMARK VINA RESULT:      -6.7      7.108      8.752
REMARK  Name = 445210
REMARK  3 active torsions:
REMARK  status: ('A' for Active; 'I' for Inactive)
REMARK    1  A    between atoms: N_1  and  C_13
REMARK    2  A    between atoms: C_13  and  C_14
REMARK    3  A    between atoms: C_14  and  O_16
REMARK                            x       y       z     vdW  Elec       q    Type
REMARK                         _______ _______ _______ _____ _____    ______ ____
ROOT
ATOM      1  N   UNL     1      33.187 -23.731 -14.663  0.00  0.00    -0.269 N 
ATOM      2  N   UNL     1      34.855 -23.787 -16.141  0.00  0.00    -0.242 NA
ATOM      3  N   UNL     1      34.399 -24.325 -12.643  0.00  0.00    -0.228 NA
ATOM      4  N   UNL     1      36.766 -24.696 -13.108  0.00  0.00    -0.229 NA
ATOM      5  C   UNL     1      34.305 -24.072 -13.958  0.00  0.00    +0.151 C 
ATOM      6  C   UNL     1      35.329 -24.102 -14.892  0.00  0.00    +0.140 C 
ATOM      7  C   UNL     1      33.568 -23.571 -15.969  0.00  0.00    +0.221 C 
ATOM      8  C   UNL     1      36.598 -24.428 -14.425  0.00  0.00    +0.143 C 
ATOM      9  C   UNL     1      35.672 -24.629 -12.311  0.00  0.00    +0.253 C 
ATOM     10  N   UNL     1      37.695 -24.479 -15.302  0.00  0.00    -0.342 N 
ATOM     11  H   UNL     1      38.589 -24.712 -14.960  0.00  0.00    +0.144 HD
ATOM     12  H   UNL     1      37.570 -24.283 -16.259  0.00  0.00    +0.144 HD
ENDROOT
BRANCH   1  13
ATOM     13  C   UNL     1      31.851 -23.568 -14.143  0.00  0.00    +0.123 C 
BRANCH  13  14
ATOM     14  C   UNL     1      31.156 -24.906 -13.871  0.00  0.00    +0.130 C 
ATOM     15  C   UNL     1      30.141 -25.219 -14.960  0.00  0.00    +0.034 C 
BRANCH  14  16
ATOM     16  O   UNL     1      30.450 -24.844 -12.635  0.00  0.00    -0.383 OA
ATOM     17  H   UNL     1      29.814 -25.574 -12.589  0.00  0.00    +0.210 HD
ENDBRANCH  14  16
ENDBRANCH  13  14
ENDBRANCH   1  13
TORSDOF 3
ENDMDL
