MODEL 1
REMARK VINA RESULT:     -11.6      0.000      0.000
REMARK  Name = 21078798
REMARK  5 active torsions:
REMARK  status: ('A' for Active; 'I' for Inactive)
REMARK    1  A    between atoms: C_1  and  C_22
REMARK    2  A    between atoms: C_4  and  C_7
REMARK    3  A    between atoms: C_10  and  C_17
REMARK    4  A    between atoms: N_21  and  C_24
REMARK    5  A    between atoms: C_24  and  C_25
REMARK                            x       y       z     vdW  Elec       q    Type
REMARK                         _______ _______ _______ _____ _____    ______ ____
ROOT
ATOM      1  C   UNL     1      32.641 -11.575 -22.822  0.00  0.00    +0.053 C 
ATOM      2  C   UNL     1      32.088 -12.660 -22.141  0.00  0.00    +0.005 C 
ATOM      3  C   UNL     1      33.597 -11.788 -23.814  0.00  0.00    +0.005 C 
ATOM      4  C   UNL     1      33.448 -14.171 -23.448  0.00  0.00    -0.000 C 
ATOM      5  C   UNL     1      32.491 -13.958 -22.454  0.00  0.00    +0.000 C 
ATOM      6  C   UNL     1      34.001 -13.086 -24.128  0.00  0.00    +0.000 C 
ENDROOT
BRANCH   4   7
ATOM      7  C   UNL     1      33.868 -15.517 -23.772  0.00  0.00    -0.004 C 
ATOM      8  C   UNL     1      33.794 -15.998 -25.079  0.00  0.00    -0.022 C 
ATOM      9  C   UNL     1      34.350 -16.339 -22.754  0.00  0.00    +0.004 C 
ATOM     10  C   UNL     1      34.759 -17.640 -23.042  0.00  0.00    +0.055 C 
ATOM     11  C   UNL     1      34.204 -17.301 -25.368  0.00  0.00    -0.004 C 
ATOM     12  C   UNL     1      34.687 -18.120 -24.349  0.00  0.00    +0.004 C 
ATOM     13  C   UNL     1      33.282 -15.148 -26.197  0.00  0.00    +0.031 C 
BRANCH  10  17
ATOM     14  O   UNL     1      34.396 -19.431 -21.521  0.00  0.00    -0.420 OA
ATOM     15  N   UNL     1      36.429 -18.507 -21.392  0.00  0.00    -0.107 NA
ATOM     16  N   UNL     1      36.362 -19.524 -20.457  0.00  0.00    -0.111 NA
ATOM     17  C   UNL     1      35.260 -18.489 -21.989  0.00  0.00    +0.250 A 
ATOM     18  C   UNL     1      35.158 -20.034 -20.568  0.00  0.00    +0.227 A 
ATOM     19  C   UNL     1      34.537 -21.139 -19.826  0.00  0.00    +0.097 C 
ENDBRANCH  10  17
ENDBRANCH   4   7
BRANCH   1  22
ATOM     20  O   UNL     1      31.733  -9.963 -21.382  0.00  0.00    -0.270 OA
ATOM     21  N   UNL     1      32.414  -9.242 -23.479  0.00  0.00    -0.301 N 
ATOM     22  C   UNL     1      32.221 -10.221 -22.496  0.00  0.00    +0.246 C 
ATOM     23  H   UNL     1      32.806  -9.518 -24.339  0.00  0.00    +0.150 HD
BRANCH  21  24
ATOM     24  C   UNL     1      32.069  -7.850 -23.298  0.00  0.00    +0.090 C 
BRANCH  24  25
ATOM     25  C   UNL     1      33.291  -6.996 -23.254  0.00  0.00    +0.020 C 
ATOM     26  C   UNL     1      34.153  -6.885 -24.478  0.00  0.00    +0.002 C 
ATOM     27  C   UNL     1      34.643  -7.649 -23.282  0.00  0.00    +0.002 C 
ENDBRANCH  24  25
ENDBRANCH  21  24
ENDBRANCH   1  22
TORSDOF 5
ENDMDL
MODEL 2
REMARK VINA RESULT:     -11.6      3.000      9.981
REMARK  Name = 21078798
REMARK  5 active torsions:
REMARK  status: ('A' for Active; 'I' for Inactive)
REMARK    1  A    between atoms: C_1  and  C_22
REMARK    2  A    between atoms: C_4  and  C_7
REMARK    3  A    between atoms: C_10  and  C_17
REMARK    4  A    between atoms: N_21  and  C_24
REMARK    5  A    between atoms: C_24  and  C_25
REMARK                            x       y       z     vdW  Elec       q    Type
REMARK                         _______ _______ _______ _____ _____    ______ ____
ROOT
ATOM      1  C   UNL     1      34.329 -21.071 -19.749  0.00  0.00    +0.053 C 
ATOM      2  C   UNL     1      33.119 -20.601 -20.260  0.00  0.00    +0.005 C 
ATOM      3  C   UNL     1      35.535 -20.580 -20.249  0.00  0.00    +0.005 C 
ATOM      4  C   UNL     1      34.321 -19.147 -21.769  0.00  0.00    -0.000 C 
ATOM      5  C   UNL     1      33.114 -19.639 -21.269  0.00  0.00    +0.000 C 
ATOM      6  C   UNL     1      35.531 -19.616 -21.258  0.00  0.00    +0.000 C 
ENDROOT
BRANCH   4   7
ATOM      7  C   UNL     1      34.317 -18.150 -22.817  0.00  0.00    -0.004 C 
ATOM      8  C   UNL     1      34.706 -18.472 -24.117  0.00  0.00    -0.022 C 
ATOM      9  C   UNL     1      33.919 -16.849 -22.511  0.00  0.00    +0.004 C 
ATOM     10  C   UNL     1      33.908 -15.870 -23.505  0.00  0.00    +0.055 C 
ATOM     11  C   UNL     1      34.695 -17.493 -25.112  0.00  0.00    -0.004 C 
ATOM     12  C   UNL     1      34.296 -16.193 -24.805  0.00  0.00    +0.004 C 
ATOM     13  C   UNL     1      35.140 -19.855 -24.483  0.00  0.00    +0.031 C 
BRANCH  10  17
ATOM     14  O   UNL     1      33.999 -13.544 -23.985  0.00  0.00    -0.420 OA
ATOM     15  N   UNL     1      32.700 -14.078 -22.244  0.00  0.00    -0.107 NA
ATOM     16  N   UNL     1      32.658 -12.705 -22.403  0.00  0.00    -0.111 NA
ATOM     17  C   UNL     1      33.495 -14.525 -23.189  0.00  0.00    +0.250 A 
ATOM     18  C   UNL     1      33.430 -12.439 -23.430  0.00  0.00    +0.227 A 
ATOM     19  C   UNL     1      33.756 -11.146 -24.047  0.00  0.00    +0.097 C 
ENDBRANCH  10  17
ENDBRANCH   4   7
BRANCH   1  22
ATOM     20  O   UNL     1      35.404 -22.435 -18.173  0.00  0.00    -0.270 OA
ATOM     21  N   UNL     1      33.092 -22.583 -18.297  0.00  0.00    -0.301 N 
ATOM     22  C   UNL     1      34.334 -22.074 -18.696  0.00  0.00    +0.246 C 
ATOM     23  H   UNL     1      32.286 -22.253 -18.754  0.00  0.00    +0.150 HD
BRANCH  21  24
ATOM     24  C   UNL     1      32.932 -23.567 -17.249  0.00  0.00    +0.090 C 
BRANCH  24  25
ATOM     25  C   UNL     1      32.026 -23.064 -16.176  0.00  0.00    +0.020 C 
ATOM     26  C   UNL     1      30.959 -23.969 -15.634  0.00  0.00    +0.002 C 
ATOM     27  C   UNL     1      30.584 -22.801 -16.499  0.00  0.00    +0.002 C 
ENDBRANCH  24  25
ENDBRANCH  21  24
ENDBRANCH   1  22
TORSDOF 5
ENDMDL
MODEL 3
REMARK VINA RESULT:     -11.4      3.030      9.793
REMARK  Name = 21078798
REMARK  5 active torsions:
REMARK  status: ('A' for Active; 'I' for Inactive)
REMARK    1  A    between atoms: C_1  and  C_22
REMARK    2  A    between atoms: C_4  and  C_7
REMARK    3  A    between atoms: C_10  and  C_17
REMARK    4  A    between atoms: N_21  and  C_24
REMARK    5  A    between atoms: C_24  and  C_25
REMARK                            x       y       z     vdW  Elec       q    Type
REMARK                         _______ _______ _______ _____ _____    ______ ____
ROOT
ATOM      1  C   UNL     1      35.398 -20.716 -19.897  0.00  0.00    +0.053 C 
ATOM      2  C   UNL     1      34.095 -20.570 -20.375  0.00  0.00    +0.005 C 
ATOM      3  C   UNL     1      36.430 -19.952 -20.441  0.00  0.00    +0.005 C 
ATOM      4  C   UNL     1      34.857 -18.894 -21.939  0.00  0.00    -0.000 C 
ATOM      5  C   UNL     1      33.824 -19.659 -21.395  0.00  0.00    +0.000 C 
ATOM      6  C   UNL     1      36.160 -19.040 -21.462  0.00  0.00    +0.000 C 
ENDROOT
BRANCH   4   7
ATOM      7  C   UNL     1      34.578 -17.949 -22.999  0.00  0.00    -0.004 C 
ATOM      8  C   UNL     1      34.669 -18.325 -24.339  0.00  0.00    -0.022 C 
ATOM      9  C   UNL     1      34.216 -16.645 -22.664  0.00  0.00    +0.004 C 
ATOM     10  C   UNL     1      33.943 -15.717 -23.668  0.00  0.00    +0.055 C 
ATOM     11  C   UNL     1      34.395 -17.396 -25.344  0.00  0.00    -0.004 C 
ATOM     12  C   UNL     1      34.032 -16.093 -25.008  0.00  0.00    +0.004 C 
ATOM     13  C   UNL     1      35.055 -19.714 -24.737  0.00  0.00    +0.031 C 
BRANCH  10  17
ATOM     14  O   UNL     1      32.703 -14.240 -22.277  0.00  0.00    -0.420 OA
ATOM     15  N   UNL     1      33.920 -13.222 -23.855  0.00  0.00    -0.107 NA
ATOM     16  N   UNL     1      33.258 -12.247 -23.130  0.00  0.00    -0.111 NA
ATOM     17  C   UNL     1      33.566 -14.368 -23.322  0.00  0.00    +0.250 A 
ATOM     18  C   UNL     1      32.560 -12.887 -22.222  0.00  0.00    +0.227 A 
ATOM     19  C   UNL     1      31.671 -12.358 -21.179  0.00  0.00    +0.097 C 
ENDBRANCH  10  17
ENDBRANCH   4   7
BRANCH   1  22
ATOM     20  O   UNL     1      35.031 -22.722 -18.740  0.00  0.00    -0.270 OA
ATOM     21  N   UNL     1      36.717 -21.340 -17.949  0.00  0.00    -0.301 N 
ATOM     22  C   UNL     1      35.680 -21.666 -18.832  0.00  0.00    +0.246 C 
ATOM     23  H   UNL     1      37.189 -20.486 -18.080  0.00  0.00    +0.150 HD
BRANCH  21  24
ATOM     24  C   UNL     1      37.131 -22.190 -16.856  0.00  0.00    +0.090 C 
BRANCH  24  25
ATOM     25  C   UNL     1      36.154 -22.132 -15.731  0.00  0.00    +0.020 C 
ATOM     26  C   UNL     1      36.365 -23.006 -14.529  0.00  0.00    +0.002 C 
ATOM     27  C   UNL     1      35.247 -23.303 -15.486  0.00  0.00    +0.002 C 
ENDBRANCH  24  25
ENDBRANCH  21  24
ENDBRANCH   1  22
TORSDOF 5
ENDMDL
MODEL 4
REMARK VINA RESULT:     -11.3      1.205      1.749
REMARK  Name = 21078798
REMARK  5 active torsions:
REMARK  status: ('A' for Active; 'I' for Inactive)
REMARK    1  A    between atoms: C_1  and  C_22
REMARK    2  A    between atoms: C_4  and  C_7
REMARK    3  A    between atoms: C_10  and  C_17
REMARK    4  A    between atoms: N_21  and  C_24
REMARK    5  A    between atoms: C_24  and  C_25
REMARK                            x       y       z     vdW  Elec       q    Type
REMARK                         _______ _______ _______ _____ _____    ______ ____
ROOT
ATOM      1  C   UNL     1      32.383 -12.402 -22.352  0.00  0.00    +0.053 C 
ATOM      2  C   UNL     1      33.280 -12.523 -23.414  0.00  0.00    +0.005 C 
ATOM      3  C   UNL     1      32.047 -13.522 -21.592  0.00  0.00    +0.005 C 
ATOM      4  C   UNL     1      33.504 -14.884 -22.954  0.00  0.00    -0.000 C 
ATOM      5  C   UNL     1      33.840 -13.764 -23.715  0.00  0.00    +0.000 C 
ATOM      6  C   UNL     1      32.607 -14.764 -21.893  0.00  0.00    +0.000 C 
ENDROOT
BRANCH   4   7
ATOM      7  C   UNL     1      34.083 -16.173 -23.268  0.00  0.00    -0.004 C 
ATOM      8  C   UNL     1      34.200 -16.607 -24.588  0.00  0.00    -0.022 C 
ATOM      9  C   UNL     1      34.527 -16.985 -22.224  0.00  0.00    +0.004 C 
ATOM     10  C   UNL     1      35.088 -18.232 -22.501  0.00  0.00    +0.055 C 
ATOM     11  C   UNL     1      34.761 -17.854 -24.865  0.00  0.00    -0.004 C 
ATOM     12  C   UNL     1      35.205 -18.665 -23.822  0.00  0.00    +0.004 C 
ATOM     13  C   UNL     1      33.734 -15.764 -25.732  0.00  0.00    +0.031 C 
BRANCH  10  17
ATOM     14  O   UNL     1      34.720 -20.090 -21.065  0.00  0.00    -0.420 OA
ATOM     15  N   UNL     1      36.652 -19.018 -20.713  0.00  0.00    -0.107 NA
ATOM     16  N   UNL     1      36.574 -20.065 -19.813  0.00  0.00    -0.111 NA
ATOM     17  C   UNL     1      35.548 -19.072 -21.423  0.00  0.00    +0.250 A 
ATOM     18  C   UNL     1      35.431 -20.662 -20.055  0.00  0.00    +0.227 A 
ATOM     19  C   UNL     1      34.829 -21.833 -19.402  0.00  0.00    +0.097 C 
ENDBRANCH  10  17
ENDBRANCH   4   7
BRANCH   1  22
ATOM     20  O   UNL     1      30.993 -10.991 -21.096  0.00  0.00    -0.270 OA
ATOM     21  N   UNL     1      32.204 -10.020 -22.820  0.00  0.00    -0.301 N 
ATOM     22  C   UNL     1      31.799 -11.107 -22.036  0.00  0.00    +0.246 C 
ATOM     23  H   UNL     1      32.845 -10.184 -23.548  0.00  0.00    +0.150 HD
BRANCH  21  24
ATOM     24  C   UNL     1      31.731  -8.669 -22.616  0.00  0.00    +0.090 C 
BRANCH  24  25
ATOM     25  C   UNL     1      32.667  -7.898 -21.749  0.00  0.00    +0.020 C 
ATOM     26  C   UNL     1      32.333  -7.704 -20.298  0.00  0.00    +0.002 C 
ATOM     27  C   UNL     1      32.255  -6.544 -21.248  0.00  0.00    +0.002 C 
ENDBRANCH  24  25
ENDBRANCH  21  24
ENDBRANCH   1  22
TORSDOF 5
ENDMDL
MODEL 5
REMARK VINA RESULT:     -11.2      3.113     10.230
REMARK  Name = 21078798
REMARK  5 active torsions:
REMARK  status: ('A' for Active; 'I' for Inactive)
REMARK    1  A    between atoms: C_1  and  C_22
REMARK    2  A    between atoms: C_4  and  C_7
REMARK    3  A    between atoms: C_10  and  C_17
REMARK    4  A    between atoms: N_21  and  C_24
REMARK    5  A    between atoms: C_24  and  C_25
REMARK                            x       y       z     vdW  Elec       q    Type
REMARK                         _______ _______ _______ _____ _____    ______ ____
ROOT
ATOM      1  C   UNL     1      34.178 -21.484 -19.564  0.00  0.00    +0.053 C 
ATOM      2  C   UNL     1      32.960 -20.928 -19.956  0.00  0.00    +0.005 C 
ATOM      3  C   UNL     1      35.375 -20.872 -19.933  0.00  0.00    +0.005 C 
ATOM      4  C   UNL     1      34.138 -19.146 -21.084  0.00  0.00    -0.000 C 
ATOM      5  C   UNL     1      32.939 -19.759 -20.715  0.00  0.00    +0.000 C 
ATOM      6  C   UNL     1      35.355 -19.702 -20.693  0.00  0.00    +0.000 C 
ENDROOT
BRANCH   4   7
ATOM      7  C   UNL     1      34.118 -17.934 -21.874  0.00  0.00    -0.004 C 
ATOM      8  C   UNL     1      34.660 -17.904 -23.159  0.00  0.00    -0.022 C 
ATOM      9  C   UNL     1      33.547 -16.783 -21.331  0.00  0.00    +0.004 C 
ATOM     10  C   UNL     1      33.517 -15.603 -22.073  0.00  0.00    +0.055 C 
ATOM     11  C   UNL     1      34.630 -16.722 -23.901  0.00  0.00    -0.004 C 
ATOM     12  C   UNL     1      34.058 -15.573 -23.358  0.00  0.00    +0.004 C 
ATOM     13  C   UNL     1      35.281 -19.117 -23.774  0.00  0.00    +0.031 C 
BRANCH  10  17
ATOM     14  O   UNL     1      32.513 -13.474 -22.407  0.00  0.00    -0.420 OA
ATOM     15  N   UNL     1      32.713 -14.075 -20.262  0.00  0.00    -0.107 NA
ATOM     16  N   UNL     1      32.120 -12.826 -20.302  0.00  0.00    -0.111 NA
ATOM     17  C   UNL     1      32.925 -14.413 -21.513  0.00  0.00    +0.250 A 
ATOM     18  C   UNL     1      32.023 -12.516 -21.573  0.00  0.00    +0.227 A 
ATOM     19  C   UNL     1      31.472 -11.309 -22.203  0.00  0.00    +0.097 C 
ENDBRANCH  10  17
ENDBRANCH   4   7
BRANCH   1  22
ATOM     20  O   UNL     1      34.007 -23.809 -19.308  0.00  0.00    -0.270 OA
ATOM     21  N   UNL     1      34.465 -22.567 -17.403  0.00  0.00    -0.301 N 
ATOM     22  C   UNL     1      34.199 -22.704 -18.771  0.00  0.00    +0.246 C 
ATOM     23  H   UNL     1      34.607 -21.661 -17.045  0.00  0.00    +0.150 HD
BRANCH  21  24
ATOM     24  C   UNL     1      34.542 -23.685 -16.489  0.00  0.00    +0.090 C 
BRANCH  24  25
ATOM     25  C   UNL     1      35.478 -23.395 -15.366  0.00  0.00    +0.020 C 
ATOM     26  C   UNL     1      36.771 -22.689 -15.652  0.00  0.00    +0.002 C 
ATOM     27  C   UNL     1      36.777 -24.144 -15.282  0.00  0.00    +0.002 C 
ENDBRANCH  24  25
ENDBRANCH  21  24
ENDBRANCH   1  22
TORSDOF 5
ENDMDL
MODEL 6
REMARK VINA RESULT:     -10.6      4.439      8.850
REMARK  Name = 21078798
REMARK  5 active torsions:
REMARK  status: ('A' for Active; 'I' for Inactive)
REMARK    1  A    between atoms: C_1  and  C_22
REMARK    2  A    between atoms: C_4  and  C_7
REMARK    3  A    between atoms: C_10  and  C_17
REMARK    4  A    between atoms: N_21  and  C_24
REMARK    5  A    between atoms: C_24  and  C_25
REMARK                            x       y       z     vdW  Elec       q    Type
REMARK                         _______ _______ _______ _____ _____    ______ ____
ROOT
ATOM      1  C   UNL     1      34.580 -19.589 -21.675  0.00  0.00    +0.053 C 
ATOM      2  C   UNL     1      33.294 -19.785 -21.172  0.00  0.00    +0.005 C 
ATOM      3  C   UNL     1      35.672 -20.191 -21.052  0.00  0.00    +0.005 C 
ATOM      4  C   UNL     1      34.193 -21.187 -19.422  0.00  0.00    -0.000 C 
ATOM      5  C   UNL     1      33.100 -20.584 -20.046  0.00  0.00    +0.000 C 
ATOM      6  C   UNL     1      35.479 -20.991 -19.925  0.00  0.00    +0.000 C 
ENDROOT
BRANCH   4   7
ATOM      7  C   UNL     1      33.993 -22.015 -18.252  0.00  0.00    -0.004 C 
ATOM      8  C   UNL     1      35.073 -22.438 -17.478  0.00  0.00    -0.022 C 
ATOM      9  C   UNL     1      32.696 -22.392 -17.905  0.00  0.00    +0.004 C 
ATOM     10  C   UNL     1      32.479 -23.190 -16.782  0.00  0.00    +0.055 C 
ATOM     11  C   UNL     1      34.856 -23.237 -16.354  0.00  0.00    -0.004 C 
ATOM     12  C   UNL     1      33.559 -23.612 -16.007  0.00  0.00    +0.004 C 
ATOM     13  C   UNL     1      36.478 -22.055 -17.819  0.00  0.00    +0.031 C 
BRANCH  10  17
ATOM     14  O   UNL     1      30.141 -22.767 -16.868  0.00  0.00    -0.420 OA
ATOM     15  N   UNL     1      30.707 -24.602 -15.720  0.00  0.00    -0.107 NA
ATOM     16  N   UNL     1      29.329 -24.483 -15.684  0.00  0.00    -0.111 NA
ATOM     17  C   UNL     1      31.138 -23.579 -16.421  0.00  0.00    +0.250 A 
ATOM     18  C   UNL     1      29.045 -23.398 -16.366  0.00  0.00    +0.227 A 
ATOM     19  C   UNL     1      27.740 -22.789 -16.656  0.00  0.00    +0.097 C 
ENDBRANCH  10  17
ENDBRANCH   4   7
BRANCH   1  22
ATOM     20  O   UNL     1      34.934 -19.273 -23.972  0.00  0.00    -0.270 OA
ATOM     21  N   UNL     1      34.776 -17.369 -22.656  0.00  0.00    -0.301 N 
ATOM     22  C   UNL     1      34.783 -18.756 -22.851  0.00  0.00    +0.246 C 
ATOM     23  H   UNL     1      34.651 -17.029 -21.740  0.00  0.00    +0.150 HD
BRANCH  21  24
ATOM     24  C   UNL     1      34.941 -16.412 -23.726  0.00  0.00    +0.090 C 
BRANCH  24  25
ATOM     25  C   UNL     1      34.552 -15.042 -23.285  0.00  0.00    +0.020 C 
ATOM     26  C   UNL     1      34.329 -14.776 -21.824  0.00  0.00    +0.002 C 
ATOM     27  C   UNL     1      33.162 -14.806 -22.769  0.00  0.00    +0.002 C 
ENDBRANCH  24  25
ENDBRANCH  21  24
ENDBRANCH   1  22
TORSDOF 5
ENDMDL
MODEL 7
REMARK VINA RESULT:     -10.5      2.778      4.934
REMARK  Name = 21078798
REMARK  5 active torsions:
REMARK  status: ('A' for Active; 'I' for Inactive)
REMARK    1  A    between atoms: C_1  and  C_22
REMARK    2  A    between atoms: C_4  and  C_7
REMARK    3  A    between atoms: C_10  and  C_17
REMARK    4  A    between atoms: N_21  and  C_24
REMARK    5  A    between atoms: C_24  and  C_25
REMARK                            x       y       z     vdW  Elec       q    Type
REMARK                         _______ _______ _______ _____ _____    ______ ____
ROOT
ATOM      1  C   UNL     1      34.215 -15.734 -23.578  0.00  0.00    +0.053 C 
ATOM      2  C   UNL     1      34.426 -16.968 -24.194  0.00  0.00    +0.005 C 
ATOM      3  C   UNL     1      34.442 -15.589 -22.210  0.00  0.00    +0.005 C 
ATOM      4  C   UNL     1      35.092 -17.912 -22.073  0.00  0.00    -0.000 C 
ATOM      5  C   UNL     1      34.865 -18.057 -23.442  0.00  0.00    +0.000 C 
ATOM      6  C   UNL     1      34.882 -16.679 -21.457  0.00  0.00    +0.000 C 
ENDROOT
BRANCH   4   7
ATOM      7  C   UNL     1      35.546 -19.042 -21.291  0.00  0.00    -0.004 C 
ATOM      8  C   UNL     1      36.896 -19.389 -21.245  0.00  0.00    -0.022 C 
ATOM      9  C   UNL     1      34.610 -19.790 -20.577  0.00  0.00    +0.004 C 
ATOM     10  C   UNL     1      35.023 -20.883 -19.817  0.00  0.00    +0.055 C 
ATOM     11  C   UNL     1      37.310 -20.484 -20.485  0.00  0.00    -0.004 C 
ATOM     12  C   UNL     1      36.373 -21.230 -19.771  0.00  0.00    +0.004 C 
ATOM     13  C   UNL     1      37.929 -18.612 -21.998  0.00  0.00    +0.031 C 
BRANCH  10  17
ATOM     14  O   UNL     1      34.540 -22.372 -18.027  0.00  0.00    -0.420 OA
ATOM     15  N   UNL     1      32.760 -21.789 -19.251  0.00  0.00    -0.107 NA
ATOM     16  N   UNL     1      32.333 -22.650 -18.256  0.00  0.00    -0.111 NA
ATOM     17  C   UNL     1      34.055 -21.656 -19.078  0.00  0.00    +0.250 A 
ATOM     18  C   UNL     1      33.404 -22.964 -17.568  0.00  0.00    +0.227 A 
ATOM     19  C   UNL     1      33.543 -23.843 -16.399  0.00  0.00    +0.097 C 
ENDBRANCH  10  17
ENDBRANCH   4   7
BRANCH   1  22
ATOM     20  O   UNL     1      33.098 -14.772 -25.402  0.00  0.00    -0.270 OA
ATOM     21  N   UNL     1      34.077 -13.322 -23.879  0.00  0.00    -0.301 N 
ATOM     22  C   UNL     1      33.758 -14.597 -24.363  0.00  0.00    +0.246 C 
ATOM     23  H   UNL     1      34.603 -13.258 -23.050  0.00  0.00    +0.150 HD
BRANCH  21  24
ATOM     24  C   UNL     1      33.675 -12.097 -24.533  0.00  0.00    +0.090 C 
BRANCH  24  25
ATOM     25  C   UNL     1      34.312 -10.912 -23.889  0.00  0.00    +0.020 C 
ATOM     26  C   UNL     1      33.680  -9.561 -24.052  0.00  0.00    +0.002 C 
ATOM     27  C   UNL     1      34.970  -9.875 -24.752  0.00  0.00    +0.002 C 
ENDBRANCH  24  25
ENDBRANCH  21  24
ENDBRANCH   1  22
TORSDOF 5
ENDMDL
MODEL 8
REMARK VINA RESULT:     -10.3      1.519      2.167
REMARK  Name = 21078798
REMARK  5 active torsions:
REMARK  status: ('A' for Active; 'I' for Inactive)
REMARK    1  A    between atoms: C_1  and  C_22
REMARK    2  A    between atoms: C_4  and  C_7
REMARK    3  A    between atoms: C_10  and  C_17
REMARK    4  A    between atoms: N_21  and  C_24
REMARK    5  A    between atoms: C_24  and  C_25
REMARK                            x       y       z     vdW  Elec       q    Type
REMARK                         _______ _______ _______ _____ _____    ______ ____
ROOT
ATOM      1  C   UNL     1      32.538 -10.030 -23.000  0.00  0.00    +0.053 C 
ATOM      2  C   UNL     1      33.544 -10.293 -23.930  0.00  0.00    +0.005 C 
ATOM      3  C   UNL     1      31.858 -11.084 -22.391  0.00  0.00    +0.005 C 
ATOM      4  C   UNL     1      33.189 -12.666 -23.641  0.00  0.00    -0.000 C 
ATOM      5  C   UNL     1      33.870 -11.611 -24.250  0.00  0.00    +0.000 C 
ATOM      6  C   UNL     1      32.183 -12.402 -22.711  0.00  0.00    +0.000 C 
ENDROOT
BRANCH   4   7
ATOM      7  C   UNL     1      33.525 -14.033 -23.973  0.00  0.00    -0.004 C 
ATOM      8  C   UNL     1      33.383 -14.512 -25.275  0.00  0.00    -0.022 C 
ATOM      9  C   UNL     1      33.995 -14.877 -22.968  0.00  0.00    +0.004 C 
ATOM     10  C   UNL     1      34.325 -16.199 -23.264  0.00  0.00    +0.055 C 
ATOM     11  C   UNL     1      33.712 -15.835 -25.572  0.00  0.00    -0.004 C 
ATOM     12  C   UNL     1      34.183 -16.678 -24.566  0.00  0.00    +0.004 C 
ATOM     13  C   UNL     1      32.880 -13.638 -26.379  0.00  0.00    +0.031 C 
BRANCH  10  17
ATOM     14  O   UNL     1      34.639 -18.405 -22.435  0.00  0.00    -0.420 OA
ATOM     15  N   UNL     1      35.406 -16.793 -21.087  0.00  0.00    -0.107 NA
ATOM     16  N   UNL     1      35.654 -18.011 -20.481  0.00  0.00    -0.111 NA
ATOM     17  C   UNL     1      34.813 -17.072 -22.225  0.00  0.00    +0.250 A 
ATOM     18  C   UNL     1      35.190 -18.922 -21.303  0.00  0.00    +0.227 A 
ATOM     19  C   UNL     1      35.184 -20.385 -21.172  0.00  0.00    +0.097 C 
ENDBRANCH  10  17
ENDBRANCH   4   7
BRANCH   1  22
ATOM     20  O   UNL     1      31.777  -8.368 -21.531  0.00  0.00    -0.270 OA
ATOM     21  N   UNL     1      32.390  -7.692 -23.664  0.00  0.00    -0.301 N 
ATOM     22  C   UNL     1      32.198  -8.655 -22.665  0.00  0.00    +0.246 C 
ATOM     23  H   UNL     1      32.726  -7.991 -24.539  0.00  0.00    +0.150 HD
BRANCH  21  24
ATOM     24  C   UNL     1      32.120  -6.285 -23.477  0.00  0.00    +0.090 C 
BRANCH  24  25
ATOM     25  C   UNL     1      31.498  -5.691 -24.695  0.00  0.00    +0.020 C 
ATOM     26  C   UNL     1      32.295  -4.736 -25.535  0.00  0.00    +0.002 C 
ATOM     27  C   UNL     1      31.152  -4.230 -24.704  0.00  0.00    +0.002 C 
ENDBRANCH  24  25
ENDBRANCH  21  24
ENDBRANCH   1  22
TORSDOF 5
ENDMDL
MODEL 9
REMARK VINA RESULT:     -10.2      5.011      9.949
REMARK  Name = 21078798
REMARK  5 active torsions:
REMARK  status: ('A' for Active; 'I' for Inactive)
REMARK    1  A    between atoms: C_1  and  C_22
REMARK    2  A    between atoms: C_4  and  C_7
REMARK    3  A    between atoms: C_10  and  C_17
REMARK    4  A    between atoms: N_21  and  C_24
REMARK    5  A    between atoms: C_24  and  C_25
REMARK                            x       y       z     vdW  Elec       q    Type
REMARK                         _______ _______ _______ _____ _____    ______ ____
ROOT
ATOM      1  C   UNL     1      35.120 -20.369 -20.445  0.00  0.00    +0.053 C 
ATOM      2  C   UNL     1      36.299 -20.665 -19.760  0.00  0.00    +0.005 C 
ATOM      3  C   UNL     1      33.904 -20.883 -19.996  0.00  0.00    +0.005 C 
ATOM      4  C   UNL     1      35.044 -21.988 -18.175  0.00  0.00    -0.000 C 
ATOM      5  C   UNL     1      36.261 -21.474 -18.625  0.00  0.00    +0.000 C 
ATOM      6  C   UNL     1      33.865 -21.693 -18.860  0.00  0.00    +0.000 C 
ENDROOT
BRANCH   4   7
ATOM      7  C   UNL     1      35.004 -22.830 -16.998  0.00  0.00    -0.004 C 
ATOM      8  C   UNL     1      33.801 -23.366 -16.539  0.00  0.00    -0.022 C 
ATOM      9  C   UNL     1      36.192 -23.100 -16.320  0.00  0.00    +0.004 C 
ATOM     10  C   UNL     1      36.178 -23.907 -15.183  0.00  0.00    +0.055 C 
ATOM     11  C   UNL     1      33.787 -24.174 -15.401  0.00  0.00    -0.004 C 
ATOM     12  C   UNL     1      34.976 -24.445 -14.724  0.00  0.00    +0.004 C 
ATOM     13  C   UNL     1      32.507 -23.098 -17.239  0.00  0.00    +0.031 C 
BRANCH  10  17
ATOM     14  O   UNL     1      38.237 -25.090 -15.074  0.00  0.00    -0.420 OA
ATOM     15  N   UNL     1      37.869 -23.714 -13.348  0.00  0.00    -0.107 NA
ATOM     16  N   UNL     1      39.091 -24.330 -13.151  0.00  0.00    -0.111 NA
ATOM     17  C   UNL     1      37.407 -24.189 -14.483  0.00  0.00    +0.250 A 
ATOM     18  C   UNL     1      39.265 -25.123 -14.181  0.00  0.00    +0.227 A 
ATOM     19  C   UNL     1      40.386 -26.018 -14.496  0.00  0.00    +0.097 C 
ENDBRANCH  10  17
ENDBRANCH   4   7
BRANCH   1  22
ATOM     20  O   UNL     1      34.960 -20.009 -22.757  0.00  0.00    -0.270 OA
ATOM     21  N   UNL     1      35.405 -18.161 -21.428  0.00  0.00    -0.301 N 
ATOM     22  C   UNL     1      35.159 -19.524 -21.629  0.00  0.00    +0.246 C 
ATOM     23  H   UNL     1      35.554 -17.845 -20.508  0.00  0.00    +0.150 HD
BRANCH  21  24
ATOM     24  C   UNL     1      35.452 -17.192 -22.500  0.00  0.00    +0.090 C 
BRANCH  24  25
ATOM     25  C   UNL     1      34.455 -16.104 -22.284  0.00  0.00    +0.020 C 
ATOM     26  C   UNL     1      34.612 -15.189 -21.105  0.00  0.00    +0.002 C 
ATOM     27  C   UNL     1      33.504 -16.202 -21.126  0.00  0.00    +0.002 C 
ENDBRANCH  24  25
ENDBRANCH  21  24
ENDBRANCH   1  22
TORSDOF 5
ENDMDL
