MODEL 1
REMARK VINA RESULT:     -10.7      0.000      0.000
REMARK  Name = 33672
REMARK  8 active torsions:
REMARK  status: ('A' for Active; 'I' for Inactive)
REMARK    1  A    between atoms: N_2  and  CA_11
REMARK    2  A    between atoms: C_3  and  C_19
REMARK    3  A    between atoms: CA_10  and  C_16
REMARK    4  A    between atoms: C_16  and  O_17
REMARK    5  A    between atoms: C_19  and  C_20
REMARK    6  A    between atoms: C_19  and  C_27
REMARK    7  A    between atoms: C_27  and  O_28
REMARK    8  A    between atoms: O_28  and  C_29
REMARK                            x       y       z     vdW  Elec       q    Type
REMARK                         _______ _______ _______ _____ _____    ______ ____
ROOT
ATOM      1  O   UNL     1      33.042 -22.817 -14.508  0.00  0.00    -0.274 OA
ATOM      2  N   UNL     1      34.778 -23.013 -16.032  0.00  0.00    -0.296 N 
ATOM      3  C   UNL     1      33.437 -23.057 -15.648  0.00  0.00    +0.237 C 
ATOM      4  H   UNL     1      35.007 -23.220 -16.967  0.00  0.00    +0.150 HD
ENDROOT
BRANCH   2  11
ATOM      5  S   UNL     1      35.501 -25.373 -14.205  0.00  0.00    -0.118 S 
ATOM      6  O   UNL     1      37.888 -22.601 -16.661  0.00  0.00    -0.273 OA
ATOM      7  N   UNL     1      37.535 -23.834 -14.679  0.00  0.00    -0.260 N 
ATOM      8  C   UNL     1      36.229 -23.703 -14.026  0.00  0.00    +0.151 C 
ATOM      9  C   UNL     1      37.189 -26.158 -14.128  0.00  0.00    +0.068 C 
ATOM     10  CA  UNL     1      38.092 -25.157 -14.880  0.00  0.00    +0.184 C 
ATOM     11  CA  UNL     1      35.866 -22.672 -15.104  0.00  0.00    +0.178 C 
ATOM     12  C   UNL     1      37.276 -22.930 -15.670  0.00  0.00    +0.247 C 
ATOM     13  C   UNL     1      37.140 -27.510 -14.842  0.00  0.00    +0.013 C 
ATOM     14  C   UNL     1      37.550 -26.356 -12.650  0.00  0.00    +0.013 C 
BRANCH  10  16
ATOM     15  OXT UNL     1      39.908 -24.551 -13.409  0.00  0.00    -0.248 OA
ATOM     16  C   UNL     1      39.514 -25.111 -14.422  0.00  0.00    +0.333 C 
BRANCH  16  17
ATOM     17  O   UNL     1      40.317 -25.775 -15.288  0.00  0.00    -0.479 OA
ATOM     18  H   UNL     1      40.714 -25.318 -16.003  0.00  0.00    +0.295 HD
ENDBRANCH  16  17
ENDBRANCH  10  16
ENDBRANCH   2  11
BRANCH   3  19
ATOM     19  C   UNL     1      32.491 -23.455 -16.780  0.00  0.00    +0.198 C 
BRANCH  19  20
ATOM     20  C   UNL     1      31.081 -23.601 -16.234  0.00  0.00    -0.003 C 
ATOM     21  C   UNL     1      30.198 -22.548 -16.367  0.00  0.00    -0.003 C 
ATOM     22  C   UNL     1      30.720 -24.785 -15.619  0.00  0.00    -0.003 C 
ATOM     23  C   UNL     1      28.903 -22.683 -15.866  0.00  0.00    -0.000 C 
ATOM     24  C   UNL     1      29.425 -24.920 -15.117  0.00  0.00    -0.000 C 
ATOM     25  C   UNL     1      28.517 -23.868 -15.241  0.00  0.00    -0.000 C 
ENDBRANCH  19  20
BRANCH  19  27
ATOM     26  O   UNL     1      31.863 -21.516 -18.120  0.00  0.00    -0.249 OA
ATOM     27  C   UNL     1      32.554 -22.518 -17.979  0.00  0.00    +0.334 C 
BRANCH  27  28
ATOM     28  O   UNL     1      33.547 -22.960 -18.853  0.00  0.00    -0.424 OA
BRANCH  28  29
ATOM     29  C   UNL     1      34.253 -21.916 -19.452  0.00  0.00    +0.148 C 
ATOM     30  C   UNL     1      33.554 -20.971 -20.170  0.00  0.00    +0.038 C 
ATOM     31  C   UNL     1      35.622 -21.870 -19.302  0.00  0.00    +0.038 C 
ATOM     32  C   UNL     1      34.260 -19.927 -20.770  0.00  0.00    +0.003 C 
ATOM     33  C   UNL     1      36.327 -20.826 -19.900  0.00  0.00    +0.003 C 
ATOM     34  C   UNL     1      35.646 -19.855 -20.634  0.00  0.00    +0.000 C 
ENDBRANCH  28  29
ENDBRANCH  27  28
ENDBRANCH  19  27
ENDBRANCH   3  19
TORSDOF 8
ENDMDL
MODEL 2
REMARK VINA RESULT:      -9.9      1.358      4.582
REMARK  Name = 33672
REMARK  8 active torsions:
REMARK  status: ('A' for Active; 'I' for Inactive)
REMARK    1  A    between atoms: N_2  and  CA_11
REMARK    2  A    between atoms: C_3  and  C_19
REMARK    3  A    between atoms: CA_10  and  C_16
REMARK    4  A    between atoms: C_16  and  O_17
REMARK    5  A    between atoms: C_19  and  C_20
REMARK    6  A    between atoms: C_19  and  C_27
REMARK    7  A    between atoms: C_27  and  O_28
REMARK    8  A    between atoms: O_28  and  C_29
REMARK                            x       y       z     vdW  Elec       q    Type
REMARK                         _______ _______ _______ _____ _____    ______ ____
ROOT
ATOM      1  O   UNL     1      36.608 -21.258 -17.869  0.00  0.00    -0.274 OA
ATOM      2  N   UNL     1      35.773 -22.426 -16.049  0.00  0.00    -0.296 N 
ATOM      3  C   UNL     1      35.687 -21.864 -17.323  0.00  0.00    +0.237 C 
ATOM      4  H   UNL     1      34.985 -22.895 -15.687  0.00  0.00    +0.150 HD
ENDROOT
BRANCH   2  11
ATOM      5  S   UNL     1      35.906 -24.718 -14.010  0.00  0.00    -0.118 S 
ATOM      6  O   UNL     1      38.802 -23.038 -16.874  0.00  0.00    -0.273 OA
ATOM      7  N   UNL     1      38.260 -23.921 -14.754  0.00  0.00    -0.260 N 
ATOM      8  C   UNL     1      37.110 -23.340 -14.055  0.00  0.00    +0.151 C 
ATOM      9  C   UNL     1      37.284 -25.970 -13.932  0.00  0.00    +0.068 C 
ATOM     10  CA  UNL     1      38.380 -25.363 -14.834  0.00  0.00    +0.184 C 
ATOM     11  CA  UNL     1      36.984 -22.350 -15.220  0.00  0.00    +0.178 C 
ATOM     12  C   UNL     1      38.203 -23.075 -15.824  0.00  0.00    +0.247 C 
ATOM     13  C   UNL     1      36.777 -27.302 -14.488  0.00  0.00    +0.013 C 
ATOM     14  C   UNL     1      37.689 -26.134 -12.460  0.00  0.00    +0.013 C 
BRANCH  10  16
ATOM     15  OXT UNL     1      40.295 -26.812 -14.594  0.00  0.00    -0.248 OA
ATOM     16  C   UNL     1      39.784 -25.711 -14.456  0.00  0.00    +0.333 C 
BRANCH  16  17
ATOM     17  O   UNL     1      40.419 -24.635 -13.930  0.00  0.00    -0.479 OA
ATOM     18  H   UNL     1      41.343 -24.533 -14.047  0.00  0.00    +0.295 HD
ENDBRANCH  16  17
ENDBRANCH  10  16
ENDBRANCH   2  11
BRANCH   3  19
ATOM     19  C   UNL     1      34.321 -22.054 -17.984  0.00  0.00    +0.198 C 
BRANCH  19  20
ATOM     20  C   UNL     1      34.258 -21.234 -19.261  0.00  0.00    -0.003 C 
ATOM     21  C   UNL     1      35.423 -20.992 -19.960  0.00  0.00    -0.003 C 
ATOM     22  C   UNL     1      33.035 -20.754 -19.688  0.00  0.00    -0.003 C 
ATOM     23  C   UNL     1      35.365 -20.239 -21.134  0.00  0.00    -0.000 C 
ATOM     24  C   UNL     1      32.976 -20.001 -20.862  0.00  0.00    -0.000 C 
ATOM     25  C   UNL     1      34.141 -19.744 -21.584  0.00  0.00    -0.000 C 
ENDBRANCH  19  20
BRANCH  19  27
ATOM     26  O   UNL     1      33.905 -24.058 -19.311  0.00  0.00    -0.249 OA
ATOM     27  C   UNL     1      33.958 -23.514 -18.214  0.00  0.00    +0.334 C 
BRANCH  27  28
ATOM     28  O   UNL     1      33.745 -24.132 -16.981  0.00  0.00    -0.424 OA
BRANCH  28  29
ATOM     29  C   UNL     1      32.628 -23.637 -16.307  0.00  0.00    +0.148 C 
ATOM     30  C   UNL     1      32.689 -23.496 -14.939  0.00  0.00    +0.038 C 
ATOM     31  C   UNL     1      31.506 -23.309 -17.037  0.00  0.00    +0.038 C 
ATOM     32  C   UNL     1      31.572 -23.002 -14.264  0.00  0.00    +0.003 C 
ATOM     33  C   UNL     1      30.389 -22.814 -16.364  0.00  0.00    +0.003 C 
ATOM     34  C   UNL     1      30.423 -22.660 -14.978  0.00  0.00    +0.000 C 
ENDBRANCH  28  29
ENDBRANCH  27  28
ENDBRANCH  19  27
ENDBRANCH   3  19
TORSDOF 8
ENDMDL
MODEL 3
REMARK VINA RESULT:      -9.1     11.157     14.622
REMARK  Name = 33672
REMARK  8 active torsions:
REMARK  status: ('A' for Active; 'I' for Inactive)
REMARK    1  A    between atoms: N_2  and  CA_11
REMARK    2  A    between atoms: C_3  and  C_19
REMARK    3  A    between atoms: CA_10  and  C_16
REMARK    4  A    between atoms: C_16  and  O_17
REMARK    5  A    between atoms: C_19  and  C_20
REMARK    6  A    between atoms: C_19  and  C_27
REMARK    7  A    between atoms: C_27  and  O_28
REMARK    8  A    between atoms: O_28  and  C_29
REMARK                            x       y       z     vdW  Elec       q    Type
REMARK                         _______ _______ _______ _____ _____    ______ ____
ROOT
ATOM      1  O   UNL     1      34.501 -10.141 -23.711  0.00  0.00    -0.274 OA
ATOM      2  N   UNL     1      33.116 -11.995 -23.856  0.00  0.00    -0.296 N 
ATOM      3  C   UNL     1      33.378 -10.640 -23.648  0.00  0.00    +0.237 C 
ATOM      4  H   UNL     1      32.185 -12.310 -23.785  0.00  0.00    +0.150 HD
ENDROOT
BRANCH   2  11
ATOM      5  S   UNL     1      33.772 -13.785 -21.448  0.00  0.00    -0.118 S 
ATOM      6  O   UNL     1      32.923 -14.607 -25.693  0.00  0.00    -0.273 OA
ATOM      7  N   UNL     1      34.143 -14.999 -23.711  0.00  0.00    -0.260 N 
ATOM      8  C   UNL     1      34.705 -13.834 -23.023  0.00  0.00    +0.151 C 
ATOM      9  C   UNL     1      33.603 -15.640 -21.447  0.00  0.00    +0.068 C 
ATOM     10  CA  UNL     1      33.421 -15.991 -22.939  0.00  0.00    +0.184 C 
ATOM     11  CA  UNL     1      34.165 -12.975 -24.173  0.00  0.00    +0.178 C 
ATOM     12  C   UNL     1      33.631 -14.295 -24.763  0.00  0.00    +0.247 C 
ATOM     13  C   UNL     1      32.370 -16.026 -20.628  0.00  0.00    +0.013 C 
ATOM     14  C   UNL     1      34.867 -16.228 -20.804  0.00  0.00    +0.013 C 
BRANCH  10  16
ATOM     15  OXT UNL     1      34.120 -18.275 -22.592  0.00  0.00    -0.248 OA
ATOM     16  C   UNL     1      33.940 -17.333 -23.348  0.00  0.00    +0.333 C 
BRANCH  16  17
ATOM     17  O   UNL     1      34.190 -17.363 -24.679  0.00  0.00    -0.479 OA
ATOM     18  H   UNL     1      33.527 -17.101 -25.287  0.00  0.00    +0.295 HD
ENDBRANCH  16  17
ENDBRANCH  10  16
ENDBRANCH   2  11
BRANCH   3  19
ATOM     19  C   UNL     1      32.131  -9.822 -23.311  0.00  0.00    +0.198 C 
BRANCH  19  20
ATOM     20  C   UNL     1      31.790 -10.001 -21.842  0.00  0.00    -0.003 C 
ATOM     21  C   UNL     1      32.250  -9.073 -20.929  0.00  0.00    -0.003 C 
ATOM     22  C   UNL     1      31.026 -11.087 -21.460  0.00  0.00    -0.003 C 
ATOM     23  C   UNL     1      31.936  -9.238 -19.580  0.00  0.00    -0.000 C 
ATOM     24  C   UNL     1      30.711 -11.252 -20.111  0.00  0.00    -0.000 C 
ATOM     25  C   UNL     1      31.167 -10.327 -19.171  0.00  0.00    -0.000 C 
ENDBRANCH  19  20
BRANCH  19  27
ATOM     26  O   UNL     1      33.297  -7.781 -23.966  0.00  0.00    -0.249 OA
ATOM     27  C   UNL     1      32.246  -8.355 -23.705  0.00  0.00    +0.334 C 
BRANCH  27  28
ATOM     28  O   UNL     1      30.969  -7.797 -23.763  0.00  0.00    -0.424 OA
BRANCH  28  29
ATOM     29  C   UNL     1      30.966  -6.416 -23.554  0.00  0.00    +0.148 C 
ATOM     30  C   UNL     1      31.162  -5.584 -24.633  0.00  0.00    +0.038 C 
ATOM     31  C   UNL     1      30.768  -5.940 -22.277  0.00  0.00    +0.038 C 
ATOM     32  C   UNL     1      31.160  -4.204 -24.425  0.00  0.00    +0.003 C 
ATOM     33  C   UNL     1      30.764  -4.561 -22.068  0.00  0.00    +0.003 C 
ATOM     34  C   UNL     1      30.960  -3.693 -23.142  0.00  0.00    +0.000 C 
ENDBRANCH  28  29
ENDBRANCH  27  28
ENDBRANCH  19  27
ENDBRANCH   3  19
TORSDOF 8
ENDMDL
MODEL 4
REMARK VINA RESULT:      -9.0      9.276     13.714
REMARK  Name = 33672
REMARK  8 active torsions:
REMARK  status: ('A' for Active; 'I' for Inactive)
REMARK    1  A    between atoms: N_2  and  CA_11
REMARK    2  A    between atoms: C_3  and  C_19
REMARK    3  A    between atoms: CA_10  and  C_16
REMARK    4  A    between atoms: C_16  and  O_17
REMARK    5  A    between atoms: C_19  and  C_20
REMARK    6  A    between atoms: C_19  and  C_27
REMARK    7  A    between atoms: C_27  and  O_28
REMARK    8  A    between atoms: O_28  and  C_29
REMARK                            x       y       z     vdW  Elec       q    Type
REMARK                         _______ _______ _______ _____ _____    ______ ____
ROOT
ATOM      1  O   UNL     1      33.181 -14.360 -25.644  0.00  0.00    -0.274 OA
ATOM      2  N   UNL     1      34.381 -12.856 -24.349  0.00  0.00    -0.296 N 
ATOM      3  C   UNL     1      33.985 -14.136 -24.739  0.00  0.00    +0.237 C 
ATOM      4  H   UNL     1      35.030 -12.769 -23.614  0.00  0.00    +0.150 HD
ENDROOT
BRANCH   2  11
ATOM      5  S   UNL     1      31.975 -11.698 -22.833  0.00  0.00    -0.118 S 
ATOM      6  O   UNL     1      35.696  -9.940 -24.407  0.00  0.00    -0.273 OA
ATOM      7  N   UNL     1      33.368  -9.861 -24.023  0.00  0.00    -0.260 N 
ATOM      8  C   UNL     1      32.578 -11.028 -24.426  0.00  0.00    +0.151 C 
ATOM      9  C   UNL     1      31.930  -9.991 -22.088  0.00  0.00    +0.068 C 
ATOM     10  CA  UNL     1      33.159  -9.291 -22.707  0.00  0.00    +0.184 C 
ATOM     11  CA  UNL     1      33.873 -11.632 -24.985  0.00  0.00    +0.178 C 
ATOM     12  C   UNL     1      34.558 -10.341 -24.493  0.00  0.00    +0.247 C 
ATOM     13  C   UNL     1      32.061 -10.109 -20.568  0.00  0.00    +0.013 C 
ATOM     14  C   UNL     1      30.583  -9.352 -22.452  0.00  0.00    +0.013 C 
BRANCH  10  16
ATOM     15  OXT UNL     1      32.833  -7.246 -23.947  0.00  0.00    -0.248 OA
ATOM     16  C   UNL     1      33.031  -7.812 -22.882  0.00  0.00    +0.333 C 
BRANCH  16  17
ATOM     17  O   UNL     1      33.167  -7.175 -21.694  0.00  0.00    -0.479 OA
ATOM     18  H   UNL     1      33.378  -6.262 -21.673  0.00  0.00    +0.295 HD
ENDBRANCH  16  17
ENDBRANCH  10  16
ENDBRANCH   2  11
BRANCH   3  19
ATOM     19  C   UNL     1      34.632 -15.253 -23.920  0.00  0.00    +0.198 C 
BRANCH  19  20
ATOM     20  C   UNL     1      34.055 -15.248 -22.514  0.00  0.00    -0.003 C 
ATOM     21  C   UNL     1      32.685 -15.277 -22.351  0.00  0.00    -0.003 C 
ATOM     22  C   UNL     1      34.920 -15.215 -21.437  0.00  0.00    -0.003 C 
ATOM     23  C   UNL     1      32.156 -15.273 -21.060  0.00  0.00    -0.000 C 
ATOM     24  C   UNL     1      34.392 -15.211 -20.145  0.00  0.00    -0.000 C 
ATOM     25  C   UNL     1      33.010 -15.240 -19.958  0.00  0.00    -0.000 C 
ENDBRANCH  19  20
BRANCH  19  27
ATOM     26  O   UNL     1      33.641 -16.970 -25.341  0.00  0.00    -0.249 OA
ATOM     27  C   UNL     1      34.536 -16.621 -24.580  0.00  0.00    +0.334 C 
BRANCH  27  28
ATOM     28  O   UNL     1      35.647 -17.383 -24.215  0.00  0.00    -0.424 OA
BRANCH  28  29
ATOM     29  C   UNL     1      35.432 -18.148 -23.068  0.00  0.00    +0.148 C 
ATOM     30  C   UNL     1      36.448 -18.255 -22.145  0.00  0.00    +0.038 C 
ATOM     31  C   UNL     1      34.212 -18.766 -22.902  0.00  0.00    +0.038 C 
ATOM     32  C   UNL     1      36.235 -19.021 -20.997  0.00  0.00    +0.003 C 
ATOM     33  C   UNL     1      33.997 -19.530 -21.755  0.00  0.00    +0.003 C 
ATOM     34  C   UNL     1      35.009 -19.657 -20.803  0.00  0.00    +0.000 C 
ENDBRANCH  28  29
ENDBRANCH  27  28
ENDBRANCH  19  27
ENDBRANCH   3  19
TORSDOF 8
ENDMDL
MODEL 5
REMARK VINA RESULT:      -8.8     11.124     14.638
REMARK  Name = 33672
REMARK  8 active torsions:
REMARK  status: ('A' for Active; 'I' for Inactive)
REMARK    1  A    between atoms: N_2  and  CA_11
REMARK    2  A    between atoms: C_3  and  C_19
REMARK    3  A    between atoms: CA_10  and  C_16
REMARK    4  A    between atoms: C_16  and  O_17
REMARK    5  A    between atoms: C_19  and  C_20
REMARK    6  A    between atoms: C_19  and  C_27
REMARK    7  A    between atoms: C_27  and  O_28
REMARK    8  A    between atoms: O_28  and  C_29
REMARK                            x       y       z     vdW  Elec       q    Type
REMARK                         _______ _______ _______ _____ _____    ______ ____
ROOT
ATOM      1  O   UNL     1      34.063  -9.842 -23.666  0.00  0.00    -0.274 OA
ATOM      2  N   UNL     1      32.860 -11.821 -23.767  0.00  0.00    -0.296 N 
ATOM      3  C   UNL     1      33.009 -10.457 -23.514  0.00  0.00    +0.237 C 
ATOM      4  H   UNL     1      31.978 -12.234 -23.617  0.00  0.00    +0.150 HD
ENDROOT
BRANCH   2  11
ATOM      5  S   UNL     1      33.731 -13.860 -21.642  0.00  0.00    -0.118 S 
ATOM      6  O   UNL     1      32.771 -14.176 -25.930  0.00  0.00    -0.273 OA
ATOM      7  N   UNL     1      34.093 -14.736 -24.057  0.00  0.00    -0.260 N 
ATOM      8  C   UNL     1      34.602 -13.634 -23.237  0.00  0.00    +0.151 C 
ATOM      9  C   UNL     1      33.688 -15.707 -21.884  0.00  0.00    +0.068 C 
ATOM     10  CA  UNL     1      33.471 -15.871 -23.404  0.00  0.00    +0.184 C 
ATOM     11  CA  UNL     1      33.959 -12.672 -24.245  0.00  0.00    +0.178 C 
ATOM     12  C   UNL     1      33.493 -13.938 -24.989  0.00  0.00    +0.247 C 
ATOM     13  C   UNL     1      32.517 -16.285 -21.087  0.00  0.00    +0.013 C 
ATOM     14  C   UNL     1      35.013 -16.281 -21.365  0.00  0.00    +0.013 C 
BRANCH  10  16
ATOM     15  OXT UNL     1      34.506 -18.051 -23.370  0.00  0.00    -0.248 OA
ATOM     16  C   UNL     1      34.063 -17.105 -24.004  0.00  0.00    +0.333 C 
BRANCH  16  17
ATOM     17  O   UNL     1      34.045 -17.035 -25.358  0.00  0.00    -0.479 OA
ATOM     18  H   UNL     1      34.730 -17.434 -25.857  0.00  0.00    +0.295 HD
ENDBRANCH  16  17
ENDBRANCH  10  16
ENDBRANCH   2  11
BRANCH   3  19
ATOM     19  C   UNL     1      31.732  -9.787 -23.005  0.00  0.00    +0.198 C 
BRANCH  19  20
ATOM     20  C   UNL     1      31.670  -9.899 -21.492  0.00  0.00    -0.003 C 
ATOM     21  C   UNL     1      32.095  -8.834 -20.723  0.00  0.00    -0.003 C 
ATOM     22  C   UNL     1      31.189 -11.064 -20.926  0.00  0.00    -0.003 C 
ATOM     23  C   UNL     1      32.037  -8.936 -19.333  0.00  0.00    -0.000 C 
ATOM     24  C   UNL     1      31.132 -11.167 -19.535  0.00  0.00    -0.000 C 
ATOM     25  C   UNL     1      31.556 -10.103 -18.740  0.00  0.00    -0.000 C 
ENDBRANCH  19  20
BRANCH  19  27
ATOM     26  O   UNL     1      30.540  -7.887 -23.964  0.00  0.00    -0.249 OA
ATOM     27  C   UNL     1      31.568  -8.352 -23.488  0.00  0.00    +0.334 C 
BRANCH  27  28
ATOM     28  O   UNL     1      32.754  -7.655 -23.256  0.00  0.00    -0.424 OA
BRANCH  28  29
ATOM     29  C   UNL     1      33.051  -6.731 -24.260  0.00  0.00    +0.148 C 
ATOM     30  C   UNL     1      34.271  -6.810 -24.892  0.00  0.00    +0.038 C 
ATOM     31  C   UNL     1      32.111  -5.777 -24.580  0.00  0.00    +0.038 C 
ATOM     32  C   UNL     1      34.568  -5.887 -25.896  0.00  0.00    +0.003 C 
ATOM     33  C   UNL     1      32.406  -4.854 -25.584  0.00  0.00    +0.003 C 
ATOM     34  C   UNL     1      33.635  -4.910 -26.241  0.00  0.00    +0.000 C 
ENDBRANCH  28  29
ENDBRANCH  27  28
ENDBRANCH  19  27
ENDBRANCH   3  19
TORSDOF 8
ENDMDL
MODEL 6
REMARK VINA RESULT:      -8.8     10.345     13.856
REMARK  Name = 33672
REMARK  8 active torsions:
REMARK  status: ('A' for Active; 'I' for Inactive)
REMARK    1  A    between atoms: N_2  and  CA_11
REMARK    2  A    between atoms: C_3  and  C_19
REMARK    3  A    between atoms: CA_10  and  C_16
REMARK    4  A    between atoms: C_16  and  O_17
REMARK    5  A    between atoms: C_19  and  C_20
REMARK    6  A    between atoms: C_19  and  C_27
REMARK    7  A    between atoms: C_27  and  O_28
REMARK    8  A    between atoms: O_28  and  C_29
REMARK                            x       y       z     vdW  Elec       q    Type
REMARK                         _______ _______ _______ _____ _____    ______ ____
ROOT
ATOM      1  O   UNL     1      33.479 -12.303 -25.749  0.00  0.00    -0.274 OA
ATOM      2  N   UNL     1      33.056 -12.051 -23.484  0.00  0.00    -0.296 N 
ATOM      3  C   UNL     1      33.556 -12.727 -24.597  0.00  0.00    +0.237 C 
ATOM      4  H   UNL     1      33.162 -12.464 -22.596  0.00  0.00    +0.150 HD
ENDROOT
BRANCH   2  11
ATOM      5  S   UNL     1      31.470 -11.410 -20.934  0.00  0.00    -0.118 S 
ATOM      6  O   UNL     1      34.333  -9.119 -23.377  0.00  0.00    -0.273 OA
ATOM      7  N   UNL     1      32.344  -9.272 -22.115  0.00  0.00    -0.260 N 
ATOM      8  C   UNL     1      31.423 -10.366 -22.437  0.00  0.00    +0.151 C 
ATOM      9  C   UNL     1      31.773  -9.917 -19.861  0.00  0.00    +0.068 C 
ATOM     10  CA  UNL     1      32.683  -9.022 -20.728  0.00  0.00    +0.184 C 
ATOM     11  CA  UNL     1      32.378 -10.750 -23.575  0.00  0.00    +0.178 C 
ATOM     12  C   UNL     1      33.240  -9.561 -23.105  0.00  0.00    +0.247 C 
ATOM     13  C   UNL     1      32.483 -10.362 -18.581  0.00  0.00    +0.013 C 
ATOM     14  C   UNL     1      30.410  -9.298 -19.519  0.00  0.00    +0.013 C 
BRANCH  10  16
ATOM     15  OXT UNL     1      31.841  -6.802 -21.160  0.00  0.00    -0.248 OA
ATOM     16  C   UNL     1      32.542  -7.552 -20.497  0.00  0.00    +0.333 C 
BRANCH  16  17
ATOM     17  O   UNL     1      33.303  -7.157 -19.449  0.00  0.00    -0.479 OA
ATOM     18  H   UNL     1      34.204  -6.936 -19.581  0.00  0.00    +0.295 HD
ENDBRANCH  16  17
ENDBRANCH  10  16
ENDBRANCH   2  11
BRANCH   3  19
ATOM     19  C   UNL     1      34.202 -14.071 -24.257  0.00  0.00    +0.198 C 
BRANCH  19  20
ATOM     20  C   UNL     1      33.850 -14.454 -22.830  0.00  0.00    -0.003 C 
ATOM     21  C   UNL     1      32.559 -14.848 -22.539  0.00  0.00    -0.003 C 
ATOM     22  C   UNL     1      34.833 -14.398 -21.860  0.00  0.00    -0.003 C 
ATOM     23  C   UNL     1      32.237 -15.200 -21.229  0.00  0.00    -0.000 C 
ATOM     24  C   UNL     1      34.511 -14.750 -20.549  0.00  0.00    -0.000 C 
ATOM     25  C   UNL     1      33.213 -15.151 -20.234  0.00  0.00    -0.000 C 
ENDBRANCH  19  20
BRANCH  19  27
ATOM     26  O   UNL     1      32.787 -15.297 -25.821  0.00  0.00    -0.249 OA
ATOM     27  C   UNL     1      33.865 -15.173 -25.252  0.00  0.00    +0.334 C 
BRANCH  27  28
ATOM     28  O   UNL     1      34.989 -15.978 -25.439  0.00  0.00    -0.424 OA
BRANCH  28  29
ATOM     29  C   UNL     1      34.954 -17.151 -24.683  0.00  0.00    +0.148 C 
ATOM     30  C   UNL     1      34.308 -18.251 -25.199  0.00  0.00    +0.038 C 
ATOM     31  C   UNL     1      35.567 -17.162 -23.450  0.00  0.00    +0.038 C 
ATOM     32  C   UNL     1      34.272 -19.424 -24.444  0.00  0.00    +0.003 C 
ATOM     33  C   UNL     1      35.533 -18.334 -22.694  0.00  0.00    +0.003 C 
ATOM     34  C   UNL     1      34.885 -19.465 -23.192  0.00  0.00    +0.000 C 
ENDBRANCH  28  29
ENDBRANCH  27  28
ENDBRANCH  19  27
ENDBRANCH   3  19
TORSDOF 8
ENDMDL
MODEL 7
REMARK VINA RESULT:      -8.8      2.610      6.712
REMARK  Name = 33672
REMARK  8 active torsions:
REMARK  status: ('A' for Active; 'I' for Inactive)
REMARK    1  A    between atoms: N_2  and  CA_11
REMARK    2  A    between atoms: C_3  and  C_19
REMARK    3  A    between atoms: CA_10  and  C_16
REMARK    4  A    between atoms: C_16  and  O_17
REMARK    5  A    between atoms: C_19  and  C_20
REMARK    6  A    between atoms: C_19  and  C_27
REMARK    7  A    between atoms: C_27  and  O_28
REMARK    8  A    between atoms: O_28  and  C_29
REMARK                            x       y       z     vdW  Elec       q    Type
REMARK                         _______ _______ _______ _____ _____    ______ ____
ROOT
ATOM      1  O   UNL     1      33.382 -24.206 -17.888  0.00  0.00    -0.274 OA
ATOM      2  N   UNL     1      34.319 -22.086 -17.820  0.00  0.00    -0.296 N 
ATOM      3  C   UNL     1      33.491 -23.105 -17.348  0.00  0.00    +0.237 C 
ATOM      4  H   UNL     1      34.345 -21.235 -17.325  0.00  0.00    +0.150 HD
ENDROOT
BRANCH   2  11
ATOM      5  S   UNL     1      33.161 -20.522 -20.196  0.00  0.00    -0.118 S 
ATOM      6  O   UNL     1      37.185 -20.800 -18.423  0.00  0.00    -0.273 OA
ATOM      7  N   UNL     1      35.748 -20.691 -20.292  0.00  0.00    -0.260 N 
ATOM      8  C   UNL     1      34.618 -21.623 -20.330  0.00  0.00    +0.151 C 
ATOM      9  C   UNL     1      34.062 -19.159 -21.090  0.00  0.00    +0.068 C 
ATOM     10  CA  UNL     1      35.516 -19.291 -20.588  0.00  0.00    +0.184 C 
ATOM     11  CA  UNL     1      35.153 -22.223 -19.023  0.00  0.00    +0.178 C 
ATOM     12  C   UNL     1      36.276 -21.173 -19.129  0.00  0.00    +0.247 C 
ATOM     13  C   UNL     1      33.453 -17.814 -20.688  0.00  0.00    +0.013 C 
ATOM     14  C   UNL     1      33.887 -19.386 -22.598  0.00  0.00    +0.013 C 
BRANCH  10  16
ATOM     15  OXT UNL     1      36.361 -18.250 -22.595  0.00  0.00    -0.248 OA
ATOM     16  C   UNL     1      36.570 -18.864 -21.559  0.00  0.00    +0.333 C 
BRANCH  16  17
ATOM     17  O   UNL     1      37.796 -19.255 -21.137  0.00  0.00    -0.479 OA
ATOM     18  H   UNL     1      38.259 -19.925 -21.600  0.00  0.00    +0.295 HD
ENDBRANCH  16  17
ENDBRANCH  10  16
ENDBRANCH   2  11
BRANCH   3  19
ATOM     19  C   UNL     1      32.705 -22.723 -16.094  0.00  0.00    +0.198 C 
BRANCH  19  20
ATOM     20  C   UNL     1      31.296 -23.283 -16.189  0.00  0.00    -0.003 C 
ATOM     21  C   UNL     1      30.297 -22.498 -16.727  0.00  0.00    -0.003 C 
ATOM     22  C   UNL     1      31.054 -24.565 -15.734  0.00  0.00    -0.003 C 
ATOM     23  C   UNL     1      29.003 -23.013 -16.814  0.00  0.00    -0.000 C 
ATOM     24  C   UNL     1      29.760 -25.081 -15.820  0.00  0.00    -0.000 C 
ATOM     25  C   UNL     1      28.736 -24.304 -16.361  0.00  0.00    -0.000 C 
ENDBRANCH  19  20
BRANCH  19  27
ATOM     26  O   UNL     1      32.844 -23.627 -13.833  0.00  0.00    -0.249 OA
ATOM     27  C   UNL     1      33.401 -23.121 -14.800  0.00  0.00    +0.334 C 
BRANCH  27  28
ATOM     28  O   UNL     1      34.766 -22.858 -14.916  0.00  0.00    -0.424 OA
BRANCH  28  29
ATOM     29  C   UNL     1      35.564 -23.861 -14.363  0.00  0.00    +0.148 C 
ATOM     30  C   UNL     1      36.077 -23.677 -13.098  0.00  0.00    +0.038 C 
ATOM     31  C   UNL     1      35.809 -24.996 -15.104  0.00  0.00    +0.038 C 
ATOM     32  C   UNL     1      36.875 -24.679 -12.545  0.00  0.00    +0.003 C 
ATOM     33  C   UNL     1      36.607 -25.999 -14.551  0.00  0.00    +0.003 C 
ATOM     34  C   UNL     1      37.139 -25.840 -13.272  0.00  0.00    +0.000 C 
ENDBRANCH  28  29
ENDBRANCH  27  28
ENDBRANCH  19  27
ENDBRANCH   3  19
TORSDOF 8
ENDMDL
MODEL 8
REMARK VINA RESULT:      -8.6     10.442     14.373
REMARK  Name = 33672
REMARK  8 active torsions:
REMARK  status: ('A' for Active; 'I' for Inactive)
REMARK    1  A    between atoms: N_2  and  CA_11
REMARK    2  A    between atoms: C_3  and  C_19
REMARK    3  A    between atoms: CA_10  and  C_16
REMARK    4  A    between atoms: C_16  and  O_17
REMARK    5  A    between atoms: C_19  and  C_20
REMARK    6  A    between atoms: C_19  and  C_27
REMARK    7  A    between atoms: C_27  and  O_28
REMARK    8  A    between atoms: O_28  and  C_29
REMARK                            x       y       z     vdW  Elec       q    Type
REMARK                         _______ _______ _______ _____ _____    ______ ____
ROOT
ATOM      1  O   UNL     1      31.191 -11.826 -22.111  0.00  0.00    -0.274 OA
ATOM      2  N   UNL     1      33.341 -12.688 -21.992  0.00  0.00    -0.296 N 
ATOM      3  C   UNL     1      32.406 -11.682 -22.243  0.00  0.00    +0.237 C 
ATOM      4  H   UNL     1      34.296 -12.486 -22.124  0.00  0.00    +0.150 HD
ENDROOT
BRANCH   2  11
ATOM      5  S   UNL     1      33.393 -14.716 -24.297  0.00  0.00    -0.118 S 
ATOM      6  O   UNL     1      35.022 -14.740 -20.204  0.00  0.00    -0.273 OA
ATOM      7  N   UNL     1      33.942 -15.809 -22.010  0.00  0.00    -0.260 N 
ATOM      8  C   UNL     1      32.798 -15.121 -22.614  0.00  0.00    +0.151 C 
ATOM      9  C   UNL     1      34.464 -16.240 -24.326  0.00  0.00    +0.068 C 
ATOM     10  CA  UNL     1      34.968 -16.359 -22.872  0.00  0.00    +0.184 C 
ATOM     11  CA  UNL     1      32.965 -14.036 -21.542  0.00  0.00    +0.178 C 
ATOM     12  C   UNL     1      34.151 -14.878 -21.032  0.00  0.00    +0.247 C 
ATOM     13  C   UNL     1      35.621 -16.015 -25.302  0.00  0.00    +0.013 C 
ATOM     14  C   UNL     1      33.598 -17.416 -24.799  0.00  0.00    +0.013 C 
BRANCH  10  16
ATOM     15  OXT UNL     1      34.476 -18.425 -21.725  0.00  0.00    -0.248 OA
ATOM     16  C   UNL     1      35.239 -17.753 -22.402  0.00  0.00    +0.333 C 
BRANCH  16  17
ATOM     17  O   UNL     1      36.455 -18.173 -22.827  0.00  0.00    -0.479 OA
ATOM     18  H   UNL     1      37.134 -17.549 -22.995  0.00  0.00    +0.295 HD
ENDBRANCH  16  17
ENDBRANCH  10  16
ENDBRANCH   2  11
BRANCH   3  19
ATOM     19  C   UNL     1      33.032 -10.372 -22.720  0.00  0.00    +0.198 C 
BRANCH  19  20
ATOM     20  C   UNL     1      33.753 -10.605 -24.037  0.00  0.00    -0.003 C 
ATOM     21  C   UNL     1      33.250 -11.540 -24.920  0.00  0.00    -0.003 C 
ATOM     22  C   UNL     1      34.892  -9.875 -24.315  0.00  0.00    -0.003 C 
ATOM     23  C   UNL     1      33.912 -11.753 -26.129  0.00  0.00    -0.000 C 
ATOM     24  C   UNL     1      35.555 -10.088 -25.524  0.00  0.00    -0.000 C 
ATOM     25  C   UNL     1      35.064 -11.028 -26.431  0.00  0.00    -0.000 C 
ENDBRANCH  19  20
BRANCH  19  27
ATOM     26  O   UNL     1      30.907  -9.304 -23.260  0.00  0.00    -0.249 OA
ATOM     27  C   UNL     1      32.039  -9.221 -22.800  0.00  0.00    +0.334 C 
BRANCH  27  28
ATOM     28  O   UNL     1      32.610  -8.084 -22.226  0.00  0.00    -0.424 OA
BRANCH  28  29
ATOM     29  C   UNL     1      32.329  -6.914 -22.933  0.00  0.00    +0.148 C 
ATOM     30  C   UNL     1      32.920  -6.725 -24.161  0.00  0.00    +0.038 C 
ATOM     31  C   UNL     1      31.469  -5.994 -22.374  0.00  0.00    +0.038 C 
ATOM     32  C   UNL     1      32.639  -5.555 -24.869  0.00  0.00    +0.003 C 
ATOM     33  C   UNL     1      31.187  -4.824 -23.080  0.00  0.00    +0.003 C 
ATOM     34  C   UNL     1      31.772  -4.605 -24.328  0.00  0.00    +0.000 C 
ENDBRANCH  28  29
ENDBRANCH  27  28
ENDBRANCH  19  27
ENDBRANCH   3  19
TORSDOF 8
ENDMDL
MODEL 9
REMARK VINA RESULT:      -8.1      5.989      9.850
REMARK  Name = 33672
REMARK  8 active torsions:
REMARK  status: ('A' for Active; 'I' for Inactive)
REMARK    1  A    between atoms: N_2  and  CA_11
REMARK    2  A    between atoms: C_3  and  C_19
REMARK    3  A    between atoms: CA_10  and  C_16
REMARK    4  A    between atoms: C_16  and  O_17
REMARK    5  A    between atoms: C_19  and  C_20
REMARK    6  A    between atoms: C_19  and  C_27
REMARK    7  A    between atoms: C_27  and  O_28
REMARK    8  A    between atoms: O_28  and  C_29
REMARK                            x       y       z     vdW  Elec       q    Type
REMARK                         _______ _______ _______ _____ _____    ______ ____
ROOT
ATOM      1  O   UNL     1      34.768 -17.370 -24.171  0.00  0.00    -0.274 OA
ATOM      2  N   UNL     1      34.077 -17.787 -21.998  0.00  0.00    -0.296 N 
ATOM      3  C   UNL     1      34.522 -16.967 -23.035  0.00  0.00    +0.237 C 
ATOM      4  H   UNL     1      33.903 -17.379 -21.118  0.00  0.00    +0.150 HD
ENDROOT
BRANCH   2  11
ATOM      5  S   UNL     1      36.515 -19.420 -21.096  0.00  0.00    -0.118 S 
ATOM      6  O   UNL     1      32.196 -19.723 -20.280  0.00  0.00    -0.273 OA
ATOM      7  N   UNL     1      34.287 -20.706 -20.760  0.00  0.00    -0.260 N 
ATOM      8  C   UNL     1      35.044 -20.165 -21.892  0.00  0.00    +0.151 C 
ATOM      9  C   UNL     1      36.476 -20.698 -19.741  0.00  0.00    +0.068 C 
ATOM     10  CA  UNL     1      34.968 -20.928 -19.499  0.00  0.00    +0.184 C 
ATOM     11  CA  UNL     1      33.856 -19.231 -22.157  0.00  0.00    +0.178 C 
ATOM     12  C   UNL     1      33.198 -19.902 -20.935  0.00  0.00    +0.247 C 
ATOM     13  C   UNL     1      37.159 -20.125 -18.498  0.00  0.00    +0.013 C 
ATOM     14  C   UNL     1      37.236 -21.936 -20.237  0.00  0.00    +0.013 C 
BRANCH  10  16
ATOM     15  OXT UNL     1      33.991 -23.126 -19.696  0.00  0.00    -0.248 OA
ATOM     16  C   UNL     1      34.597 -22.299 -19.032  0.00  0.00    +0.333 C 
BRANCH  16  17
ATOM     17  O   UNL     1      35.022 -22.502 -17.762  0.00  0.00    -0.479 OA
ATOM     18  H   UNL     1      35.051 -21.787 -17.157  0.00  0.00    +0.295 HD
ENDBRANCH  16  17
ENDBRANCH  10  16
ENDBRANCH   2  11
BRANCH   3  19
ATOM     19  C   UNL     1      34.697 -15.504 -22.626  0.00  0.00    +0.198 C 
BRANCH  19  20
ATOM     20  C   UNL     1      34.196 -14.603 -23.741  0.00  0.00    -0.003 C 
ATOM     21  C   UNL     1      34.463 -13.250 -23.681  0.00  0.00    -0.003 C 
ATOM     22  C   UNL     1      33.486 -15.163 -24.787  0.00  0.00    -0.003 C 
ATOM     23  C   UNL     1      34.002 -12.422 -24.705  0.00  0.00    -0.000 C 
ATOM     24  C   UNL     1      33.025 -14.335 -25.811  0.00  0.00    -0.000 C 
ATOM     25  C   UNL     1      33.284 -12.965 -25.770  0.00  0.00    -0.000 C 
ENDBRANCH  19  20
BRANCH  19  27
ATOM     26  O   UNL     1      34.679 -15.024 -20.235  0.00  0.00    -0.249 OA
ATOM     27  C   UNL     1      34.062 -15.172 -21.283  0.00  0.00    +0.334 C 
BRANCH  27  28
ATOM     28  O   UNL     1      32.686 -15.020 -21.453  0.00  0.00    -0.424 OA
BRANCH  28  29
ATOM     29  C   UNL     1      32.244 -13.719 -21.206  0.00  0.00    +0.148 C 
ATOM     30  C   UNL     1      32.318 -13.227 -19.923  0.00  0.00    +0.038 C 
ATOM     31  C   UNL     1      31.752 -12.977 -22.257  0.00  0.00    +0.038 C 
ATOM     32  C   UNL     1      31.877 -11.927 -19.675  0.00  0.00    +0.003 C 
ATOM     33  C   UNL     1      31.310 -11.676 -22.011  0.00  0.00    +0.003 C 
ATOM     34  C   UNL     1      31.373 -11.152 -20.720  0.00  0.00    +0.000 C 
ENDBRANCH  28  29
ENDBRANCH  27  28
ENDBRANCH  19  27
ENDBRANCH   3  19
TORSDOF 8
ENDMDL
