MODEL 1
REMARK VINA RESULT:      -5.1      0.000      0.000
REMARK  Name = 205225
REMARK  2 active torsions:
REMARK  status: ('A' for Active; 'I' for Inactive)
REMARK    1  A    between atoms: C_2  and  C_7
REMARK    2  A    between atoms: C_7  and  S_8
REMARK                            x       y       z     vdW  Elec       q    Type
REMARK                         _______ _______ _______ _____ _____    ______ ____
ROOT
ATOM      1  N   UNL     1      32.950 -21.712 -19.499  0.00  0.00    -0.243 NA
ATOM      2  C   UNL     1      34.244 -20.000 -20.613  0.00  0.00    +0.008 C 
ATOM      3  C   UNL     1      35.421 -20.649 -20.259  0.00  0.00    -0.000 C 
ATOM      4  C   UNL     1      33.045 -20.568 -20.213  0.00  0.00    +0.095 C 
ATOM      5  C   UNL     1      35.365 -21.829 -19.525  0.00  0.00    +0.020 C 
ATOM      6  C   UNL     1      34.115 -22.315 -19.173  0.00  0.00    +0.099 C 
ENDROOT
BRANCH   2   7
ATOM      7  C   UNL     1      34.272 -18.736 -21.396  0.00  0.00    +0.081 C 
BRANCH   7   8
ATOM      8  S   UNL     1      34.844 -18.983 -23.106  0.00  0.00    -0.163 S 
ATOM      9  H   UNL     1      35.316 -20.251 -23.249  0.00  0.00    +0.103 HD
ENDBRANCH   7   8
ENDBRANCH   2   7
TORSDOF 2
ENDMDL
MODEL 2
REMARK VINA RESULT:      -4.9      1.148      1.924
REMARK  Name = 205225
REMARK  2 active torsions:
REMARK  status: ('A' for Active; 'I' for Inactive)
REMARK    1  A    between atoms: C_2  and  C_7
REMARK    2  A    between atoms: C_7  and  S_8
REMARK                            x       y       z     vdW  Elec       q    Type
REMARK                         _______ _______ _______ _____ _____    ______ ____
ROOT
ATOM      1  N   UNL     1      34.965 -21.595 -19.528  0.00  0.00    -0.243 NA
ATOM      2  C   UNL     1      35.109 -19.624 -20.921  0.00  0.00    +0.008 C 
ATOM      3  C   UNL     1      33.723 -19.520 -20.931  0.00  0.00    -0.000 C 
ATOM      4  C   UNL     1      35.676 -20.670 -20.211  0.00  0.00    +0.095 C 
ATOM      5  C   UNL     1      32.956 -20.452 -20.240  0.00  0.00    +0.020 C 
ATOM      6  C   UNL     1      33.619 -21.462 -19.560  0.00  0.00    +0.099 C 
ENDROOT
BRANCH   2   7
ATOM      7  C   UNL     1      35.956 -18.644 -21.651  0.00  0.00    +0.081 C 
BRANCH   7   8
ATOM      8  S   UNL     1      35.366 -18.332 -23.345  0.00  0.00    -0.163 S 
ATOM      9  H   UNL     1      34.135 -18.887 -23.506  0.00  0.00    +0.103 HD
ENDBRANCH   7   8
ENDBRANCH   2   7
TORSDOF 2
ENDMDL
MODEL 3
REMARK VINA RESULT:      -4.8      2.805      3.865
REMARK  Name = 205225
REMARK  2 active torsions:
REMARK  status: ('A' for Active; 'I' for Inactive)
REMARK    1  A    between atoms: C_2  and  C_7
REMARK    2  A    between atoms: C_7  and  S_8
REMARK                            x       y       z     vdW  Elec       q    Type
REMARK                         _______ _______ _______ _____ _____    ______ ____
ROOT
ATOM      1  N   UNL     1      35.261 -19.593 -21.206  0.00  0.00    -0.243 NA
ATOM      2  C   UNL     1      34.533 -21.266 -19.619  0.00  0.00    +0.008 C 
ATOM      3  C   UNL     1      33.209 -20.902 -19.832  0.00  0.00    -0.000 C 
ATOM      4  C   UNL     1      35.514 -20.587 -20.325  0.00  0.00    +0.095 C 
ATOM      5  C   UNL     1      32.909 -19.884 -20.730  0.00  0.00    +0.020 C 
ATOM      6  C   UNL     1      33.962 -19.266 -21.387  0.00  0.00    +0.099 C 
ENDROOT
BRANCH   2   7
ATOM      7  C   UNL     1      34.886 -22.349 -18.664  0.00  0.00    +0.081 C 
BRANCH   7   8
ATOM      8  S   UNL     1      33.432 -23.032 -17.810  0.00  0.00    -0.163 S 
ATOM      9  H   UNL     1      32.326 -22.852 -18.581  0.00  0.00    +0.103 HD
ENDBRANCH   7   8
ENDBRANCH   2   7
TORSDOF 2
ENDMDL
MODEL 4
REMARK VINA RESULT:      -4.7      3.221      4.776
REMARK  Name = 205225
REMARK  2 active torsions:
REMARK  status: ('A' for Active; 'I' for Inactive)
REMARK    1  A    between atoms: C_2  and  C_7
REMARK    2  A    between atoms: C_7  and  S_8
REMARK                            x       y       z     vdW  Elec       q    Type
REMARK                         _______ _______ _______ _____ _____    ______ ____
ROOT
ATOM      1  N   UNL     1      34.940 -16.385 -22.658  0.00  0.00    -0.243 NA
ATOM      2  C   UNL     1      34.851 -18.746 -22.143  0.00  0.00    +0.008 C 
ATOM      3  C   UNL     1      34.774 -19.047 -23.497  0.00  0.00    -0.000 C 
ATOM      4  C   UNL     1      34.932 -17.411 -21.778  0.00  0.00    +0.095 C 
ATOM      5  C   UNL     1      34.778 -18.019 -24.434  0.00  0.00    +0.020 C 
ATOM      6  C   UNL     1      34.863 -16.716 -23.967  0.00  0.00    +0.099 C 
ENDROOT
BRANCH   2   7
ATOM      7  C   UNL     1      34.846 -19.823 -21.117  0.00  0.00    +0.081 C 
BRANCH   7   8
ATOM      8  S   UNL     1      33.172 -20.213 -20.519  0.00  0.00    -0.163 S 
ATOM      9  H   UNL     1      32.748 -19.230 -19.680  0.00  0.00    +0.103 HD
ENDBRANCH   7   8
ENDBRANCH   2   7
TORSDOF 2
ENDMDL
MODEL 5
REMARK VINA RESULT:      -4.6      5.567      7.174
REMARK  Name = 205225
REMARK  2 active torsions:
REMARK  status: ('A' for Active; 'I' for Inactive)
REMARK    1  A    between atoms: C_2  and  C_7
REMARK    2  A    between atoms: C_7  and  S_8
REMARK                            x       y       z     vdW  Elec       q    Type
REMARK                         _______ _______ _______ _____ _____    ______ ____
ROOT
ATOM      1  N   UNL     1      33.652 -15.973 -26.179  0.00  0.00    -0.243 NA
ATOM      2  C   UNL     1      34.366 -15.950 -23.869  0.00  0.00    +0.008 C 
ATOM      3  C   UNL     1      33.713 -14.740 -23.671  0.00  0.00    -0.000 C 
ATOM      4  C   UNL     1      34.306 -16.521 -25.131  0.00  0.00    +0.095 C 
ATOM      5  C   UNL     1      33.029 -14.144 -24.725  0.00  0.00    +0.020 C 
ATOM      6  C   UNL     1      33.028 -14.796 -25.949  0.00  0.00    +0.099 C 
ENDROOT
BRANCH   2   7
ATOM      7  C   UNL     1      35.107 -16.611 -22.762  0.00  0.00    +0.081 C 
BRANCH   7   8
ATOM      8  S   UNL     1      34.581 -16.028 -21.120  0.00  0.00    -0.163 S 
ATOM      9  H   UNL     1      33.996 -14.805 -21.238  0.00  0.00    +0.103 HD
ENDBRANCH   7   8
ENDBRANCH   2   7
TORSDOF 2
ENDMDL
MODEL 6
REMARK VINA RESULT:      -4.6      3.988      5.653
REMARK  Name = 205225
REMARK  2 active torsions:
REMARK  status: ('A' for Active; 'I' for Inactive)
REMARK    1  A    between atoms: C_2  and  C_7
REMARK    2  A    between atoms: C_7  and  S_8
REMARK                            x       y       z     vdW  Elec       q    Type
REMARK                         _______ _______ _______ _____ _____    ______ ____
ROOT
ATOM      1  N   UNL     1      34.862 -15.269 -23.377  0.00  0.00    -0.243 NA
ATOM      2  C   UNL     1      35.089 -16.934 -21.638  0.00  0.00    +0.008 C 
ATOM      3  C   UNL     1      34.616 -16.026 -20.697  0.00  0.00    -0.000 C 
ATOM      4  C   UNL     1      35.193 -16.509 -22.954  0.00  0.00    +0.095 C 
ATOM      5  C   UNL     1      34.267 -14.740 -21.094  0.00  0.00    +0.020 C 
ATOM      6  C   UNL     1      34.406 -14.414 -22.434  0.00  0.00    +0.099 C 
ENDROOT
BRANCH   2   7
ATOM      7  C   UNL     1      35.473 -18.315 -21.244  0.00  0.00    +0.081 C 
BRANCH   7   8
ATOM      8  S   UNL     1      34.044 -19.437 -21.141  0.00  0.00    -0.163 S 
ATOM      9  H   UNL     1      32.928 -18.793 -21.575  0.00  0.00    +0.103 HD
ENDBRANCH   7   8
ENDBRANCH   2   7
TORSDOF 2
ENDMDL
MODEL 7
REMARK VINA RESULT:      -4.6      5.494      6.171
REMARK  Name = 205225
REMARK  2 active torsions:
REMARK  status: ('A' for Active; 'I' for Inactive)
REMARK    1  A    between atoms: C_2  and  C_7
REMARK    2  A    between atoms: C_7  and  S_8
REMARK                            x       y       z     vdW  Elec       q    Type
REMARK                         _______ _______ _______ _____ _____    ______ ____
ROOT
ATOM      1  N   UNL     1      33.912 -16.919 -25.654  0.00  0.00    -0.243 NA
ATOM      2  C   UNL     1      34.447 -15.673 -23.652  0.00  0.00    +0.008 C 
ATOM      3  C   UNL     1      35.078 -16.789 -23.116  0.00  0.00    -0.000 C 
ATOM      4  C   UNL     1      33.884 -15.789 -24.914  0.00  0.00    +0.095 C 
ATOM      5  C   UNL     1      35.127 -17.972 -23.847  0.00  0.00    +0.020 C 
ATOM      6  C   UNL     1      34.534 -17.985 -25.100  0.00  0.00    +0.099 C 
ENDROOT
BRANCH   2   7
ATOM      7  C   UNL     1      34.376 -14.395 -22.895  0.00  0.00    +0.081 C 
BRANCH   7   8
ATOM      8  S   UNL     1      33.616 -13.051 -23.857  0.00  0.00    -0.163 S 
ATOM      9  H   UNL     1      34.588 -12.332 -24.481  0.00  0.00    +0.103 HD
ENDBRANCH   7   8
ENDBRANCH   2   7
TORSDOF 2
ENDMDL
MODEL 8
REMARK VINA RESULT:      -4.6      4.811      5.536
REMARK  Name = 205225
REMARK  2 active torsions:
REMARK  status: ('A' for Active; 'I' for Inactive)
REMARK    1  A    between atoms: C_2  and  C_7
REMARK    2  A    between atoms: C_7  and  S_8
REMARK                            x       y       z     vdW  Elec       q    Type
REMARK                         _______ _______ _______ _____ _____    ______ ____
ROOT
ATOM      1  N   UNL     1      34.143 -17.500 -25.544  0.00  0.00    -0.243 NA
ATOM      2  C   UNL     1      34.553 -16.257 -23.511  0.00  0.00    +0.008 C 
ATOM      3  C   UNL     1      34.967 -17.421 -22.874  0.00  0.00    -0.000 C 
ATOM      4  C   UNL     1      34.154 -16.349 -24.835  0.00  0.00    +0.095 C 
ATOM      5  C   UNL     1      34.970 -18.625 -23.570  0.00  0.00    +0.020 C 
ATOM      6  C   UNL     1      34.553 -18.611 -24.892  0.00  0.00    +0.099 C 
ENDROOT
BRANCH   2   7
ATOM      7  C   UNL     1      34.536 -14.955 -22.793  0.00  0.00    +0.081 C 
BRANCH   7   8
ATOM      8  S   UNL     1      34.385 -15.151 -20.990  0.00  0.00    -0.163 S 
ATOM      9  H   UNL     1      33.288 -14.477 -20.550  0.00  0.00    +0.103 HD
ENDBRANCH   7   8
ENDBRANCH   2   7
TORSDOF 2
ENDMDL
MODEL 9
REMARK VINA RESULT:      -4.6      1.714      2.387
REMARK  Name = 205225
REMARK  2 active torsions:
REMARK  status: ('A' for Active; 'I' for Inactive)
REMARK    1  A    between atoms: C_2  and  C_7
REMARK    2  A    between atoms: C_7  and  S_8
REMARK                            x       y       z     vdW  Elec       q    Type
REMARK                         _______ _______ _______ _____ _____    ______ ____
ROOT
ATOM      1  N   UNL     1      35.487 -22.575 -17.711  0.00  0.00    -0.243 NA
ATOM      2  C   UNL     1      35.017 -21.190 -19.637  0.00  0.00    +0.008 C 
ATOM      3  C   UNL     1      33.671 -21.524 -19.558  0.00  0.00    -0.000 C 
ATOM      4  C   UNL     1      35.878 -21.737 -18.697  0.00  0.00    +0.095 C 
ATOM      5  C   UNL     1      33.230 -22.383 -18.557  0.00  0.00    +0.020 C 
ATOM      6  C   UNL     1      34.170 -22.877 -17.665  0.00  0.00    +0.099 C 
ENDROOT
BRANCH   2   7
ATOM      7  C   UNL     1      35.519 -20.276 -20.697  0.00  0.00    +0.081 C 
BRANCH   7   8
ATOM      8  S   UNL     1      34.211 -19.213 -21.383  0.00  0.00    -0.163 S 
ATOM      9  H   UNL     1      34.713 -18.481 -22.414  0.00  0.00    +0.103 HD
ENDBRANCH   7   8
ENDBRANCH   2   7
TORSDOF 2
ENDMDL
