MODEL 1
REMARK VINA RESULT:      -6.2      0.000      0.000
REMARK  Name = 5231552
REMARK  5 active torsions:
REMARK  status: ('A' for Active; 'I' for Inactive)
REMARK    1  A    between atoms: CA_1  and  C_4
REMARK    2  A    between atoms: CA_1  and  N_5
REMARK    3  A    between atoms: CA_1  and  CB_11
REMARK    4  A    between atoms: N_5  and  C_9
REMARK    5  A    between atoms: CB_11  and  CG_12
REMARK                            x       y       z     vdW  Elec       q    Type
REMARK                         _______ _______ _______ _____ _____    ______ ____
ROOT
ATOM      1  CA  LEU A   1      34.859 -17.340 -23.484  0.00  0.00    +0.160 C 
ENDROOT
BRANCH   1   4
ATOM      2  O   LEU A   1      34.070 -18.903 -25.066  0.00  0.00    -0.244 OA
ATOM      3  OXT LEU A   1      34.779 -16.861 -25.809  0.00  0.00    -0.244 OA
ATOM      4  C   LEU A   1      34.544 -17.739 -24.932  0.00  0.00    +0.381 C 
ENDBRANCH   1   4
BRANCH   1   5
ATOM      5  N   LEU A   1      35.462 -15.969 -23.415  0.00  0.00    -0.362 NA
ATOM      6  H1  LEU A   1      36.356 -15.755 -23.766  0.00  0.00    +0.127 HD
ATOM      7  H2  LEU A   1      35.795 -16.189 -22.515  0.00  0.00    +0.127 HD
BRANCH   5   9
ATOM      8  O   UNK A   0      34.164 -14.084 -23.486  0.00  0.00    -0.277 OA
ATOM      9  C   UNK A   0      34.593 -14.984 -22.778  0.00  0.00    +0.207 C 
ATOM     10  C   UNK A   0      34.345 -15.092 -21.304  0.00  0.00    +0.093 C 
ENDBRANCH   5   9
ENDBRANCH   1   5
BRANCH   1  11
ATOM     11  CB  LEU A   1      35.830 -18.300 -22.783  0.00  0.00    +0.030 C 
BRANCH  11  12
ATOM     12  CG  LEU A   1      35.447 -18.653 -21.330  0.00  0.00    +0.002 C 
ATOM     13  CD1 LEU A   1      34.100 -19.381 -21.314  0.00  0.00    +0.000 C 
ATOM     14  CD2 LEU A   1      36.507 -19.512 -20.639  0.00  0.00    +0.000 C 
ENDBRANCH  11  12
ENDBRANCH   1  11
TORSDOF 5
ENDMDL
MODEL 2
REMARK VINA RESULT:      -6.2      2.245      4.742
REMARK  Name = 5231552
REMARK  5 active torsions:
REMARK  status: ('A' for Active; 'I' for Inactive)
REMARK    1  A    between atoms: CA_1  and  C_4
REMARK    2  A    between atoms: CA_1  and  N_5
REMARK    3  A    between atoms: CA_1  and  CB_11
REMARK    4  A    between atoms: N_5  and  C_9
REMARK    5  A    between atoms: CB_11  and  CG_12
REMARK                            x       y       z     vdW  Elec       q    Type
REMARK                         _______ _______ _______ _____ _____    ______ ____
ROOT
ATOM      1  CA  LEU A   1      34.525 -16.066 -22.474  0.00  0.00    +0.160 C 
ENDROOT
BRANCH   1   4
ATOM      2  O   LEU A   1      35.315 -17.623 -20.887  0.00  0.00    -0.244 OA
ATOM      3  OXT LEU A   1      34.874 -15.489 -20.197  0.00  0.00    -0.244 OA
ATOM      4  C   LEU A   1      34.940 -16.425 -21.041  0.00  0.00    +0.381 C 
ENDBRANCH   1   4
BRANCH   1   5
ATOM      5  N   LEU A   1      35.562 -16.498 -23.467  0.00  0.00    -0.362 NA
ATOM      6  H1  LEU A   1      36.514 -16.259 -23.391  0.00  0.00    +0.127 HD
ATOM      7  H2  LEU A   1      35.339 -15.706 -24.007  0.00  0.00    +0.127 HD
BRANCH   5   9
ATOM      8  O   UNK A   0      34.882 -16.755 -25.638  0.00  0.00    -0.277 OA
ATOM      9  C   UNK A   0      35.023 -17.307 -24.556  0.00  0.00    +0.207 C 
ATOM     10  C   UNK A   0      34.614 -18.719 -24.266  0.00  0.00    +0.093 C 
ENDBRANCH   5   9
ENDBRANCH   1   5
BRANCH   1  11
ATOM     11  CB  LEU A   1      34.292 -14.564 -22.685  0.00  0.00    +0.030 C 
BRANCH  11  12
ATOM     12  CG  LEU A   1      32.930 -14.207 -23.314  0.00  0.00    +0.002 C 
ATOM     13  CD1 LEU A   1      32.309 -13.022 -22.566  0.00  0.00    +0.000 C 
ATOM     14  CD2 LEU A   1      33.042 -13.876 -24.803  0.00  0.00    +0.000 C 
ENDBRANCH  11  12
ENDBRANCH   1  11
TORSDOF 5
ENDMDL
MODEL 3
REMARK VINA RESULT:      -6.0     10.730     12.535
REMARK  Name = 5231552
REMARK  5 active torsions:
REMARK  status: ('A' for Active; 'I' for Inactive)
REMARK    1  A    between atoms: CA_1  and  C_4
REMARK    2  A    between atoms: CA_1  and  N_5
REMARK    3  A    between atoms: CA_1  and  CB_11
REMARK    4  A    between atoms: N_5  and  C_9
REMARK    5  A    between atoms: CB_11  and  CG_12
REMARK                            x       y       z     vdW  Elec       q    Type
REMARK                         _______ _______ _______ _____ _____    ______ ____
ROOT
ATOM      1  CA  LEU A   1      36.637 -25.488 -14.129  0.00  0.00    +0.160 C 
ENDROOT
BRANCH   1   4
ATOM      2  O   LEU A   1      38.312 -27.054 -14.689  0.00  0.00    -0.244 OA
ATOM      3  OXT LEU A   1      36.425 -26.965 -15.978  0.00  0.00    -0.244 OA
ATOM      4  C   LEU A   1      37.177 -26.610 -15.027  0.00  0.00    +0.381 C 
ENDBRANCH   1   4
BRANCH   1   5
ATOM      5  N   LEU A   1      36.436 -25.965 -12.722  0.00  0.00    -0.362 NA
ATOM      6  H1  LEU A   1      36.387 -26.917 -12.477  0.00  0.00    +0.127 HD
ATOM      7  H2  LEU A   1      35.465 -25.883 -12.860  0.00  0.00    +0.127 HD
BRANCH   5   9
ATOM      8  O   UNK A   0      35.405 -24.954 -10.945  0.00  0.00    -0.277 OA
ATOM      9  C   UNK A   0      36.321 -24.880 -11.752  0.00  0.00    +0.207 C 
ATOM     10  C   UNK A   0      37.272 -23.726 -11.850  0.00  0.00    +0.093 C 
ENDBRANCH   5   9
ENDBRANCH   1   5
BRANCH   1  11
ATOM     11  CB  LEU A   1      35.298 -24.912 -14.609  0.00  0.00    +0.030 C 
BRANCH  11  12
ATOM     12  CG  LEU A   1      35.369 -23.455 -15.112  0.00  0.00    +0.002 C 
ATOM     13  CD1 LEU A   1      36.801 -23.127 -15.546  0.00  0.00    +0.000 C 
ATOM     14  CD2 LEU A   1      34.406 -23.188 -16.269  0.00  0.00    +0.000 C 
ENDBRANCH  11  12
ENDBRANCH   1  11
TORSDOF 5
ENDMDL
MODEL 4
REMARK VINA RESULT:      -6.0      1.391      1.814
REMARK  Name = 5231552
REMARK  5 active torsions:
REMARK  status: ('A' for Active; 'I' for Inactive)
REMARK    1  A    between atoms: CA_1  and  C_4
REMARK    2  A    between atoms: CA_1  and  N_5
REMARK    3  A    between atoms: CA_1  and  CB_11
REMARK    4  A    between atoms: N_5  and  C_9
REMARK    5  A    between atoms: CB_11  and  CG_12
REMARK                            x       y       z     vdW  Elec       q    Type
REMARK                         _______ _______ _______ _____ _____    ______ ____
ROOT
ATOM      1  CA  LEU A   1      34.607 -17.091 -23.367  0.00  0.00    +0.160 C 
ENDROOT
BRANCH   1   4
ATOM      2  O   LEU A   1      34.637 -17.602 -25.671  0.00  0.00    -0.244 OA
ATOM      3  OXT LEU A   1      33.662 -15.647 -24.998  0.00  0.00    -0.244 OA
ATOM      4  C   LEU A   1      34.271 -16.739 -24.822  0.00  0.00    +0.381 C 
ENDBRANCH   1   4
BRANCH   1   5
ATOM      5  N   LEU A   1      35.141 -15.901 -22.627  0.00  0.00    -0.362 NA
ATOM      6  H1  LEU A   1      35.916 -15.378 -22.934  0.00  0.00    +0.127 HD
ATOM      7  H2  LEU A   1      35.686 -16.514 -22.084  0.00  0.00    +0.127 HD
BRANCH   5   9
ATOM      8  O   UNK A   0      34.992 -15.726 -20.349  0.00  0.00    -0.277 OA
ATOM      9  C   UNK A   0      34.397 -15.593 -21.409  0.00  0.00    +0.207 C 
ATOM     10  C   UNK A   0      32.953 -15.210 -21.527  0.00  0.00    +0.093 C 
ENDBRANCH   5   9
ENDBRANCH   1   5
BRANCH   1  11
ATOM     11  CB  LEU A   1      35.648 -18.212 -23.234  0.00  0.00    +0.030 C 
BRANCH  11  12
ATOM     12  CG  LEU A   1      35.346 -19.239 -22.123  0.00  0.00    +0.002 C 
ATOM     13  CD1 LEU A   1      36.299 -19.021 -20.944  0.00  0.00    +0.000 C 
ATOM     14  CD2 LEU A   1      33.898 -19.166 -21.637  0.00  0.00    +0.000 C 
ENDBRANCH  11  12
ENDBRANCH   1  11
TORSDOF 5
ENDMDL
MODEL 5
REMARK VINA RESULT:      -6.0     11.614     13.236
REMARK  Name = 5231552
REMARK  5 active torsions:
REMARK  status: ('A' for Active; 'I' for Inactive)
REMARK    1  A    between atoms: CA_1  and  C_4
REMARK    2  A    between atoms: CA_1  and  N_5
REMARK    3  A    between atoms: CA_1  and  CB_11
REMARK    4  A    between atoms: N_5  and  C_9
REMARK    5  A    between atoms: CB_11  and  CG_12
REMARK                            x       y       z     vdW  Elec       q    Type
REMARK                         _______ _______ _______ _____ _____    ______ ____
ROOT
ATOM      1  CA  LEU A   1      36.335 -24.553 -12.291  0.00  0.00    +0.160 C 
ENDROOT
BRANCH   1   4
ATOM      2  O   LEU A   1      37.435 -22.745 -11.247  0.00  0.00    -0.244 OA
ATOM      3  OXT LEU A   1      36.172 -24.147  -9.956  0.00  0.00    -0.244 OA
ATOM      4  C   LEU A   1      36.683 -23.740 -11.037  0.00  0.00    +0.381 C 
ENDBRANCH   1   4
BRANCH   1   5
ATOM      5  N   LEU A   1      34.879 -24.911 -12.320  0.00  0.00    -0.362 NA
ATOM      6  H1  LEU A   1      34.479 -25.594 -11.734  0.00  0.00    +0.127 HD
ATOM      7  H2  LEU A   1      35.077 -25.551 -13.041  0.00  0.00    +0.127 HD
BRANCH   5   9
ATOM      8  O   UNK A   0      32.933 -23.948 -13.048  0.00  0.00    -0.277 OA
ATOM      9  C   UNK A   0      34.113 -24.149 -13.301  0.00  0.00    +0.207 C 
ATOM     10  C   UNK A   0      34.788 -23.729 -14.571  0.00  0.00    +0.093 C 
ENDBRANCH   5   9
ENDBRANCH   1   5
BRANCH   1  11
ATOM     11  CB  LEU A   1      37.127 -25.862 -12.411  0.00  0.00    +0.030 C 
BRANCH  11  12
ATOM     12  CG  LEU A   1      37.898 -26.026 -13.737  0.00  0.00    +0.002 C 
ATOM     13  CD1 LEU A   1      37.021 -26.758 -14.758  0.00  0.00    +0.000 C 
ATOM     14  CD2 LEU A   1      38.356 -24.687 -14.317  0.00  0.00    +0.000 C 
ENDBRANCH  11  12
ENDBRANCH   1  11
TORSDOF 5
ENDMDL
MODEL 6
REMARK VINA RESULT:      -5.9      2.201      4.103
REMARK  Name = 5231552
REMARK  5 active torsions:
REMARK  status: ('A' for Active; 'I' for Inactive)
REMARK    1  A    between atoms: CA_1  and  C_4
REMARK    2  A    between atoms: CA_1  and  N_5
REMARK    3  A    between atoms: CA_1  and  CB_11
REMARK    4  A    between atoms: N_5  and  C_9
REMARK    5  A    between atoms: CB_11  and  CG_12
REMARK                            x       y       z     vdW  Elec       q    Type
REMARK                         _______ _______ _______ _____ _____    ______ ____
ROOT
ATOM      1  CA  LEU A   1      34.650 -16.538 -22.727  0.00  0.00    +0.160 C 
ENDROOT
BRANCH   1   4
ATOM      2  O   LEU A   1      36.202 -18.314 -22.626  0.00  0.00    -0.244 OA
ATOM      3  OXT LEU A   1      35.354 -17.491 -20.668  0.00  0.00    -0.244 OA
ATOM      4  C   LEU A   1      35.479 -17.550 -21.924  0.00  0.00    +0.381 C 
ENDBRANCH   1   4
BRANCH   1   5
ATOM      5  N   LEU A   1      35.341 -16.160 -24.003  0.00  0.00    -0.362 NA
ATOM      6  H1  LEU A   1      36.256 -15.800 -24.036  0.00  0.00    +0.127 HD
ATOM      7  H2  LEU A   1      34.923 -15.271 -23.937  0.00  0.00    +0.127 HD
BRANCH   5   9
ATOM      8  O   UNK A   0      34.778 -17.369 -25.865  0.00  0.00    -0.277 OA
ATOM      9  C   UNK A   0      34.523 -16.379 -25.193  0.00  0.00    +0.207 C 
ATOM     10  C   UNK A   0      33.488 -15.356 -25.551  0.00  0.00    +0.093 C 
ENDBRANCH   5   9
ENDBRANCH   1   5
BRANCH   1  11
ATOM     11  CB  LEU A   1      34.364 -15.238 -21.963  0.00  0.00    +0.030 C 
BRANCH  11  12
ATOM     12  CG  LEU A   1      32.869 -14.968 -21.694  0.00  0.00    +0.002 C 
ATOM     13  CD1 LEU A   1      32.593 -15.046 -20.189  0.00  0.00    +0.000 C 
ATOM     14  CD2 LEU A   1      32.415 -13.611 -22.232  0.00  0.00    +0.000 C 
ENDBRANCH  11  12
ENDBRANCH   1  11
TORSDOF 5
ENDMDL
MODEL 7
REMARK VINA RESULT:      -5.9     10.495     12.492
REMARK  Name = 5231552
REMARK  5 active torsions:
REMARK  status: ('A' for Active; 'I' for Inactive)
REMARK    1  A    between atoms: CA_1  and  C_4
REMARK    2  A    between atoms: CA_1  and  N_5
REMARK    3  A    between atoms: CA_1  and  CB_11
REMARK    4  A    between atoms: N_5  and  C_9
REMARK    5  A    between atoms: CB_11  and  CG_12
REMARK                            x       y       z     vdW  Elec       q    Type
REMARK                         _______ _______ _______ _____ _____    ______ ____
ROOT
ATOM      1  CA  LEU A   1      37.384 -24.082 -13.489  0.00  0.00    +0.160 C 
ENDROOT
BRANCH   1   4
ATOM      2  O   LEU A   1      37.761 -24.734 -11.253  0.00  0.00    -0.244 OA
ATOM      3  OXT LEU A   1      38.257 -22.587 -11.862  0.00  0.00    -0.244 OA
ATOM      4  C   LEU A   1      37.842 -23.764 -12.060  0.00  0.00    +0.381 C 
ENDBRANCH   1   4
BRANCH   1   5
ATOM      5  N   LEU A   1      38.529 -24.547 -14.338  0.00  0.00    -0.362 NA
ATOM      6  H1  LEU A   1      39.218 -23.942 -14.694  0.00  0.00    +0.127 HD
ATOM      7  H2  LEU A   1      37.948 -24.457 -15.127  0.00  0.00    +0.127 HD
BRANCH   5   9
ATOM      8  O   UNK A   0      39.609 -26.545 -14.630  0.00  0.00    -0.277 OA
ATOM      9  C   UNK A   0      38.522 -25.987 -14.583  0.00  0.00    +0.207 C 
ATOM     10  C   UNK A   0      37.210 -26.667 -14.831  0.00  0.00    +0.093 C 
ENDBRANCH   5   9
ENDBRANCH   1   5
BRANCH   1  11
ATOM     11  CB  LEU A   1      36.744 -22.886 -14.206  0.00  0.00    +0.030 C 
BRANCH  11  12
ATOM     12  CG  LEU A   1      36.554 -23.075 -15.726  0.00  0.00    +0.002 C 
ATOM     13  CD1 LEU A   1      35.060 -23.174 -16.051  0.00  0.00    +0.000 C 
ATOM     14  CD2 LEU A   1      37.185 -21.944 -16.539  0.00  0.00    +0.000 C 
ENDBRANCH  11  12
ENDBRANCH   1  11
TORSDOF 5
ENDMDL
MODEL 8
REMARK VINA RESULT:      -5.9      9.970     11.874
REMARK  Name = 5231552
REMARK  5 active torsions:
REMARK  status: ('A' for Active; 'I' for Inactive)
REMARK    1  A    between atoms: CA_1  and  C_4
REMARK    2  A    between atoms: CA_1  and  N_5
REMARK    3  A    between atoms: CA_1  and  CB_11
REMARK    4  A    between atoms: N_5  and  C_9
REMARK    5  A    between atoms: CB_11  and  CG_12
REMARK                            x       y       z     vdW  Elec       q    Type
REMARK                         _______ _______ _______ _____ _____    ______ ____
ROOT
ATOM      1  CA  LEU A   1      37.317 -25.073 -14.432  0.00  0.00    +0.160 C 
ENDROOT
BRANCH   1   4
ATOM      2  O   LEU A   1      38.189 -27.245 -14.729  0.00  0.00    -0.244 OA
ATOM      3  OXT LEU A   1      36.237 -26.698 -15.786  0.00  0.00    -0.244 OA
ATOM      4  C   LEU A   1      37.239 -26.475 -15.050  0.00  0.00    +0.381 C 
ENDBRANCH   1   4
BRANCH   1   5
ATOM      5  N   LEU A   1      37.942 -24.094 -15.380  0.00  0.00    -0.362 NA
ATOM      6  H1  LEU A   1      38.851 -24.198 -15.742  0.00  0.00    +0.127 HD
ATOM      7  H2  LEU A   1      38.241 -23.570 -14.602  0.00  0.00    +0.127 HD
BRANCH   5   9
ATOM      8  O   UNK A   0      37.578 -22.037 -16.319  0.00  0.00    -0.277 OA
ATOM      9  C   UNK A   0      37.070 -22.971 -15.714  0.00  0.00    +0.207 C 
ATOM     10  C   UNK A   0      35.649 -23.000 -15.240  0.00  0.00    +0.093 C 
ENDBRANCH   5   9
ENDBRANCH   1   5
BRANCH   1  11
ATOM     11  CB  LEU A   1      38.126 -25.023 -13.129  0.00  0.00    +0.030 C 
BRANCH  11  12
ATOM     12  CG  LEU A   1      37.364 -24.438 -11.922  0.00  0.00    +0.002 C 
ATOM     13  CD1 LEU A   1      37.531 -22.915 -11.894  0.00  0.00    +0.000 C 
ATOM     14  CD2 LEU A   1      35.877 -24.793 -11.941  0.00  0.00    +0.000 C 
ENDBRANCH  11  12
ENDBRANCH   1  11
TORSDOF 5
ENDMDL
MODEL 9
REMARK VINA RESULT:      -5.8      1.698      2.411
REMARK  Name = 5231552
REMARK  5 active torsions:
REMARK  status: ('A' for Active; 'I' for Inactive)
REMARK    1  A    between atoms: CA_1  and  C_4
REMARK    2  A    between atoms: CA_1  and  N_5
REMARK    3  A    between atoms: CA_1  and  CB_11
REMARK    4  A    between atoms: N_5  and  C_9
REMARK    5  A    between atoms: CB_11  and  CG_12
REMARK                            x       y       z     vdW  Elec       q    Type
REMARK                         _______ _______ _______ _____ _____    ______ ____
ROOT
ATOM      1  CA  LEU A   1      34.009 -15.807 -23.578  0.00  0.00    +0.160 C 
ENDROOT
BRANCH   1   4
ATOM      2  O   LEU A   1      32.938 -14.294 -25.038  0.00  0.00    -0.244 OA
ATOM      3  OXT LEU A   1      34.108 -16.039 -25.940  0.00  0.00    -0.244 OA
ATOM      4  C   LEU A   1      33.647 -15.340 -24.994  0.00  0.00    +0.381 C 
ENDBRANCH   1   4
BRANCH   1   5
ATOM      5  N   LEU A   1      34.330 -14.645 -22.687  0.00  0.00    -0.362 NA
ATOM      6  H1  LEU A   1      34.706 -13.798 -23.018  0.00  0.00    +0.127 HD
ATOM      7  H2  LEU A   1      35.212 -15.049 -22.520  0.00  0.00    +0.127 HD
BRANCH   5   9
ATOM      8  O   UNK A   0      34.957 -14.798 -20.489  0.00  0.00    -0.277 OA
ATOM      9  C   UNK A   0      34.028 -14.892 -21.280  0.00  0.00    +0.207 C 
ATOM     10  C   UNK A   0      32.639 -15.312 -20.906  0.00  0.00    +0.093 C 
ENDBRANCH   5   9
ENDBRANCH   1   5
BRANCH   1  11
ATOM     11  CB  LEU A   1      35.214 -16.757 -23.537  0.00  0.00    +0.030 C 
BRANCH  11  12
ATOM     12  CG  LEU A   1      34.922 -18.138 -22.913  0.00  0.00    +0.002 C 
ATOM     13  CD1 LEU A   1      34.874 -19.202 -24.014  0.00  0.00    +0.000 C 
ATOM     14  CD2 LEU A   1      35.955 -18.533 -21.858  0.00  0.00    +0.000 C 
ENDBRANCH  11  12
ENDBRANCH   1  11
TORSDOF 5
ENDMDL
