MODEL 1
REMARK VINA RESULT:     -10.3      0.000      0.000
REMARK  Name = 10168
REMARK  4 active torsions:
REMARK  status: ('A' for Active; 'I' for Inactive)
REMARK    1  A    between atoms: C_9  and  O_17
REMARK    2  A    between atoms: C_11  and  O_19
REMARK    3  A    between atoms: C_12  and  C_22
REMARK    4  A    between atoms: C_22  and  O_23
REMARK                            x       y       z     vdW  Elec       q    Type
REMARK                         _______ _______ _______ _____ _____    ______ ____
ROOT
ATOM      1  O   UNL     1      32.693 -23.487 -16.715  0.00  0.00    -0.286 OA
ATOM      2  O   UNL     1      37.779 -22.230 -15.661  0.00  0.00    -0.287 OA
ATOM      3  C   UNL     1      34.447 -23.505 -15.154  0.00  0.00    +0.076 C 
ATOM      4  C   UNL     1      35.776 -23.176 -14.879  0.00  0.00    +0.045 C 
ATOM      5  C   UNL     1      34.696 -22.543 -17.498  0.00  0.00    +0.076 C 
ATOM      6  C   UNL     1      36.024 -22.214 -17.222  0.00  0.00    +0.045 C 
ATOM      7  C   UNL     1      33.858 -23.201 -16.474  0.00  0.00    +0.202 C 
ATOM      8  C   UNL     1      36.613 -22.519 -15.902  0.00  0.00    +0.196 C 
ATOM      9  C   UNL     1      33.664 -24.128 -14.175  0.00  0.00    +0.137 C 
ATOM     10  C   UNL     1      36.322 -23.470 -13.623  0.00  0.00    +0.010 C 
ATOM     11  C   UNL     1      34.150 -22.249 -18.753  0.00  0.00    +0.137 C 
ATOM     12  C   UNL     1      35.539 -24.091 -12.649  0.00  0.00    +0.079 C 
ATOM     13  C   UNL     1      36.807 -21.591 -18.202  0.00  0.00    +0.003 C 
ATOM     14  C   UNL     1      34.213 -24.419 -12.925  0.00  0.00    +0.043 C 
ATOM     15  C   UNL     1      34.934 -21.629 -19.726  0.00  0.00    +0.037 C 
ATOM     16  C   UNL     1      36.259 -21.300 -19.451  0.00  0.00    +0.003 C 
ENDROOT
BRANCH   9  17
ATOM     17  O   UNL     1      32.362 -24.477 -14.376  0.00  0.00    -0.505 OA
ATOM     18  H   UNL     1      32.093 -25.368 -14.264  0.00  0.00    +0.292 HD
ENDBRANCH   9  17
BRANCH  11  19
ATOM     19  O   UNL     1      32.861 -22.541 -19.090  0.00  0.00    -0.505 OA
ATOM     20  H   UNL     1      32.633 -22.685 -19.987  0.00  0.00    +0.292 HD
ENDBRANCH  11  19
BRANCH  12  22
ATOM     21  O   UNL     1      37.251 -24.110 -10.978  0.00  0.00    -0.245 OA
ATOM     22  C   UNL     1      36.106 -24.397 -11.346  0.00  0.00    +0.338 C 
BRANCH  22  23
ATOM     23  O   UNL     1      35.229 -25.052 -10.537  0.00  0.00    -0.477 OA
ATOM     24  H   UNL     1      34.357 -25.223 -10.833  0.00  0.00    +0.295 HD
ENDBRANCH  22  23
ENDBRANCH  12  22
TORSDOF 4
ENDMDL
MODEL 2
REMARK VINA RESULT:     -10.2      2.651      5.684
REMARK  Name = 10168
REMARK  4 active torsions:
REMARK  status: ('A' for Active; 'I' for Inactive)
REMARK    1  A    between atoms: C_9  and  O_17
REMARK    2  A    between atoms: C_11  and  O_19
REMARK    3  A    between atoms: C_12  and  C_22
REMARK    4  A    between atoms: C_22  and  O_23
REMARK                            x       y       z     vdW  Elec       q    Type
REMARK                         _______ _______ _______ _____ _____    ______ ____
ROOT
ATOM      1  O   UNL     1      33.333 -24.640 -12.783  0.00  0.00    -0.286 OA
ATOM      2  O   UNL     1      33.580 -22.573 -17.705  0.00  0.00    -0.287 OA
ATOM      3  C   UNL     1      32.156 -23.932 -14.687  0.00  0.00    +0.076 C 
ATOM      4  C   UNL     1      32.220 -23.393 -15.973  0.00  0.00    +0.045 C 
ATOM      5  C   UNL     1      34.693 -23.819 -14.513  0.00  0.00    +0.076 C 
ATOM      6  C   UNL     1      34.757 -23.279 -15.799  0.00  0.00    +0.045 C 
ATOM      7  C   UNL     1      33.390 -24.165 -13.909  0.00  0.00    +0.202 C 
ATOM      8  C   UNL     1      33.523 -23.046 -16.576  0.00  0.00    +0.196 C 
ATOM      9  C   UNL     1      30.914 -24.257 -14.127  0.00  0.00    +0.137 C 
ATOM     10  C   UNL     1      31.042 -23.177 -16.699  0.00  0.00    +0.010 C 
ATOM     11  C   UNL     1      35.870 -24.034 -13.787  0.00  0.00    +0.137 C 
ATOM     12  C   UNL     1      29.806 -23.501 -16.138  0.00  0.00    +0.079 C 
ATOM     13  C   UNL     1      35.998 -22.955 -16.359  0.00  0.00    +0.003 C 
ATOM     14  C   UNL     1      29.743 -24.040 -14.854  0.00  0.00    +0.043 C 
ATOM     15  C   UNL     1      37.105 -23.709 -14.349  0.00  0.00    +0.037 C 
ATOM     16  C   UNL     1      37.169 -23.171 -15.632  0.00  0.00    +0.003 C 
ENDROOT
BRANCH   9  17
ATOM     17  O   UNL     1      30.778 -24.785 -12.877  0.00  0.00    -0.505 OA
ATOM     18  H   UNL     1      31.488 -24.736 -12.268  0.00  0.00    +0.292 HD
ENDBRANCH   9  17
BRANCH  11  19
ATOM     19  O   UNL     1      35.881 -24.557 -12.527  0.00  0.00    -0.505 OA
ATOM     20  H   UNL     1      35.126 -25.004 -12.199  0.00  0.00    +0.292 HD
ENDBRANCH  11  19
BRANCH  12  22
ATOM     21  O   UNL     1      27.848 -24.162 -17.342  0.00  0.00    -0.245 OA
ATOM     22  C   UNL     1      28.584 -23.277 -16.892  0.00  0.00    +0.338 C 
BRANCH  22  23
ATOM     23  O   UNL     1      28.314 -21.954 -17.065  0.00  0.00    -0.477 OA
ATOM     24  H   UNL     1      27.433 -21.672 -17.213  0.00  0.00    +0.295 HD
ENDBRANCH  22  23
ENDBRANCH  12  22
TORSDOF 4
ENDMDL
MODEL 3
REMARK VINA RESULT:     -10.0      2.217      4.642
REMARK  Name = 10168
REMARK  4 active torsions:
REMARK  status: ('A' for Active; 'I' for Inactive)
REMARK    1  A    between atoms: C_9  and  O_17
REMARK    2  A    between atoms: C_11  and  O_19
REMARK    3  A    between atoms: C_12  and  C_22
REMARK    4  A    between atoms: C_22  and  O_23
REMARK                            x       y       z     vdW  Elec       q    Type
REMARK                         _______ _______ _______ _____ _____    ______ ____
ROOT
ATOM      1  O   UNL     1      35.415 -23.778 -13.965  0.00  0.00    -0.286 OA
ATOM      2  O   UNL     1      32.539 -22.592 -18.310  0.00  0.00    -0.287 OA
ATOM      3  C   UNL     1      33.309 -23.799 -15.004  0.00  0.00    +0.076 C 
ATOM      4  C   UNL     1      32.558 -23.490 -16.139  0.00  0.00    +0.045 C 
ATOM      5  C   UNL     1      35.396 -22.877 -16.134  0.00  0.00    +0.076 C 
ATOM      6  C   UNL     1      34.644 -22.568 -17.269  0.00  0.00    +0.045 C 
ATOM      7  C   UNL     1      34.756 -23.505 -14.959  0.00  0.00    +0.202 C 
ATOM      8  C   UNL     1      33.198 -22.862 -17.313  0.00  0.00    +0.196 C 
ATOM      9  C   UNL     1      32.690 -24.394 -13.897  0.00  0.00    +0.137 C 
ATOM     10  C   UNL     1      31.187 -23.774 -16.169  0.00  0.00    +0.010 C 
ATOM     11  C   UNL     1      36.766 -22.593 -16.105  0.00  0.00    +0.137 C 
ATOM     12  C   UNL     1      30.574 -24.367 -15.064  0.00  0.00    +0.079 C 
ATOM     13  C   UNL     1      35.263 -21.973 -18.375  0.00  0.00    +0.003 C 
ATOM     14  C   UNL     1      31.324 -24.676 -13.931  0.00  0.00    +0.043 C 
ATOM     15  C   UNL     1      37.378 -21.999 -17.209  0.00  0.00    +0.037 C 
ATOM     16  C   UNL     1      36.629 -21.691 -18.342  0.00  0.00    +0.003 C 
ENDROOT
BRANCH   9  17
ATOM     17  O   UNL     1      33.362 -24.722 -12.758  0.00  0.00    -0.505 OA
ATOM     18  H   UNL     1      34.162 -24.283 -12.542  0.00  0.00    +0.292 HD
ENDBRANCH   9  17
BRANCH  11  19
ATOM     19  O   UNL     1      37.560 -22.868 -15.030  0.00  0.00    -0.505 OA
ATOM     20  H   UNL     1      37.666 -22.232 -14.351  0.00  0.00    +0.292 HD
ENDBRANCH  11  19
BRANCH  12  22
ATOM     21  O   UNL     1      28.305 -24.046 -15.753  0.00  0.00    -0.245 OA
ATOM     22  C   UNL     1      29.150 -24.662 -15.094  0.00  0.00    +0.338 C 
BRANCH  22  23
ATOM     23  O   UNL     1      28.820 -25.719 -14.302  0.00  0.00    -0.477 OA
ATOM     24  H   UNL     1      29.372 -26.475 -14.277  0.00  0.00    +0.295 HD
ENDBRANCH  22  23
ENDBRANCH  12  22
TORSDOF 4
ENDMDL
MODEL 4
REMARK VINA RESULT:      -9.9      7.072     10.307
REMARK  Name = 10168
REMARK  4 active torsions:
REMARK  status: ('A' for Active; 'I' for Inactive)
REMARK    1  A    between atoms: C_9  and  O_17
REMARK    2  A    between atoms: C_11  and  O_19
REMARK    3  A    between atoms: C_12  and  C_22
REMARK    4  A    between atoms: C_22  and  O_23
REMARK                            x       y       z     vdW  Elec       q    Type
REMARK                         _______ _______ _______ _____ _____    ______ ____
ROOT
ATOM      1  O   UNL     1      34.054 -17.245 -25.854  0.00  0.00    -0.286 OA
ATOM      2  O   UNL     1      34.595 -15.108 -20.987  0.00  0.00    -0.287 OA
ATOM      3  C   UNL     1      34.554 -17.600 -23.588  0.00  0.00    +0.076 C 
ATOM      4  C   UNL     1      34.695 -17.042 -22.316  0.00  0.00    +0.045 C 
ATOM      5  C   UNL     1      33.957 -15.311 -24.526  0.00  0.00    +0.076 C 
ATOM      6  C   UNL     1      34.098 -14.752 -23.254  0.00  0.00    +0.045 C 
ATOM      7  C   UNL     1      34.180 -16.755 -24.740  0.00  0.00    +0.202 C 
ATOM      8  C   UNL     1      34.472 -15.598 -22.102  0.00  0.00    +0.196 C 
ATOM      9  C   UNL     1      34.768 -18.971 -23.777  0.00  0.00    +0.137 C 
ATOM     10  C   UNL     1      35.051 -17.854 -21.232  0.00  0.00    +0.010 C 
ATOM     11  C   UNL     1      33.601 -14.498 -25.609  0.00  0.00    +0.137 C 
ATOM     12  C   UNL     1      35.263 -19.220 -21.424  0.00  0.00    +0.079 C 
ATOM     13  C   UNL     1      33.884 -13.382 -23.065  0.00  0.00    +0.003 C 
ATOM     14  C   UNL     1      35.122 -19.777 -22.694  0.00  0.00    +0.043 C 
ATOM     15  C   UNL     1      33.390 -13.133 -25.417  0.00  0.00    +0.037 C 
ATOM     16  C   UNL     1      33.530 -12.575 -24.148  0.00  0.00    +0.003 C 
ENDROOT
BRANCH   9  17
ATOM     17  O   UNL     1      34.649 -19.581 -24.990  0.00  0.00    -0.505 OA
ATOM     18  H   UNL     1      34.646 -19.069 -25.774  0.00  0.00    +0.292 HD
ENDBRANCH   9  17
BRANCH  11  19
ATOM     19  O   UNL     1      33.446 -14.976 -26.877  0.00  0.00    -0.505 OA
ATOM     20  H   UNL     1      33.292 -15.889 -27.018  0.00  0.00    +0.292 HD
ENDBRANCH  11  19
BRANCH  12  22
ATOM     21  O   UNL     1      34.924 -20.946 -19.803  0.00  0.00    -0.245 OA
ATOM     22  C   UNL     1      35.632 -20.064 -20.299  0.00  0.00    +0.338 C 
BRANCH  22  23
ATOM     23  O   UNL     1      36.877 -19.782 -19.823  0.00  0.00    -0.477 OA
ATOM     24  H   UNL     1      37.093 -18.907 -19.568  0.00  0.00    +0.295 HD
ENDBRANCH  22  23
ENDBRANCH  12  22
TORSDOF 4
ENDMDL
MODEL 5
REMARK VINA RESULT:      -9.7      8.463     12.399
REMARK  Name = 10168
REMARK  4 active torsions:
REMARK  status: ('A' for Active; 'I' for Inactive)
REMARK    1  A    between atoms: C_9  and  O_17
REMARK    2  A    between atoms: C_11  and  O_19
REMARK    3  A    between atoms: C_12  and  C_22
REMARK    4  A    between atoms: C_22  and  O_23
REMARK                            x       y       z     vdW  Elec       q    Type
REMARK                         _______ _______ _______ _____ _____    ______ ____
ROOT
ATOM      1  O   UNL     1      34.056 -17.311 -25.621  0.00  0.00    -0.286 OA
ATOM      2  O   UNL     1      34.812 -15.044 -20.841  0.00  0.00    -0.287 OA
ATOM      3  C   UNL     1      34.043 -15.338 -24.349  0.00  0.00    +0.076 C 
ATOM      4  C   UNL     1      34.241 -14.745 -23.101  0.00  0.00    +0.045 C 
ATOM      5  C   UNL     1      34.624 -17.611 -23.362  0.00  0.00    +0.076 C 
ATOM      6  C   UNL     1      34.822 -17.018 -22.113  0.00  0.00    +0.045 C 
ATOM      7  C   UNL     1      34.227 -16.792 -24.526  0.00  0.00    +0.202 C 
ATOM      8  C   UNL     1      34.637 -15.563 -21.936  0.00  0.00    +0.196 C 
ATOM      9  C   UNL     1      33.667 -14.550 -25.444  0.00  0.00    +0.137 C 
ATOM     10  C   UNL     1      34.062 -13.365 -22.946  0.00  0.00    +0.010 C 
ATOM     11  C   UNL     1      34.803 -18.991 -23.515  0.00  0.00    +0.137 C 
ATOM     12  C   UNL     1      33.688 -12.583 -24.040  0.00  0.00    +0.079 C 
ATOM     13  C   UNL     1      35.198 -17.805 -21.018  0.00  0.00    +0.003 C 
ATOM     14  C   UNL     1      33.490 -13.175 -25.286  0.00  0.00    +0.043 C 
ATOM     15  C   UNL     1      35.176 -19.772 -22.421  0.00  0.00    +0.037 C 
ATOM     16  C   UNL     1      35.375 -19.180 -21.175  0.00  0.00    +0.003 C 
ENDROOT
BRANCH   9  17
ATOM     17  O   UNL     1      33.456 -15.062 -26.690  0.00  0.00    -0.505 OA
ATOM     18  H   UNL     1      33.916 -15.831 -26.964  0.00  0.00    +0.292 HD
ENDBRANCH   9  17
BRANCH  11  19
ATOM     19  O   UNL     1      34.627 -19.635 -24.704  0.00  0.00    -0.505 OA
ATOM     20  H   UNL     1      34.037 -20.361 -24.761  0.00  0.00    +0.292 HD
ENDBRANCH  11  19
BRANCH  12  22
ATOM     21  O   UNL     1      32.542 -10.610 -23.320  0.00  0.00    -0.245 OA
ATOM     22  C   UNL     1      33.503 -11.150 -23.880  0.00  0.00    +0.338 C 
BRANCH  22  23
ATOM     23  O   UNL     1      34.522 -10.429 -24.423  0.00  0.00    -0.477 OA
ATOM     24  H   UNL     1      34.615 -10.379 -25.354  0.00  0.00    +0.295 HD
ENDBRANCH  22  23
ENDBRANCH  12  22
TORSDOF 4
ENDMDL
MODEL 6
REMARK VINA RESULT:      -9.6      2.316      4.423
REMARK  Name = 10168
REMARK  4 active torsions:
REMARK  status: ('A' for Active; 'I' for Inactive)
REMARK    1  A    between atoms: C_9  and  O_17
REMARK    2  A    between atoms: C_11  and  O_19
REMARK    3  A    between atoms: C_12  and  C_22
REMARK    4  A    between atoms: C_22  and  O_23
REMARK                            x       y       z     vdW  Elec       q    Type
REMARK                         _______ _______ _______ _____ _____    ______ ____
ROOT
ATOM      1  O   UNL     1      34.029 -24.902 -12.324  0.00  0.00    -0.286 OA
ATOM      2  O   UNL     1      35.779 -23.210 -17.081  0.00  0.00    -0.287 OA
ATOM      3  C   UNL     1      35.856 -24.642 -13.775  0.00  0.00    +0.076 C 
ATOM      4  C   UNL     1      36.313 -24.199 -15.018  0.00  0.00    +0.045 C 
ATOM      5  C   UNL     1      33.494 -23.916 -14.387  0.00  0.00    +0.076 C 
ATOM      6  C   UNL     1      33.951 -23.474 -15.630  0.00  0.00    +0.045 C 
ATOM      7  C   UNL     1      34.429 -24.516 -13.414  0.00  0.00    +0.202 C 
ATOM      8  C   UNL     1      35.378 -23.599 -15.991  0.00  0.00    +0.196 C 
ATOM      9  C   UNL     1      36.753 -25.209 -12.862  0.00  0.00    +0.137 C 
ATOM     10  C   UNL     1      37.668 -24.324 -15.348  0.00  0.00    +0.010 C 
ATOM     11  C   UNL     1      32.139 -23.791 -14.057  0.00  0.00    +0.137 C 
ATOM     12  C   UNL     1      38.560 -24.890 -14.436  0.00  0.00    +0.079 C 
ATOM     13  C   UNL     1      33.054 -22.907 -16.543  0.00  0.00    +0.003 C 
ATOM     14  C   UNL     1      38.103 -25.331 -13.196  0.00  0.00    +0.043 C 
ATOM     15  C   UNL     1      31.248 -23.227 -14.970  0.00  0.00    +0.037 C 
ATOM     16  C   UNL     1      31.704 -22.784 -16.210  0.00  0.00    +0.003 C 
ENDROOT
BRANCH   9  17
ATOM     17  O   UNL     1      36.375 -25.662 -11.633  0.00  0.00    -0.505 OA
ATOM     18  H   UNL     1      35.477 -25.616 -11.373  0.00  0.00    +0.292 HD
ENDBRANCH   9  17
BRANCH  11  19
ATOM     19  O   UNL     1      31.624 -24.201 -12.863  0.00  0.00    -0.505 OA
ATOM     20  H   UNL     1      31.344 -23.569 -12.231  0.00  0.00    +0.292 HD
ENDBRANCH  11  19
BRANCH  12  22
ATOM     21  O   UNL     1      40.909 -24.571 -14.117  0.00  0.00    -0.245 OA
ATOM     22  C   UNL     1      39.967 -25.019 -14.779  0.00  0.00    +0.338 C 
BRANCH  22  23
ATOM     23  O   UNL     1      40.159 -25.705 -15.939  0.00  0.00    -0.477 OA
ATOM     24  H   UNL     1      39.545 -26.362 -16.202  0.00  0.00    +0.295 HD
ENDBRANCH  22  23
ENDBRANCH  12  22
TORSDOF 4
ENDMDL
MODEL 7
REMARK VINA RESULT:      -9.5      2.113      5.735
REMARK  Name = 10168
REMARK  4 active torsions:
REMARK  status: ('A' for Active; 'I' for Inactive)
REMARK    1  A    between atoms: C_9  and  O_17
REMARK    2  A    between atoms: C_11  and  O_19
REMARK    3  A    between atoms: C_12  and  C_22
REMARK    4  A    between atoms: C_22  and  O_23
REMARK                            x       y       z     vdW  Elec       q    Type
REMARK                         _______ _______ _______ _____ _____    ______ ____
ROOT
ATOM      1  O   UNL     1      36.361 -23.075 -16.844  0.00  0.00    -0.286 OA
ATOM      2  O   UNL     1      33.278 -24.614 -12.760  0.00  0.00    -0.287 OA
ATOM      3  C   UNL     1      34.184 -23.347 -16.009  0.00  0.00    +0.076 C 
ATOM      4  C   UNL     1      33.378 -23.749 -14.942  0.00  0.00    +0.045 C 
ATOM      5  C   UNL     1      36.261 -23.942 -14.664  0.00  0.00    +0.076 C 
ATOM      6  C   UNL     1      35.456 -24.344 -13.597  0.00  0.00    +0.045 C 
ATOM      7  C   UNL     1      35.655 -23.429 -15.910  0.00  0.00    +0.202 C 
ATOM      8  C   UNL     1      33.984 -24.262 -13.697  0.00  0.00    +0.196 C 
ATOM      9  C   UNL     1      33.596 -22.863 -17.184  0.00  0.00    +0.137 C 
ATOM     10  C   UNL     1      31.984 -23.667 -15.049  0.00  0.00    +0.010 C 
ATOM     11  C   UNL     1      37.655 -24.025 -14.556  0.00  0.00    +0.137 C 
ATOM     12  C   UNL     1      31.402 -23.183 -16.222  0.00  0.00    +0.079 C 
ATOM     13  C   UNL     1      36.043 -24.829 -12.422  0.00  0.00    +0.003 C 
ATOM     14  C   UNL     1      32.207 -22.782 -17.286  0.00  0.00    +0.043 C 
ATOM     15  C   UNL     1      38.236 -24.510 -13.384  0.00  0.00    +0.037 C 
ATOM     16  C   UNL     1      37.432 -24.910 -12.319  0.00  0.00    +0.003 C 
ENDROOT
BRANCH   9  17
ATOM     17  O   UNL     1      34.321 -22.454 -18.264  0.00  0.00    -0.505 OA
ATOM     18  H   UNL     1      34.982 -21.798 -18.163  0.00  0.00    +0.292 HD
ENDBRANCH   9  17
BRANCH  11  19
ATOM     19  O   UNL     1      38.501 -23.651 -15.558  0.00  0.00    -0.505 OA
ATOM     20  H   UNL     1      38.726 -22.748 -15.669  0.00  0.00    +0.292 HD
ENDBRANCH  11  19
BRANCH  12  22
ATOM     21  O   UNL     1      29.340 -22.383 -17.132  0.00  0.00    -0.245 OA
ATOM     22  C   UNL     1      29.955 -23.097 -16.333  0.00  0.00    +0.338 C 
BRANCH  22  23
ATOM     23  O   UNL     1      29.315 -23.906 -15.444  0.00  0.00    -0.477 OA
ATOM     24  H   UNL     1      29.348 -23.712 -14.528  0.00  0.00    +0.295 HD
ENDBRANCH  22  23
ENDBRANCH  12  22
TORSDOF 4
ENDMDL
MODEL 8
REMARK VINA RESULT:      -9.5      1.994      3.856
REMARK  Name = 10168
REMARK  4 active torsions:
REMARK  status: ('A' for Active; 'I' for Inactive)
REMARK    1  A    between atoms: C_9  and  O_17
REMARK    2  A    between atoms: C_11  and  O_19
REMARK    3  A    between atoms: C_12  and  C_22
REMARK    4  A    between atoms: C_22  and  O_23
REMARK                            x       y       z     vdW  Elec       q    Type
REMARK                         _______ _______ _______ _____ _____    ______ ____
ROOT
ATOM      1  O   UNL     1      34.909 -22.714 -17.471  0.00  0.00    -0.286 OA
ATOM      2  O   UNL     1      33.040 -24.376 -12.749  0.00  0.00    -0.287 OA
ATOM      3  C   UNL     1      35.412 -23.474 -15.307  0.00  0.00    +0.076 C 
ATOM      4  C   UNL     1      34.924 -23.908 -14.074  0.00  0.00    +0.045 C 
ATOM      5  C   UNL     1      33.026 -23.179 -16.146  0.00  0.00    +0.076 C 
ATOM      6  C   UNL     1      32.538 -23.613 -14.913  0.00  0.00    +0.045 C 
ATOM      7  C   UNL     1      34.481 -23.093 -16.389  0.00  0.00    +0.202 C 
ATOM      8  C   UNL     1      33.469 -23.994 -13.831  0.00  0.00    +0.196 C 
ATOM      9  C   UNL     1      36.793 -23.397 -15.524  0.00  0.00    +0.137 C 
ATOM     10  C   UNL     1      35.816 -24.266 -13.056  0.00  0.00    +0.010 C 
ATOM     11  C   UNL     1      32.133 -22.821 -17.163  0.00  0.00    +0.137 C 
ATOM     12  C   UNL     1      37.192 -24.189 -13.276  0.00  0.00    +0.079 C 
ATOM     13  C   UNL     1      31.157 -23.690 -14.696  0.00  0.00    +0.003 C 
ATOM     14  C   UNL     1      37.679 -23.755 -14.507  0.00  0.00    +0.043 C 
ATOM     15  C   UNL     1      30.758 -22.897 -16.942  0.00  0.00    +0.037 C 
ATOM     16  C   UNL     1      30.271 -23.332 -15.712  0.00  0.00    +0.003 C 
ENDROOT
BRANCH   9  17
ATOM     17  O   UNL     1      37.337 -22.981 -16.703  0.00  0.00    -0.505 OA
ATOM     18  H   UNL     1      38.011 -23.488 -17.113  0.00  0.00    +0.292 HD
ENDBRANCH   9  17
BRANCH  11  19
ATOM     19  O   UNL     1      32.540 -22.388 -18.391  0.00  0.00    -0.505 OA
ATOM     20  H   UNL     1      31.929 -22.352 -19.101  0.00  0.00    +0.292 HD
ENDBRANCH  11  19
BRANCH  12  22
ATOM     21  O   UNL     1      38.302 -25.708 -11.798  0.00  0.00    -0.245 OA
ATOM     22  C   UNL     1      38.120 -24.561 -12.219  0.00  0.00    +0.338 C 
BRANCH  22  23
ATOM     23  O   UNL     1      38.793 -23.490 -11.717  0.00  0.00    -0.477 OA
ATOM     24  H   UNL     1      39.649 -23.283 -12.037  0.00  0.00    +0.295 HD
ENDBRANCH  22  23
ENDBRANCH  12  22
TORSDOF 4
ENDMDL
MODEL 9
REMARK VINA RESULT:      -9.3      2.441      5.149
REMARK  Name = 10168
REMARK  4 active torsions:
REMARK  status: ('A' for Active; 'I' for Inactive)
REMARK    1  A    between atoms: C_9  and  O_17
REMARK    2  A    between atoms: C_11  and  O_19
REMARK    3  A    between atoms: C_12  and  C_22
REMARK    4  A    between atoms: C_22  and  O_23
REMARK                            x       y       z     vdW  Elec       q    Type
REMARK                         _______ _______ _______ _____ _____    ______ ____
ROOT
ATOM      1  O   UNL     1      32.302 -25.006 -13.090  0.00  0.00    -0.286 OA
ATOM      2  O   UNL     1      32.546 -22.455 -17.779  0.00  0.00    -0.287 OA
ATOM      3  C   UNL     1      33.652 -23.942 -14.689  0.00  0.00    +0.076 C 
ATOM      4  C   UNL     1      33.716 -23.275 -15.914  0.00  0.00    +0.045 C 
ATOM      5  C   UNL     1      31.133 -24.189 -14.956  0.00  0.00    +0.076 C 
ATOM      6  C   UNL     1      31.197 -23.522 -16.181  0.00  0.00    +0.045 C 
ATOM      7  C   UNL     1      32.358 -24.423 -14.165  0.00  0.00    +0.202 C 
ATOM      8  C   UNL     1      32.491 -23.041 -16.705  0.00  0.00    +0.196 C 
ATOM      9  C   UNL     1      34.822 -24.157 -13.950  0.00  0.00    +0.137 C 
ATOM     10  C   UNL     1      34.949 -22.824 -16.401  0.00  0.00    +0.010 C 
ATOM     11  C   UNL     1      29.900 -24.640 -14.470  0.00  0.00    +0.137 C 
ATOM     12  C   UNL     1      36.113 -23.040 -15.661  0.00  0.00    +0.079 C 
ATOM     13  C   UNL     1      30.027 -23.306 -16.920  0.00  0.00    +0.003 C 
ATOM     14  C   UNL     1      36.048 -23.706 -14.438  0.00  0.00    +0.043 C 
ATOM     15  C   UNL     1      28.737 -24.424 -15.211  0.00  0.00    +0.037 C 
ATOM     16  C   UNL     1      28.801 -23.758 -16.432  0.00  0.00    +0.003 C 
ENDROOT
BRANCH   9  17
ATOM     17  O   UNL     1      34.832 -24.801 -12.748  0.00  0.00    -0.505 OA
ATOM     18  H   UNL     1      35.608 -25.239 -12.458  0.00  0.00    +0.292 HD
ENDBRANCH   9  17
BRANCH  11  19
ATOM     19  O   UNL     1      29.764 -25.297 -13.283  0.00  0.00    -0.505 OA
ATOM     20  H   UNL     1      29.183 -24.965 -12.627  0.00  0.00    +0.292 HD
ENDBRANCH  11  19
BRANCH  12  22
ATOM     21  O   UNL     1      37.574 -21.526 -16.798  0.00  0.00    -0.245 OA
ATOM     22  C   UNL     1      37.393 -22.572 -16.166  0.00  0.00    +0.338 C 
BRANCH  22  23
ATOM     23  O   UNL     1      38.414 -23.422 -15.867  0.00  0.00    -0.477 OA
ATOM     24  H   UNL     1      38.423 -24.286 -16.228  0.00  0.00    +0.295 HD
ENDBRANCH  22  23
ENDBRANCH  12  22
TORSDOF 4
ENDMDL
