MODEL 1
REMARK VINA RESULT:      -8.9      0.000      0.000
REMARK  Name = 6436171
REMARK  3 active torsions:
REMARK  status: ('A' for Active; 'I' for Inactive)
REMARK    1  A    between atoms: C_1  and  C_14
REMARK    2  A    between atoms: C_2  and  C_6
REMARK    3  A    between atoms: C_15  and  N_20
REMARK                            x       y       z     vdW  Elec       q    Type
REMARK                         _______ _______ _______ _____ _____    ______ ____
ROOT
ATOM      1  C   UNL     1      34.952 -18.645 -21.362  0.00  0.00    +0.037 C 
ATOM      2  C   UNL     1      35.321 -18.379 -22.638  0.00  0.00    +0.036 C 
ENDROOT
BRANCH   2   6
ATOM      3  N   UNL     1      34.809 -16.062 -22.808  0.00  0.00    -0.338 NA
ATOM      4  N   UNL     1      33.965 -15.099 -24.850  0.00  0.00    -0.170 NA
ATOM      5  N   UNL     1      34.314 -13.773 -22.946  0.00  0.00    -0.293 N 
ATOM      6  C   UNL     1      34.845 -17.259 -23.432  0.00  0.00    +0.146 C 
ATOM      7  C   UNL     1      34.464 -17.452 -24.744  0.00  0.00    +0.055 C 
ATOM      8  C   UNL     1      34.028 -16.325 -25.411  0.00  0.00    +0.114 C 
ATOM      9  C   UNL     1      34.365 -15.040 -23.566  0.00  0.00    +0.141 C 
ATOM     10  H   UNL     1      34.594 -13.672 -22.008  0.00  0.00    +0.155 HD
ATOM     11  H   UNL     1      33.998 -12.989 -23.453  0.00  0.00    +0.155 HD
ENDBRANCH   2   6
BRANCH   1  14
ATOM     12  N   UNL     1      34.480 -20.645 -20.142  0.00  0.00    -0.251 N 
ATOM     13  N   UNL     1      36.621 -20.060 -20.234  0.00  0.00    -0.226 NA
ATOM     14  C   UNL     1      35.420 -19.792 -20.564  0.00  0.00    +0.137 C 
ATOM     15  C   UNL     1      35.159 -21.600 -19.440  0.00  0.00    +0.218 C 
ATOM     16  C   UNL     1      33.048 -20.611 -20.352  0.00  0.00    +0.120 C 
ATOM     17  C   UNL     1      36.478 -21.218 -19.510  0.00  0.00    +0.140 C 
BRANCH  15  20
ATOM     18  O   UNL     1      33.980 -23.580 -19.523  0.00  0.00    -0.125 OA
ATOM     19  O   UNL     1      34.561 -22.791 -17.558  0.00  0.00    -0.125 OA
ATOM     20  N   UNL     1      34.546 -22.694 -18.819  0.00  0.00    +0.074 N 
ENDBRANCH  15  20
ENDBRANCH   1  14
TORSDOF 3
ENDMDL
MODEL 2
REMARK VINA RESULT:      -8.7      0.906      1.838
REMARK  Name = 6436171
REMARK  3 active torsions:
REMARK  status: ('A' for Active; 'I' for Inactive)
REMARK    1  A    between atoms: C_1  and  C_14
REMARK    2  A    between atoms: C_2  and  C_6
REMARK    3  A    between atoms: C_15  and  N_20
REMARK                            x       y       z     vdW  Elec       q    Type
REMARK                         _______ _______ _______ _____ _____    ______ ____
ROOT
ATOM      1  C   UNL     1      35.076 -18.741 -21.475  0.00  0.00    +0.037 C 
ATOM      2  C   UNL     1      35.033 -17.435 -21.115  0.00  0.00    +0.036 C 
ENDROOT
BRANCH   2   6
ATOM      3  N   UNL     1      34.450 -16.651 -23.284  0.00  0.00    -0.338 NA
ATOM      4  N   UNL     1      33.918 -14.337 -23.693  0.00  0.00    -0.170 NA
ATOM      5  N   UNL     1      33.878 -15.909 -25.435  0.00  0.00    -0.293 N 
ATOM      6  C   UNL     1      34.646 -16.338 -21.986  0.00  0.00    +0.146 C 
ATOM      7  C   UNL     1      34.499 -15.065 -21.473  0.00  0.00    +0.055 C 
ATOM      8  C   UNL     1      34.130 -14.094 -22.382  0.00  0.00    +0.114 C 
ATOM      9  C   UNL     1      34.092 -15.617 -24.070  0.00  0.00    +0.141 C 
ATOM     10  H   UNL     1      33.992 -16.828 -25.766  0.00  0.00    +0.155 HD
ATOM     11  H   UNL     1      33.614 -15.190 -26.056  0.00  0.00    +0.155 HD
ENDBRANCH   2   6
BRANCH   1  14
ATOM     12  N   UNL     1      34.515 -20.672 -20.184  0.00  0.00    -0.251 N 
ATOM     13  N   UNL     1      36.665 -20.112 -20.188  0.00  0.00    -0.226 NA
ATOM     14  C   UNL     1      35.487 -19.850 -20.596  0.00  0.00    +0.137 C 
ATOM     15  C   UNL     1      35.144 -21.596 -19.399  0.00  0.00    +0.218 C 
ATOM     16  C   UNL     1      33.097 -20.635 -20.474  0.00  0.00    +0.120 C 
ATOM     17  C   UNL     1      36.469 -21.231 -19.416  0.00  0.00    +0.140 C 
BRANCH  15  20
ATOM     18  O   UNL     1      34.479 -22.715 -17.495  0.00  0.00    -0.125 OA
ATOM     19  O   UNL     1      33.899 -23.537 -19.447  0.00  0.00    -0.125 OA
ATOM     20  N   UNL     1      34.485 -22.652 -18.759  0.00  0.00    +0.074 N 
ENDBRANCH  15  20
ENDBRANCH   1  14
TORSDOF 3
ENDMDL
MODEL 3
REMARK VINA RESULT:      -8.5      3.844      7.327
REMARK  Name = 6436171
REMARK  3 active torsions:
REMARK  status: ('A' for Active; 'I' for Inactive)
REMARK    1  A    between atoms: C_1  and  C_14
REMARK    2  A    between atoms: C_2  and  C_6
REMARK    3  A    between atoms: C_15  and  N_20
REMARK                            x       y       z     vdW  Elec       q    Type
REMARK                         _______ _______ _______ _____ _____    ______ ____
ROOT
ATOM      1  C   UNL     1      35.035 -18.196 -22.058  0.00  0.00    +0.037 C 
ATOM      2  C   UNL     1      34.223 -19.151 -21.544  0.00  0.00    +0.036 C 
ENDROOT
BRANCH   2   6
ATOM      3  N   UNL     1      33.639 -20.899 -20.040  0.00  0.00    -0.338 NA
ATOM      4  N   UNL     1      35.316 -22.159 -18.851  0.00  0.00    -0.170 NA
ATOM      5  N   UNL     1      33.032 -22.618 -18.563  0.00  0.00    -0.293 N 
ATOM      6  C   UNL     1      34.634 -20.189 -20.613  0.00  0.00    +0.146 C 
ATOM      7  C   UNL     1      35.973 -20.402 -20.360  0.00  0.00    +0.055 C 
ATOM      8  C   UNL     1      36.258 -21.410 -19.461  0.00  0.00    +0.114 C 
ATOM      9  C   UNL     1      34.046 -21.855 -19.181  0.00  0.00    +0.141 C 
ATOM     10  H   UNL     1      32.087 -22.439 -18.767  0.00  0.00    +0.155 HD
ATOM     11  H   UNL     1      33.272 -23.332 -17.927  0.00  0.00    +0.155 HD
ENDBRANCH   2   6
BRANCH   1  14
ATOM     12  N   UNL     1      34.226 -15.991 -22.493  0.00  0.00    -0.251 N 
ATOM     13  N   UNL     1      34.600 -17.246 -24.287  0.00  0.00    -0.226 NA
ATOM     14  C   UNL     1      34.621 -17.156 -23.017  0.00  0.00    +0.137 C 
ATOM     15  C   UNL     1      33.902 -15.213 -23.569  0.00  0.00    +0.218 C 
ATOM     16  C   UNL     1      34.140 -15.588 -21.105  0.00  0.00    +0.120 C 
ATOM     17  C   UNL     1      34.140 -16.008 -24.664  0.00  0.00    +0.140 C 
BRANCH  15  20
ATOM     18  O   UNL     1      32.256 -13.679 -23.061  0.00  0.00    -0.125 OA
ATOM     19  O   UNL     1      34.192 -12.935 -23.781  0.00  0.00    -0.125 OA
ATOM     20  N   UNL     1      33.435 -13.898 -23.467  0.00  0.00    +0.074 N 
ENDBRANCH  15  20
ENDBRANCH   1  14
TORSDOF 3
ENDMDL
MODEL 4
REMARK VINA RESULT:      -8.4      3.789      7.368
REMARK  Name = 6436171
REMARK  3 active torsions:
REMARK  status: ('A' for Active; 'I' for Inactive)
REMARK    1  A    between atoms: C_1  and  C_14
REMARK    2  A    between atoms: C_2  and  C_6
REMARK    3  A    between atoms: C_15  and  N_20
REMARK                            x       y       z     vdW  Elec       q    Type
REMARK                         _______ _______ _______ _____ _____    ______ ____
ROOT
ATOM      1  C   UNL     1      35.018 -18.039 -22.308  0.00  0.00    +0.037 C 
ATOM      2  C   UNL     1      34.312 -18.650 -21.326  0.00  0.00    +0.036 C 
ENDROOT
BRANCH   2   6
ATOM      3  N   UNL     1      33.737 -20.616 -20.116  0.00  0.00    -0.338 NA
ATOM      4  N   UNL     1      35.419 -22.117 -19.266  0.00  0.00    -0.170 NA
ATOM      5  N   UNL     1      33.137 -22.547 -18.927  0.00  0.00    -0.293 N 
ATOM      6  C   UNL     1      34.728 -19.847 -20.616  0.00  0.00    +0.146 C 
ATOM      7  C   UNL     1      36.069 -20.144 -20.483  0.00  0.00    +0.055 C 
ATOM      8  C   UNL     1      36.359 -21.303 -19.791  0.00  0.00    +0.114 C 
ATOM      9  C   UNL     1      34.148 -21.720 -19.463  0.00  0.00    +0.141 C 
ATOM     10  H   UNL     1      32.191 -22.305 -19.041  0.00  0.00    +0.155 HD
ATOM     11  H   UNL     1      33.380 -23.368 -18.440  0.00  0.00    +0.155 HD
ENDBRANCH   2   6
BRANCH   1  14
ATOM     12  N   UNL     1      34.266 -17.008 -24.328  0.00  0.00    -0.251 N 
ATOM     13  N   UNL     1      34.485 -15.651 -22.582  0.00  0.00    -0.226 NA
ATOM     14  C   UNL     1      34.587 -16.835 -23.041  0.00  0.00    +0.137 C 
ATOM     15  C   UNL     1      33.907 -15.766 -24.771  0.00  0.00    +0.218 C 
ATOM     16  C   UNL     1      34.280 -18.216 -25.125  0.00  0.00    +0.120 C 
ATOM     17  C   UNL     1      34.050 -14.946 -23.677  0.00  0.00    +0.140 C 
BRANCH  15  20
ATOM     18  O   UNL     1      34.056 -14.569 -26.737  0.00  0.00    -0.125 OA
ATOM     19  O   UNL     1      32.566 -16.177 -26.601  0.00  0.00    -0.125 OA
ATOM     20  N   UNL     1      33.495 -15.495 -26.081  0.00  0.00    +0.074 N 
ENDBRANCH  15  20
ENDBRANCH   1  14
TORSDOF 3
ENDMDL
MODEL 5
REMARK VINA RESULT:      -8.3      2.143      3.104
REMARK  Name = 6436171
REMARK  3 active torsions:
REMARK  status: ('A' for Active; 'I' for Inactive)
REMARK    1  A    between atoms: C_1  and  C_14
REMARK    2  A    between atoms: C_2  and  C_6
REMARK    3  A    between atoms: C_15  and  N_20
REMARK                            x       y       z     vdW  Elec       q    Type
REMARK                         _______ _______ _______ _____ _____    ______ ____
ROOT
ATOM      1  C   UNL     1      34.613 -20.935 -20.037  0.00  0.00    +0.037 C 
ATOM      2  C   UNL     1      33.872 -19.946 -20.594  0.00  0.00    +0.036 C 
ENDROOT
BRANCH   2   6
ATOM      3  N   UNL     1      34.297 -17.729 -21.343  0.00  0.00    -0.338 NA
ATOM      4  N   UNL     1      35.160 -17.283 -23.549  0.00  0.00    -0.170 NA
ATOM      5  N   UNL     1      34.708 -15.531 -22.054  0.00  0.00    -0.293 N 
ATOM      6  C   UNL     1      34.325 -19.046 -21.640  0.00  0.00    +0.146 C 
ATOM      7  C   UNL     1      34.752 -19.550 -22.852  0.00  0.00    +0.055 C 
ATOM      8  C   UNL     1      35.162 -18.613 -23.778  0.00  0.00    +0.114 C 
ATOM      9  C   UNL     1      34.723 -16.916 -22.330  0.00  0.00    +0.141 C 
ATOM     10  H   UNL     1      34.397 -15.207 -21.179  0.00  0.00    +0.155 HD
ATOM     11  H   UNL     1      35.009 -14.890 -22.739  0.00  0.00    +0.155 HD
ENDBRANCH   2   6
BRANCH   1  14
ATOM     12  N   UNL     1      35.056 -22.131 -18.017  0.00  0.00    -0.251 N 
ATOM     13  N   UNL     1      33.004 -22.359 -18.836  0.00  0.00    -0.226 NA
ATOM     14  C   UNL     1      34.158 -21.835 -18.963  0.00  0.00    +0.137 C 
ATOM     15  C   UNL     1      34.400 -22.964 -17.155  0.00  0.00    +0.218 C 
ATOM     16  C   UNL     1      36.431 -21.696 -17.887  0.00  0.00    +0.120 C 
ATOM     17  C   UNL     1      33.136 -23.091 -17.681  0.00  0.00    +0.140 C 
BRANCH  15  20
ATOM     18  O   UNL     1      35.352 -24.727 -16.013  0.00  0.00    -0.125 OA
ATOM     19  O   UNL     1      35.137 -22.803 -14.977  0.00  0.00    -0.125 OA
ATOM     20  N   UNL     1      34.983 -23.517 -16.010  0.00  0.00    +0.074 N 
ENDBRANCH  15  20
ENDBRANCH   1  14
TORSDOF 3
ENDMDL
MODEL 6
REMARK VINA RESULT:      -8.3      8.728     10.483
REMARK  Name = 6436171
REMARK  3 active torsions:
REMARK  status: ('A' for Active; 'I' for Inactive)
REMARK    1  A    between atoms: C_1  and  C_14
REMARK    2  A    between atoms: C_2  and  C_6
REMARK    3  A    between atoms: C_15  and  N_20
REMARK                            x       y       z     vdW  Elec       q    Type
REMARK                         _______ _______ _______ _____ _____    ______ ____
ROOT
ATOM      1  C   UNL     1      32.579 -23.918 -14.791  0.00  0.00    +0.037 C 
ATOM      2  C   UNL     1      33.449 -24.284 -13.819  0.00  0.00    +0.036 C 
ENDROOT
BRANCH   2   6
ATOM      3  N   UNL     1      35.369 -23.765 -12.514  0.00  0.00    -0.338 NA
ATOM      4  N   UNL     1      37.466 -23.158 -13.535  0.00  0.00    -0.170 NA
ATOM      5  N   UNL     1      37.246 -23.260 -11.200  0.00  0.00    -0.293 N 
ATOM      6  C   UNL     1      34.846 -23.892 -13.752  0.00  0.00    +0.146 C 
ATOM      7  C   UNL     1      35.560 -23.672 -14.913  0.00  0.00    +0.055 C 
ATOM      8  C   UNL     1      36.879 -23.303 -14.741  0.00  0.00    +0.114 C 
ATOM      9  C   UNL     1      36.666 -23.401 -12.480  0.00  0.00    +0.141 C 
ATOM     10  H   UNL     1      36.707 -23.425 -10.394  0.00  0.00    +0.155 HD
ATOM     11  H   UNL     1      38.192 -22.996 -11.115  0.00  0.00    +0.155 HD
ENDBRANCH   2   6
BRANCH   1  14
ATOM     12  N   UNL     1      30.405 -23.682 -15.753  0.00  0.00    -0.251 N 
ATOM     13  N   UNL     1      30.594 -25.242 -14.183  0.00  0.00    -0.226 NA
ATOM     14  C   UNL     1      31.167 -24.333 -14.867  0.00  0.00    +0.137 C 
ATOM     15  C   UNL     1      29.165 -24.243 -15.631  0.00  0.00    +0.218 C 
ATOM     16  C   UNL     1      30.762 -22.614 -16.663  0.00  0.00    +0.120 C 
ATOM     17  C   UNL     1      29.306 -25.202 -14.657  0.00  0.00    +0.140 C 
BRANCH  15  20
ATOM     18  O   UNL     1      27.831 -24.393 -17.506  0.00  0.00    -0.125 OA
ATOM     19  O   UNL     1      27.280 -22.952 -15.944  0.00  0.00    -0.125 OA
ATOM     20  N   UNL     1      28.054 -23.849 -16.386  0.00  0.00    +0.074 N 
ENDBRANCH  15  20
ENDBRANCH   1  14
TORSDOF 3
ENDMDL
MODEL 7
REMARK VINA RESULT:      -8.3      8.840      9.981
REMARK  Name = 6436171
REMARK  3 active torsions:
REMARK  status: ('A' for Active; 'I' for Inactive)
REMARK    1  A    between atoms: C_1  and  C_14
REMARK    2  A    between atoms: C_2  and  C_6
REMARK    3  A    between atoms: C_15  and  N_20
REMARK                            x       y       z     vdW  Elec       q    Type
REMARK                         _______ _______ _______ _____ _____    ______ ____
ROOT
ATOM      1  C   UNL     1      33.769 -24.280 -14.631  0.00  0.00    +0.037 C 
ATOM      2  C   UNL     1      33.019 -23.480 -15.427  0.00  0.00    +0.036 C 
ENDROOT
BRANCH   2   6
ATOM      3  N   UNL     1      30.965 -24.557 -14.902  0.00  0.00    -0.338 NA
ATOM      4  N   UNL     1      28.884 -23.874 -15.909  0.00  0.00    -0.170 NA
ATOM      5  N   UNL     1      28.954 -25.639 -14.364  0.00  0.00    -0.293 N 
ATOM      6  C   UNL     1      31.583 -23.592 -15.615  0.00  0.00    +0.146 C 
ATOM      7  C   UNL     1      30.929 -22.741 -16.483  0.00  0.00    +0.055 C 
ATOM      8  C   UNL     1      29.566 -22.930 -16.591  0.00  0.00    +0.114 C 
ATOM      9  C   UNL     1      29.634 -24.641 -15.095  0.00  0.00    +0.141 C 
ATOM     10  H   UNL     1      29.452 -26.229 -13.754  0.00  0.00    +0.155 HD
ATOM     11  H   UNL     1      27.979 -25.745 -14.465  0.00  0.00    +0.155 HD
ENDBRANCH   2   6
BRANCH   1  14
ATOM     12  N   UNL     1      35.663 -23.975 -13.207  0.00  0.00    -0.251 N 
ATOM     13  N   UNL     1      36.120 -24.260 -15.362  0.00  0.00    -0.226 NA
ATOM     14  C   UNL     1      35.228 -24.177 -14.456  0.00  0.00    +0.137 C 
ATOM     15  C   UNL     1      37.024 -23.918 -13.312  0.00  0.00    +0.218 C 
ATOM     16  C   UNL     1      34.905 -23.839 -11.981  0.00  0.00    +0.120 C 
ATOM     17  C   UNL     1      37.282 -24.096 -14.651  0.00  0.00    +0.140 C 
BRANCH  15  20
ATOM     18  O   UNL     1      38.289 -22.549 -11.954  0.00  0.00    -0.125 OA
ATOM     19  O   UNL     1      38.245 -24.701 -11.520  0.00  0.00    -0.125 OA
ATOM     20  N   UNL     1      37.882 -23.716 -12.225  0.00  0.00    +0.074 N 
ENDBRANCH  15  20
ENDBRANCH   1  14
TORSDOF 3
ENDMDL
MODEL 8
REMARK VINA RESULT:      -8.2      4.725      7.116
REMARK  Name = 6436171
REMARK  3 active torsions:
REMARK  status: ('A' for Active; 'I' for Inactive)
REMARK    1  A    between atoms: C_1  and  C_14
REMARK    2  A    between atoms: C_2  and  C_6
REMARK    3  A    between atoms: C_15  and  N_20
REMARK                            x       y       z     vdW  Elec       q    Type
REMARK                         _______ _______ _______ _____ _____    ______ ____
ROOT
ATOM      1  C   UNL     1      36.288 -22.949 -16.238  0.00  0.00    +0.037 C 
ATOM      2  C   UNL     1      36.794 -22.268 -17.294  0.00  0.00    +0.036 C 
ENDROOT
BRANCH   2   6
ATOM      3  N   UNL     1      36.614 -20.697 -19.071  0.00  0.00    -0.338 NA
ATOM      4  N   UNL     1      34.606 -20.501 -20.389  0.00  0.00    -0.170 NA
ATOM      5  N   UNL     1      36.467 -19.138 -20.818  0.00  0.00    -0.293 N 
ATOM      6  C   UNL     1      36.009 -21.673 -18.362  0.00  0.00    +0.146 C 
ATOM      7  C   UNL     1      34.723 -22.112 -18.604  0.00  0.00    +0.055 C 
ATOM      8  C   UNL     1      34.062 -21.484 -19.640  0.00  0.00    +0.114 C 
ATOM      9  C   UNL     1      35.865 -20.162 -20.055  0.00  0.00    +0.141 C 
ATOM     10  H   UNL     1      37.386 -18.850 -20.618  0.00  0.00    +0.155 HD
ATOM     11  H   UNL     1      35.966 -18.712 -21.552  0.00  0.00    +0.155 HD
ENDBRANCH   2   6
BRANCH   1  14
ATOM     12  N   UNL     1      36.417 -23.950 -14.072  0.00  0.00    -0.251 N 
ATOM     13  N   UNL     1      38.343 -23.779 -15.165  0.00  0.00    -0.226 NA
ATOM     14  C   UNL     1      37.086 -23.568 -15.165  0.00  0.00    +0.137 C 
ATOM     15  C   UNL     1      37.365 -24.483 -13.245  0.00  0.00    +0.218 C 
ATOM     16  C   UNL     1      35.003 -23.846 -13.777  0.00  0.00    +0.120 C 
ATOM     17  C   UNL     1      38.545 -24.366 -13.940  0.00  0.00    +0.140 C 
BRANCH  15  20
ATOM     18  O   UNL     1      37.115 -24.253 -10.964  0.00  0.00    -0.125 OA
ATOM     19  O   UNL     1      36.812 -26.237 -11.854  0.00  0.00    -0.125 OA
ATOM     20  N   UNL     1      37.088 -25.009 -11.978  0.00  0.00    +0.074 N 
ENDBRANCH  15  20
ENDBRANCH   1  14
TORSDOF 3
ENDMDL
MODEL 9
REMARK VINA RESULT:      -8.1      9.069      9.975
REMARK  Name = 6436171
REMARK  3 active torsions:
REMARK  status: ('A' for Active; 'I' for Inactive)
REMARK    1  A    between atoms: C_1  and  C_14
REMARK    2  A    between atoms: C_2  and  C_6
REMARK    3  A    between atoms: C_15  and  N_20
REMARK                            x       y       z     vdW  Elec       q    Type
REMARK                         _______ _______ _______ _____ _____    ______ ____
ROOT
ATOM      1  C   UNL     1      33.881 -24.483 -14.663  0.00  0.00    +0.037 C 
ATOM      2  C   UNL     1      32.905 -23.574 -14.900  0.00  0.00    +0.036 C 
ENDROOT
BRANCH   2   6
ATOM      3  N   UNL     1      30.843 -23.099 -15.988  0.00  0.00    -0.338 NA
ATOM      4  N   UNL     1      28.861 -24.404 -15.568  0.00  0.00    -0.170 NA
ATOM      5  N   UNL     1      28.825 -22.607 -17.077  0.00  0.00    -0.293 N 
ATOM      6  C   UNL     1      31.502 -23.887 -15.111  0.00  0.00    +0.146 C 
ATOM      7  C   UNL     1      30.916 -24.937 -14.434  0.00  0.00    +0.055 C 
ATOM      8  C   UNL     1      29.580 -25.151 -14.704  0.00  0.00    +0.114 C 
ATOM      9  C   UNL     1      29.544 -23.410 -16.166  0.00  0.00    +0.141 C 
ATOM     10  H   UNL     1      29.274 -21.866 -17.542  0.00  0.00    +0.155 HD
ATOM     11  H   UNL     1      27.871 -22.789 -17.247  0.00  0.00    +0.155 HD
ENDBRANCH   2   6
BRANCH   1  14
ATOM     12  N   UNL     1      35.716 -24.025 -13.202  0.00  0.00    -0.251 N 
ATOM     13  N   UNL     1      36.191 -24.013 -15.372  0.00  0.00    -0.226 NA
ATOM     14  C   UNL     1      35.307 -24.166 -14.468  0.00  0.00    +0.137 C 
ATOM     15  C   UNL     1      37.049 -23.740 -13.292  0.00  0.00    +0.218 C 
ATOM     16  C   UNL     1      34.958 -24.137 -11.974  0.00  0.00    +0.120 C 
ATOM     17  C   UNL     1      37.320 -23.738 -14.639  0.00  0.00    +0.140 C 
BRANCH  15  20
ATOM     18  O   UNL     1      38.251 -24.491 -11.472  0.00  0.00    -0.125 OA
ATOM     19  O   UNL     1      38.237 -22.338 -11.899  0.00  0.00    -0.125 OA
ATOM     20  N   UNL     1      37.874 -23.515 -12.184  0.00  0.00    +0.074 N 
ENDBRANCH  15  20
ENDBRANCH   1  14
TORSDOF 3
ENDMDL
