MODEL 1
REMARK VINA RESULT:     -10.2      0.000      0.000
REMARK  Name = 448953
REMARK  10 active torsions:
REMARK  status: ('A' for Active; 'I' for Inactive)
REMARK    1  A    between atoms: C_1  and  C_9
REMARK    2  A    between atoms: C_1  and  N_11
REMARK    3  A    between atoms: C_1  and  C_26
REMARK    4  A    between atoms: C_12  and  C_14
REMARK    5  A    between atoms: C_14  and  N_15
REMARK    6  A    between atoms: N_15  and  S_17
REMARK    7  A    between atoms: S_17  and  C_20
REMARK    8  A    between atoms: C_26  and  C_27
REMARK    9  A    between atoms: C_27  and  N_28
REMARK   10  A    between atoms: N_28  and  C_31
REMARK                            x       y       z     vdW  Elec       q    Type
REMARK                         _______ _______ _______ _____ _____    ______ ____
ROOT
ATOM      1  C   UNL     1      33.409 -13.377 -22.646  0.00  0.00    +0.150 C 
ENDROOT
BRANCH   1   9
ATOM      2  O   UNL     1      33.326 -14.474 -24.745  0.00  0.00    -0.273 OA
ATOM      3  N   UNL     1      33.735 -12.186 -24.786  0.00  0.00    -0.278 N 
ATOM      4  C   UNL     1      33.825 -12.131 -26.247  0.00  0.00    +0.093 C 
ATOM      5  C   UNL     1      33.882 -10.891 -24.111  0.00  0.00    +0.093 C 
ATOM      6  C   UNL     1      35.133 -11.482 -26.689  0.00  0.00    +0.022 C 
ATOM      7  C   UNL     1      35.193 -10.217 -24.513  0.00  0.00    +0.022 C 
ATOM      8  C   UNL     1      35.322 -10.116 -26.032  0.00  0.00    +0.004 C 
ATOM      9  C   UNL     1      33.484 -13.403 -24.153  0.00  0.00    +0.244 C 
ENDBRANCH   1   9
BRANCH   1  11
ATOM     10  O   UNL     1      34.943 -14.209 -20.334  0.00  0.00    -0.274 OA
ATOM     11  N   UNL     1      33.752 -14.717 -22.266  0.00  0.00    -0.297 N 
ATOM     12  C   UNL     1      34.497 -15.031 -21.131  0.00  0.00    +0.241 C 
ATOM     13  H   UNL     1      33.442 -15.456 -22.838  0.00  0.00    +0.150 HD
BRANCH  12  14
ATOM     14  C   UNL     1      34.696 -16.518 -20.985  0.00  0.00    +0.176 C 
BRANCH  14  15
ATOM     15  N   UNL     1      34.778 -17.139 -22.314  0.00  0.00    -0.174 NA
ATOM     16  H   UNL     1      33.825 -17.204 -22.672  0.00  0.00    +0.149 HD
BRANCH  15  17
ATOM     17  S   UNL     1      35.475 -18.691 -22.471  0.00  0.00    +0.039 S 
ATOM     18  O   UNL     1      36.921 -18.588 -22.407  0.00  0.00    -0.158 OA
ATOM     19  O   UNL     1      34.830 -19.379 -23.572  0.00  0.00    -0.158 OA
BRANCH  17  20
ATOM     20  C   UNL     1      34.916 -19.451 -20.971  0.00  0.00    +0.146 C 
ATOM     21  C   UNL     1      33.464 -19.910 -21.113  0.00  0.00    +0.025 C 
ATOM     22  C   UNL     1      35.835 -20.609 -20.584  0.00  0.00    +0.025 C 
ATOM     23  C   UNL     1      32.975 -20.621 -19.855  0.00  0.00    +0.002 C 
ATOM     24  C   UNL     1      35.343 -21.319 -19.325  0.00  0.00    +0.002 C 
ATOM     25  C   UNL     1      33.894 -21.776 -19.466  0.00  0.00    +0.000 C 
ENDBRANCH  17  20
ENDBRANCH  15  17
ENDBRANCH  14  15
ENDBRANCH  12  14
ENDBRANCH   1  11
BRANCH   1  26
ATOM     26  C   UNL     1      32.013 -12.969 -22.194  0.00  0.00    +0.050 C 
BRANCH  26  27
ATOM     27  C   UNL     1      32.006 -12.219 -20.862  0.00  0.00    +0.089 C 
BRANCH  27  28
ATOM     28  N   UNL     1      31.142 -11.064 -20.930  0.00  0.00    -0.333 N 
ATOM     29  H   UNL     1      30.172 -11.203 -20.826  0.00  0.00    +0.147 HD
BRANCH  28  31
ATOM     30  N   UNL     1      32.503  -7.228 -21.535  0.00  0.00    -0.328 N 
ATOM     31  C   UNL     1      31.601  -9.772 -21.133  0.00  0.00    +0.043 C 
ATOM     32  C   UNL     1      32.184  -9.067 -20.086  0.00  0.00    +0.009 C 
ATOM     33  C   UNL     1      31.477  -9.179 -22.386  0.00  0.00    +0.030 C 
ATOM     34  C   UNL     1      32.635  -7.775 -20.319  0.00  0.00    +0.115 C 
ATOM     35  C   UNL     1      31.946  -7.884 -22.561  0.00  0.00    +0.059 C 
ATOM     36  H   UNL     1      32.829  -6.309 -21.679  0.00  0.00    +0.147 HD
ENDBRANCH  28  31
ENDBRANCH  27  28
ENDBRANCH  26  27
ENDBRANCH   1  26
TORSDOF 10
ENDMDL
MODEL 2
REMARK VINA RESULT:     -10.1      8.025     13.367
REMARK  Name = 448953
REMARK  10 active torsions:
REMARK  status: ('A' for Active; 'I' for Inactive)
REMARK    1  A    between atoms: C_1  and  C_9
REMARK    2  A    between atoms: C_1  and  N_11
REMARK    3  A    between atoms: C_1  and  C_26
REMARK    4  A    between atoms: C_12  and  C_14
REMARK    5  A    between atoms: C_14  and  N_15
REMARK    6  A    between atoms: N_15  and  S_17
REMARK    7  A    between atoms: S_17  and  C_20
REMARK    8  A    between atoms: C_26  and  C_27
REMARK    9  A    between atoms: C_27  and  N_28
REMARK   10  A    between atoms: N_28  and  C_31
REMARK                            x       y       z     vdW  Elec       q    Type
REMARK                         _______ _______ _______ _____ _____    ______ ____
ROOT
ATOM      1  C   UNL     1      34.111 -24.305 -13.744  0.00  0.00    +0.150 C 
ENDROOT
BRANCH   1   9
ATOM      2  O   UNL     1      34.866 -23.616 -11.606  0.00  0.00    -0.273 OA
ATOM      3  N   UNL     1      36.309 -24.966 -12.830  0.00  0.00    -0.278 N 
ATOM      4  C   UNL     1      37.342 -24.969 -11.792  0.00  0.00    +0.093 C 
ATOM      5  C   UNL     1      36.623 -25.778 -14.013  0.00  0.00    +0.093 C 
ATOM      6  C   UNL     1      38.687 -24.527 -12.360  0.00  0.00    +0.022 C 
ATOM      7  C   UNL     1      37.956 -25.351 -14.624  0.00  0.00    +0.022 C 
ATOM      8  C   UNL     1      39.073 -25.360 -13.581  0.00  0.00    +0.004 C 
ATOM      9  C   UNL     1      35.123 -24.261 -12.627  0.00  0.00    +0.244 C 
ENDBRANCH   1   9
BRANCH   1  11
ATOM     10  O   UNL     1      34.757 -24.550 -16.557  0.00  0.00    -0.274 OA
ATOM     11  N   UNL     1      34.540 -23.264 -14.632  0.00  0.00    -0.297 N 
ATOM     12  C   UNL     1      34.831 -23.468 -15.980  0.00  0.00    +0.241 C 
ATOM     13  H   UNL     1      34.632 -22.353 -14.270  0.00  0.00    +0.150 HD
BRANCH  12  14
ATOM     14  C   UNL     1      35.251 -22.192 -16.662  0.00  0.00    +0.176 C 
BRANCH  14  15
ATOM     15  N   UNL     1      35.431 -22.437 -18.100  0.00  0.00    -0.174 NA
ATOM     16  H   UNL     1      36.026 -21.689 -18.458  0.00  0.00    +0.149 HD
BRANCH  15  17
ATOM     17  S   UNL     1      34.059 -22.510 -19.115  0.00  0.00    +0.039 S 
ATOM     18  O   UNL     1      32.887 -22.060 -18.389  0.00  0.00    -0.158 OA
ATOM     19  O   UNL     1      34.059 -23.787 -19.803  0.00  0.00    -0.158 OA
BRANCH  17  20
ATOM     20  C   UNL     1      34.472 -21.266 -20.308  0.00  0.00    +0.146 C 
ATOM     21  C   UNL     1      33.361 -20.219 -20.395  0.00  0.00    +0.025 C 
ATOM     22  C   UNL     1      35.819 -20.626 -19.968  0.00  0.00    +0.025 C 
ATOM     23  C   UNL     1      33.718 -19.103 -21.374  0.00  0.00    +0.002 C 
ATOM     24  C   UNL     1      36.173 -19.511 -20.948  0.00  0.00    +0.002 C 
ATOM     25  C   UNL     1      35.063 -18.467 -21.037  0.00  0.00    +0.000 C 
ENDBRANCH  17  20
ENDBRANCH  15  17
ENDBRANCH  14  15
ENDBRANCH  12  14
ENDBRANCH   1  11
BRANCH   1  26
ATOM     26  C   UNL     1      32.708 -24.079 -13.194  0.00  0.00    +0.050 C 
BRANCH  26  27
ATOM     27  C   UNL     1      31.730 -25.195 -13.560  0.00  0.00    +0.089 C 
BRANCH  27  28
ATOM     28  N   UNL     1      30.385 -24.682 -13.667  0.00  0.00    -0.333 N 
ATOM     29  H   UNL     1      29.808 -24.724 -12.870  0.00  0.00    +0.147 HD
BRANCH  28  31
ATOM     30  N   UNL     1      28.827 -23.060 -17.113  0.00  0.00    -0.328 N 
ATOM     31  C   UNL     1      29.861 -24.135 -14.827  0.00  0.00    +0.043 C 
ATOM     32  C   UNL     1      30.372 -22.943 -15.328  0.00  0.00    +0.009 C 
ATOM     33  C   UNL     1      28.822 -24.779 -15.492  0.00  0.00    +0.030 C 
ATOM     34  C   UNL     1      29.826 -22.419 -16.492  0.00  0.00    +0.115 C 
ATOM     35  C   UNL     1      28.316 -24.209 -16.653  0.00  0.00    +0.059 C 
ATOM     36  H   UNL     1      28.454 -22.670 -17.937  0.00  0.00    +0.147 HD
ENDBRANCH  28  31
ENDBRANCH  27  28
ENDBRANCH  26  27
ENDBRANCH   1  26
TORSDOF 10
ENDMDL
MODEL 3
REMARK VINA RESULT:      -9.7      5.476     12.644
REMARK  Name = 448953
REMARK  10 active torsions:
REMARK  status: ('A' for Active; 'I' for Inactive)
REMARK    1  A    between atoms: C_1  and  C_9
REMARK    2  A    between atoms: C_1  and  N_11
REMARK    3  A    between atoms: C_1  and  C_26
REMARK    4  A    between atoms: C_12  and  C_14
REMARK    5  A    between atoms: C_14  and  N_15
REMARK    6  A    between atoms: N_15  and  S_17
REMARK    7  A    between atoms: S_17  and  C_20
REMARK    8  A    between atoms: C_26  and  C_27
REMARK    9  A    between atoms: C_27  and  N_28
REMARK   10  A    between atoms: N_28  and  C_31
REMARK                            x       y       z     vdW  Elec       q    Type
REMARK                         _______ _______ _______ _____ _____    ______ ____
ROOT
ATOM      1  C   UNL     1      35.772 -22.847 -17.007  0.00  0.00    +0.150 C 
ENDROOT
BRANCH   1   9
ATOM      2  O   UNL     1      37.625 -21.947 -15.838  0.00  0.00    -0.273 OA
ATOM      3  N   UNL     1      36.832 -24.003 -15.099  0.00  0.00    -0.278 N 
ATOM      4  C   UNL     1      37.829 -24.113 -14.031  0.00  0.00    +0.093 C 
ATOM      5  C   UNL     1      35.869 -25.110 -15.158  0.00  0.00    +0.093 C 
ATOM      6  C   UNL     1      38.589 -25.433 -14.129  0.00  0.00    +0.022 C 
ATOM      7  C   UNL     1      36.592 -26.450 -15.276  0.00  0.00    +0.022 C 
ATOM      8  C   UNL     1      37.630 -26.621 -14.168  0.00  0.00    +0.004 C 
ATOM      9  C   UNL     1      36.828 -22.884 -15.931  0.00  0.00    +0.244 C 
ENDBRANCH   1   9
BRANCH   1  11
ATOM     10  O   UNL     1      35.168 -22.460 -19.814  0.00  0.00    -0.274 OA
ATOM     11  N   UNL     1      36.174 -21.751 -17.841  0.00  0.00    -0.297 N 
ATOM     12  C   UNL     1      35.838 -21.641 -19.189  0.00  0.00    +0.241 C 
ATOM     13  H   UNL     1      36.716 -21.035 -17.437  0.00  0.00    +0.150 HD
BRANCH  12  14
ATOM     14  C   UNL     1      36.394 -20.384 -19.805  0.00  0.00    +0.176 C 
BRANCH  14  15
ATOM     15  N   UNL     1      35.307 -19.615 -20.427  0.00  0.00    -0.174 NA
ATOM     16  H   UNL     1      34.502 -20.238 -20.494  0.00  0.00    +0.149 HD
BRANCH  15  17
ATOM     17  S   UNL     1      35.543 -18.939 -21.979  0.00  0.00    +0.039 S 
ATOM     18  O   UNL     1      34.939 -19.794 -22.983  0.00  0.00    -0.158 OA
ATOM     19  O   UNL     1      36.927 -18.521 -22.096  0.00  0.00    -0.158 OA
BRANCH  17  20
ATOM     20  C   UNL     1      34.556 -17.473 -21.846  0.00  0.00    +0.146 C 
ATOM     21  C   UNL     1      35.009 -16.630 -20.653  0.00  0.00    +0.025 C 
ATOM     22  C   UNL     1      34.609 -16.674 -23.148  0.00  0.00    +0.025 C 
ATOM     23  C   UNL     1      34.214 -15.331 -20.551  0.00  0.00    +0.002 C 
ATOM     24  C   UNL     1      33.813 -15.376 -23.043  0.00  0.00    +0.002 C 
ATOM     25  C   UNL     1      34.263 -14.535 -21.852  0.00  0.00    +0.000 C 
ENDBRANCH  17  20
ENDBRANCH  15  17
ENDBRANCH  14  15
ENDBRANCH  12  14
ENDBRANCH   1  11
BRANCH   1  26
ATOM     26  C   UNL     1      34.394 -22.650 -16.387  0.00  0.00    +0.050 C 
BRANCH  26  27
ATOM     27  C   UNL     1      33.297 -23.450 -17.090  0.00  0.00    +0.089 C 
BRANCH  27  28
ATOM     28  N   UNL     1      31.993 -23.061 -16.609  0.00  0.00    -0.333 N 
ATOM     29  H   UNL     1      31.603 -22.224 -16.953  0.00  0.00    +0.147 HD
BRANCH  28  31
ATOM     30  N   UNL     1      29.813 -25.245 -13.886  0.00  0.00    -0.328 N 
ATOM     31  C   UNL     1      31.259 -23.797 -15.692  0.00  0.00    +0.043 C 
ATOM     32  C   UNL     1      31.864 -24.262 -14.529  0.00  0.00    +0.009 C 
ATOM     33  C   UNL     1      29.917 -24.070 -15.933  0.00  0.00    +0.030 C 
ATOM     34  C   UNL     1      31.105 -24.996 -13.628  0.00  0.00    +0.115 C 
ATOM     35  C   UNL     1      29.206 -24.809 -14.997  0.00  0.00    +0.059 C 
ATOM     36  H   UNL     1      29.293 -25.769 -13.234  0.00  0.00    +0.147 HD
ENDBRANCH  28  31
ENDBRANCH  27  28
ENDBRANCH  26  27
ENDBRANCH   1  26
TORSDOF 10
ENDMDL
MODEL 4
REMARK VINA RESULT:      -9.2      5.491     12.729
REMARK  Name = 448953
REMARK  10 active torsions:
REMARK  status: ('A' for Active; 'I' for Inactive)
REMARK    1  A    between atoms: C_1  and  C_9
REMARK    2  A    between atoms: C_1  and  N_11
REMARK    3  A    between atoms: C_1  and  C_26
REMARK    4  A    between atoms: C_12  and  C_14
REMARK    5  A    between atoms: C_14  and  N_15
REMARK    6  A    between atoms: N_15  and  S_17
REMARK    7  A    between atoms: S_17  and  C_20
REMARK    8  A    between atoms: C_26  and  C_27
REMARK    9  A    between atoms: C_27  and  N_28
REMARK   10  A    between atoms: N_28  and  C_31
REMARK                            x       y       z     vdW  Elec       q    Type
REMARK                         _______ _______ _______ _____ _____    ______ ____
ROOT
ATOM      1  C   UNL     1      34.488 -22.460 -17.224  0.00  0.00    +0.150 C 
ENDROOT
BRANCH   1   9
ATOM      2  O   UNL     1      32.664 -22.792 -18.700  0.00  0.00    -0.273 OA
ATOM      3  N   UNL     1      32.301 -23.324 -16.467  0.00  0.00    -0.278 N 
ATOM      4  C   UNL     1      30.914 -23.739 -16.691  0.00  0.00    +0.093 C 
ATOM      5  C   UNL     1      32.771 -23.472 -15.084  0.00  0.00    +0.093 C 
ATOM      6  C   UNL     1      29.964 -22.996 -15.756  0.00  0.00    +0.022 C 
ATOM      7  C   UNL     1      31.856 -22.724 -14.117  0.00  0.00    +0.022 C 
ATOM      8  C   UNL     1      30.397 -23.142 -14.299  0.00  0.00    +0.004 C 
ATOM      9  C   UNL     1      33.071 -22.872 -17.538  0.00  0.00    +0.244 C 
ENDBRANCH   1   9
BRANCH   1  11
ATOM     10  O   UNL     1      36.943 -21.008 -17.725  0.00  0.00    -0.274 OA
ATOM     11  N   UNL     1      35.012 -22.049 -18.494  0.00  0.00    -0.297 N 
ATOM     12  C   UNL     1      36.207 -21.350 -18.648  0.00  0.00    +0.241 C 
ATOM     13  H   UNL     1      34.498 -22.274 -19.304  0.00  0.00    +0.150 HD
BRANCH  12  14
ATOM     14  C   UNL     1      36.505 -21.059 -20.096  0.00  0.00    +0.176 C 
BRANCH  14  15
ATOM     15  N   UNL     1      36.200 -19.652 -20.390  0.00  0.00    -0.174 NA
ATOM     16  H   UNL     1      36.036 -19.189 -19.496  0.00  0.00    +0.149 HD
BRANCH  15  17
ATOM     17  S   UNL     1      34.871 -19.276 -21.397  0.00  0.00    +0.039 S 
ATOM     18  O   UNL     1      33.638 -19.383 -20.641  0.00  0.00    -0.158 OA
ATOM     19  O   UNL     1      35.032 -19.978 -22.656  0.00  0.00    -0.158 OA
BRANCH  17  20
ATOM     20  C   UNL     1      35.175 -17.558 -21.706  0.00  0.00    +0.146 C 
ATOM     21  C   UNL     1      34.790 -17.196 -23.141  0.00  0.00    +0.025 C 
ATOM     22  C   UNL     1      34.428 -16.692 -20.691  0.00  0.00    +0.025 C 
ATOM     23  C   UNL     1      34.986 -15.708 -23.416  0.00  0.00    +0.002 C 
ATOM     24  C   UNL     1      34.627 -15.204 -20.968  0.00  0.00    +0.002 C 
ATOM     25  C   UNL     1      34.244 -14.844 -22.401  0.00  0.00    +0.000 C 
ENDBRANCH  17  20
ENDBRANCH  15  17
ENDBRANCH  14  15
ENDBRANCH  12  14
ENDBRANCH   1  11
BRANCH   1  26
ATOM     26  C   UNL     1      35.254 -23.628 -16.614  0.00  0.00    +0.050 C 
BRANCH  26  27
ATOM     27  C   UNL     1      36.172 -23.211 -15.465  0.00  0.00    +0.089 C 
BRANCH  27  28
ATOM     28  N   UNL     1      37.542 -23.564 -15.752  0.00  0.00    -0.333 N 
ATOM     29  H   UNL     1      37.965 -23.172 -16.550  0.00  0.00    +0.147 HD
BRANCH  28  31
ATOM     30  N   UNL     1      39.776 -26.118 -13.423  0.00  0.00    -0.328 N 
ATOM     31  C   UNL     1      38.295 -24.424 -14.968  0.00  0.00    +0.043 C 
ATOM     32  C   UNL     1      39.571 -24.800 -15.374  0.00  0.00    +0.009 C 
ATOM     33  C   UNL     1      37.775 -24.913 -13.773  0.00  0.00    +0.030 C 
ATOM     34  C   UNL     1      40.302 -25.663 -14.568  0.00  0.00    +0.115 C 
ATOM     35  C   UNL     1      38.551 -25.772 -13.008  0.00  0.00    +0.059 C 
ATOM     36  H   UNL     1      40.312 -26.730 -12.866  0.00  0.00    +0.147 HD
ENDBRANCH  28  31
ENDBRANCH  27  28
ENDBRANCH  26  27
ENDBRANCH   1  26
TORSDOF 10
ENDMDL
MODEL 5
REMARK VINA RESULT:      -8.9      7.602     12.428
REMARK  Name = 448953
REMARK  10 active torsions:
REMARK  status: ('A' for Active; 'I' for Inactive)
REMARK    1  A    between atoms: C_1  and  C_9
REMARK    2  A    between atoms: C_1  and  N_11
REMARK    3  A    between atoms: C_1  and  C_26
REMARK    4  A    between atoms: C_12  and  C_14
REMARK    5  A    between atoms: C_14  and  N_15
REMARK    6  A    between atoms: N_15  and  S_17
REMARK    7  A    between atoms: S_17  and  C_20
REMARK    8  A    between atoms: C_26  and  C_27
REMARK    9  A    between atoms: C_27  and  N_28
REMARK   10  A    between atoms: N_28  and  C_31
REMARK                            x       y       z     vdW  Elec       q    Type
REMARK                         _______ _______ _______ _____ _____    ______ ____
ROOT
ATOM      1  C   UNL     1      33.407 -23.485 -17.162  0.00  0.00    +0.150 C 
ENDROOT
BRANCH   1   9
ATOM      2  O   UNL     1      31.400 -22.262 -17.462  0.00  0.00    -0.273 OA
ATOM      3  N   UNL     1      31.372 -23.918 -15.831  0.00  0.00    -0.278 N 
ATOM      4  C   UNL     1      29.979 -23.661 -15.458  0.00  0.00    +0.093 C 
ATOM      5  C   UNL     1      32.010 -25.022 -15.104  0.00  0.00    +0.093 C 
ATOM      6  C   UNL     1      29.853 -23.412 -13.958  0.00  0.00    +0.022 C 
ATOM      7  C   UNL     1      31.923 -24.800 -13.595  0.00  0.00    +0.022 C 
ATOM      8  C   UNL     1      30.481 -24.549 -13.154  0.00  0.00    +0.004 C 
ATOM      9  C   UNL     1      31.970 -23.161 -16.838  0.00  0.00    +0.244 C 
ENDBRANCH   1   9
BRANCH   1  11
ATOM     10  O   UNL     1      35.618 -24.761 -15.793  0.00  0.00    -0.274 OA
ATOM     11  N   UNL     1      34.131 -22.989 -16.027  0.00  0.00    -0.297 N 
ATOM     12  C   UNL     1      35.188 -23.671 -15.427  0.00  0.00    +0.241 C 
ATOM     13  H   UNL     1      33.867 -22.118 -15.652  0.00  0.00    +0.150 HD
BRANCH  12  14
ATOM     14  C   UNL     1      35.758 -22.906 -14.260  0.00  0.00    +0.176 C 
BRANCH  14  15
ATOM     15  N   UNL     1      35.346 -23.544 -13.002  0.00  0.00    -0.174 NA
ATOM     16  H   UNL     1      34.560 -23.005 -12.638  0.00  0.00    +0.149 HD
BRANCH  15  17
ATOM     17  S   UNL     1      36.477 -23.694 -11.730  0.00  0.00    +0.039 S 
ATOM     18  O   UNL     1      35.825 -24.240 -10.555  0.00  0.00    -0.158 OA
ATOM     19  O   UNL     1      37.247 -22.468 -11.648  0.00  0.00    -0.158 OA
BRANCH  17  20
ATOM     20  C   UNL     1      37.543 -24.946 -12.393  0.00  0.00    +0.146 C 
ATOM     21  C   UNL     1      36.754 -25.904 -13.285  0.00  0.00    +0.025 C 
ATOM     22  C   UNL     1      38.709 -24.309 -13.149  0.00  0.00    +0.025 C 
ATOM     23  C   UNL     1      37.659 -26.958 -13.916  0.00  0.00    +0.002 C 
ATOM     24  C   UNL     1      39.613 -25.365 -13.779  0.00  0.00    +0.002 C 
ATOM     25  C   UNL     1      38.825 -26.322 -14.668  0.00  0.00    +0.000 C 
ENDBRANCH  17  20
ENDBRANCH  15  17
ENDBRANCH  14  15
ENDBRANCH  12  14
ENDBRANCH   1  11
BRANCH   1  26
ATOM     26  C   UNL     1      33.818 -22.816 -18.468  0.00  0.00    +0.050 C 
BRANCH  26  27
ATOM     27  C   UNL     1      35.159 -22.087 -18.377  0.00  0.00    +0.089 C 
BRANCH  27  28
ATOM     28  N   UNL     1      35.643 -21.741 -19.692  0.00  0.00    -0.333 N 
ATOM     29  H   UNL     1      36.180 -22.408 -20.179  0.00  0.00    +0.147 HD
BRANCH  28  31
ATOM     30  N   UNL     1      34.905 -18.128 -21.519  0.00  0.00    -0.328 N 
ATOM     31  C   UNL     1      35.395 -20.524 -20.307  0.00  0.00    +0.043 C 
ATOM     32  C   UNL     1      36.453 -19.695 -20.663  0.00  0.00    +0.009 C 
ATOM     33  C   UNL     1      34.086 -20.130 -20.569  0.00  0.00    +0.030 C 
ATOM     34  C   UNL     1      36.174 -18.482 -21.279  0.00  0.00    +0.115 C 
ATOM     35  C   UNL     1      33.867 -18.907 -21.187  0.00  0.00    +0.059 C 
ATOM     36  H   UNL     1      34.729 -17.263 -21.956  0.00  0.00    +0.147 HD
ENDBRANCH  28  31
ENDBRANCH  27  28
ENDBRANCH  26  27
ENDBRANCH   1  26
TORSDOF 10
ENDMDL
MODEL 6
REMARK VINA RESULT:      -8.9      8.469     12.931
REMARK  Name = 448953
REMARK  10 active torsions:
REMARK  status: ('A' for Active; 'I' for Inactive)
REMARK    1  A    between atoms: C_1  and  C_9
REMARK    2  A    between atoms: C_1  and  N_11
REMARK    3  A    between atoms: C_1  and  C_26
REMARK    4  A    between atoms: C_12  and  C_14
REMARK    5  A    between atoms: C_14  and  N_15
REMARK    6  A    between atoms: N_15  and  S_17
REMARK    7  A    between atoms: S_17  and  C_20
REMARK    8  A    between atoms: C_26  and  C_27
REMARK    9  A    between atoms: C_27  and  N_28
REMARK   10  A    between atoms: N_28  and  C_31
REMARK                            x       y       z     vdW  Elec       q    Type
REMARK                         _______ _______ _______ _____ _____    ______ ____
ROOT
ATOM      1  C   UNL     1      36.499 -22.795 -15.630  0.00  0.00    +0.150 C 
ENDROOT
BRANCH   1   9
ATOM      2  O   UNL     1      36.685 -25.149 -15.822  0.00  0.00    -0.273 OA
ATOM      3  N   UNL     1      37.410 -24.211 -13.823  0.00  0.00    -0.278 N 
ATOM      4  C   UNL     1      37.793 -25.502 -13.245  0.00  0.00    +0.093 C 
ATOM      5  C   UNL     1      37.684 -23.049 -12.969  0.00  0.00    +0.093 C 
ATOM      6  C   UNL     1      37.129 -25.710 -11.887  0.00  0.00    +0.022 C 
ATOM      7  C   UNL     1      37.017 -23.210 -11.604  0.00  0.00    +0.022 C 
ATOM      8  C   UNL     1      37.406 -24.536 -10.950  0.00  0.00    +0.004 C 
ATOM      9  C   UNL     1      36.871 -24.160 -15.108  0.00  0.00    +0.244 C 
ENDBRANCH   1   9
BRANCH   1  11
ATOM     10  O   UNL     1      34.348 -23.486 -13.817  0.00  0.00    -0.274 OA
ATOM     11  N   UNL     1      35.104 -22.918 -15.942  0.00  0.00    -0.297 N 
ATOM     12  C   UNL     1      34.130 -23.256 -15.004  0.00  0.00    +0.241 C 
ATOM     13  H   UNL     1      34.819 -22.753 -16.870  0.00  0.00    +0.150 HD
BRANCH  12  14
ATOM     14  C   UNL     1      32.755 -23.305 -15.618  0.00  0.00    +0.176 C 
BRANCH  14  15
ATOM     15  N   UNL     1      31.749 -22.948 -14.608  0.00  0.00    -0.174 NA
ATOM     16  H   UNL     1      32.246 -22.507 -13.835  0.00  0.00    +0.149 HD
BRANCH  15  17
ATOM     17  S   UNL     1      30.768 -24.174 -13.934  0.00  0.00    +0.039 S 
ATOM     18  O   UNL     1      30.493 -23.871 -12.542  0.00  0.00    -0.158 OA
ATOM     19  O   UNL     1      31.309 -25.463 -14.318  0.00  0.00    -0.158 OA
BRANCH  17  20
ATOM     20  C   UNL     1      29.271 -23.933 -14.851  0.00  0.00    +0.146 C 
ATOM     21  C   UNL     1      29.001 -22.441 -15.051  0.00  0.00    +0.025 C 
ATOM     22  C   UNL     1      29.338 -24.674 -16.187  0.00  0.00    +0.025 C 
ATOM     23  C   UNL     1      27.748 -22.206 -15.890  0.00  0.00    +0.002 C 
ATOM     24  C   UNL     1      28.084 -24.436 -17.023  0.00  0.00    +0.002 C 
ATOM     25  C   UNL     1      27.813 -22.948 -17.221  0.00  0.00    +0.000 C 
ENDBRANCH  17  20
ENDBRANCH  15  17
ENDBRANCH  14  15
ENDBRANCH  12  14
ENDBRANCH   1  11
BRANCH   1  26
ATOM     26  C   UNL     1      37.351 -22.443 -16.844  0.00  0.00    +0.050 C 
BRANCH  26  27
ATOM     27  C   UNL     1      36.784 -21.284 -17.663  0.00  0.00    +0.089 C 
BRANCH  27  28
ATOM     28  N   UNL     1      36.294 -21.750 -18.938  0.00  0.00    -0.333 N 
ATOM     29  H   UNL     1      36.657 -22.594 -19.294  0.00  0.00    +0.147 HD
BRANCH  28  31
ATOM     30  N   UNL     1      33.466 -19.757 -21.167  0.00  0.00    -0.328 N 
ATOM     31  C   UNL     1      35.342 -21.078 -19.689  0.00  0.00    +0.043 C 
ATOM     32  C   UNL     1      35.736 -20.122 -20.618  0.00  0.00    +0.009 C 
ATOM     33  C   UNL     1      33.991 -21.360 -19.513  0.00  0.00    +0.030 C 
ATOM     34  C   UNL     1      34.760 -19.465 -21.356  0.00  0.00    +0.115 C 
ATOM     35  C   UNL     1      33.060 -20.673 -20.279  0.00  0.00    +0.059 C 
ATOM     36  H   UNL     1      32.790 -19.278 -21.701  0.00  0.00    +0.147 HD
ENDBRANCH  28  31
ENDBRANCH  27  28
ENDBRANCH  26  27
ENDBRANCH   1  26
TORSDOF 10
ENDMDL
MODEL 7
REMARK VINA RESULT:      -8.9      3.048      5.862
REMARK  Name = 448953
REMARK  10 active torsions:
REMARK  status: ('A' for Active; 'I' for Inactive)
REMARK    1  A    between atoms: C_1  and  C_9
REMARK    2  A    between atoms: C_1  and  N_11
REMARK    3  A    between atoms: C_1  and  C_26
REMARK    4  A    between atoms: C_12  and  C_14
REMARK    5  A    between atoms: C_14  and  N_15
REMARK    6  A    between atoms: N_15  and  S_17
REMARK    7  A    between atoms: S_17  and  C_20
REMARK    8  A    between atoms: C_26  and  C_27
REMARK    9  A    between atoms: C_27  and  N_28
REMARK   10  A    between atoms: N_28  and  C_31
REMARK                            x       y       z     vdW  Elec       q    Type
REMARK                         _______ _______ _______ _____ _____    ______ ____
ROOT
ATOM      1  C   UNL     1      32.893  -8.032 -23.623  0.00  0.00    +0.150 C 
ENDROOT
BRANCH   1   9
ATOM      2  O   UNL     1      33.891  -7.642 -21.510  0.00  0.00    -0.273 OA
ATOM      3  N   UNL     1      32.006  -9.002 -21.532  0.00  0.00    -0.278 N 
ATOM      4  C   UNL     1      32.026  -9.217 -20.083  0.00  0.00    +0.093 C 
ATOM      5  C   UNL     1      30.887  -9.643 -22.234  0.00  0.00    +0.093 C 
ATOM      6  C   UNL     1      32.015 -10.707 -19.753  0.00  0.00    +0.022 C 
ATOM      7  C   UNL     1      30.854 -11.143 -21.945  0.00  0.00    +0.022 C 
ATOM      8  C   UNL     1      30.851 -11.418 -20.442  0.00  0.00    +0.004 C 
ATOM      9  C   UNL     1      32.981  -8.202 -22.127  0.00  0.00    +0.244 C 
ENDBRANCH   1   9
BRANCH   1  11
ATOM     10  O   UNL     1      35.344  -9.525 -24.019  0.00  0.00    -0.274 OA
ATOM     11  N   UNL     1      33.026  -9.368 -24.126  0.00  0.00    -0.297 N 
ATOM     12  C   UNL     1      34.250 -10.016 -24.286  0.00  0.00    +0.241 C 
ATOM     13  H   UNL     1      32.206  -9.856 -24.371  0.00  0.00    +0.150 HD
BRANCH  12  14
ATOM     14  C   UNL     1      34.078 -11.412 -24.828  0.00  0.00    +0.176 C 
BRANCH  14  15
ATOM     15  N   UNL     1      34.213 -12.387 -23.737  0.00  0.00    -0.174 NA
ATOM     16  H   UNL     1      35.207 -12.596 -23.645  0.00  0.00    +0.149 HD
BRANCH  15  17
ATOM     17  S   UNL     1      33.397 -13.884 -23.847  0.00  0.00    +0.039 S 
ATOM     18  O   UNL     1      33.471 -14.384 -25.207  0.00  0.00    -0.158 OA
ATOM     19  O   UNL     1      32.120 -13.766 -23.170  0.00  0.00    -0.158 OA
BRANCH  17  20
ATOM     20  C   UNL     1      34.442 -14.897 -22.836  0.00  0.00    +0.146 C 
ATOM     21  C   UNL     1      33.870 -15.010 -21.422  0.00  0.00    +0.025 C 
ATOM     22  C   UNL     1      34.632 -16.273 -23.475  0.00  0.00    +0.025 C 
ATOM     23  C   UNL     1      34.720 -15.926 -20.546  0.00  0.00    +0.002 C 
ATOM     24  C   UNL     1      35.483 -17.186 -22.596  0.00  0.00    +0.002 C 
ATOM     25  C   UNL     1      34.914 -17.298 -21.185  0.00  0.00    +0.000 C 
ENDBRANCH  17  20
ENDBRANCH  15  17
ENDBRANCH  14  15
ENDBRANCH  12  14
ENDBRANCH   1  11
BRANCH   1  26
ATOM     26  C   UNL     1      33.995  -7.099 -24.114  0.00  0.00    +0.050 C 
BRANCH  26  27
ATOM     27  C   UNL     1      33.494  -6.042 -25.098  0.00  0.00    +0.089 C 
BRANCH  27  28
ATOM     28  N   UNL     1      32.078  -5.817 -24.930  0.00  0.00    -0.333 N 
ATOM     29  H   UNL     1      31.454  -6.392 -25.431  0.00  0.00    +0.147 HD
BRANCH  28  31
ATOM     30  N   UNL     1      30.500  -2.912 -22.479  0.00  0.00    -0.328 N 
ATOM     31  C   UNL     1      31.547  -4.838 -24.105  0.00  0.00    +0.043 C 
ATOM     32  C   UNL     1      31.561  -3.506 -24.505  0.00  0.00    +0.009 C 
ATOM     33  C   UNL     1      30.998  -5.187 -22.875  0.00  0.00    +0.030 C 
ATOM     34  C   UNL     1      31.022  -2.548 -23.658  0.00  0.00    +0.115 C 
ATOM     35  C   UNL     1      30.473  -4.187 -22.069  0.00  0.00    +0.059 C 
ATOM     36  H   UNL     1      30.123  -2.216 -21.893  0.00  0.00    +0.147 HD
ENDBRANCH  28  31
ENDBRANCH  27  28
ENDBRANCH  26  27
ENDBRANCH   1  26
TORSDOF 10
ENDMDL
MODEL 8
REMARK VINA RESULT:      -8.8      2.631      8.555
REMARK  Name = 448953
REMARK  10 active torsions:
REMARK  status: ('A' for Active; 'I' for Inactive)
REMARK    1  A    between atoms: C_1  and  C_9
REMARK    2  A    between atoms: C_1  and  N_11
REMARK    3  A    between atoms: C_1  and  C_26
REMARK    4  A    between atoms: C_12  and  C_14
REMARK    5  A    between atoms: C_14  and  N_15
REMARK    6  A    between atoms: N_15  and  S_17
REMARK    7  A    between atoms: S_17  and  C_20
REMARK    8  A    between atoms: C_26  and  C_27
REMARK    9  A    between atoms: C_27  and  N_28
REMARK   10  A    between atoms: N_28  and  C_31
REMARK                            x       y       z     vdW  Elec       q    Type
REMARK                         _______ _______ _______ _____ _____    ______ ____
ROOT
ATOM      1  C   UNL     1      34.266 -17.204 -21.498  0.00  0.00    +0.150 C 
ENDROOT
BRANCH   1   9
ATOM      2  O   UNL     1      32.484 -18.550 -20.706  0.00  0.00    -0.273 OA
ATOM      3  N   UNL     1      34.562 -19.576 -20.878  0.00  0.00    -0.278 N 
ATOM      4  C   UNL     1      34.072 -20.868 -20.391  0.00  0.00    +0.093 C 
ATOM      5  C   UNL     1      35.982 -19.559 -21.253  0.00  0.00    +0.093 C 
ATOM      6  C   UNL     1      34.908 -21.360 -19.213  0.00  0.00    +0.022 C 
ATOM      7  C   UNL     1      36.855 -20.026 -20.091  0.00  0.00    +0.022 C 
ATOM      8  C   UNL     1      36.395 -21.384 -19.562  0.00  0.00    +0.004 C 
ATOM      9  C   UNL     1      33.683 -18.500 -20.992  0.00  0.00    +0.244 C 
ENDBRANCH   1   9
BRANCH   1  11
ATOM     10  O   UNL     1      34.779 -14.556 -20.442  0.00  0.00    -0.274 OA
ATOM     11  N   UNL     1      33.298 -16.220 -21.106  0.00  0.00    -0.297 N 
ATOM     12  C   UNL     1      33.632 -14.963 -20.606  0.00  0.00    +0.241 C 
ATOM     13  H   UNL     1      32.344 -16.446 -21.198  0.00  0.00    +0.150 HD
BRANCH  12  14
ATOM     14  C   UNL     1      32.408 -14.144 -20.285  0.00  0.00    +0.176 C 
BRANCH  14  15
ATOM     15  N   UNL     1      32.431 -12.897 -21.061  0.00  0.00    -0.174 NA
ATOM     16  H   UNL     1      33.398 -12.573 -21.076  0.00  0.00    +0.149 HD
BRANCH  15  17
ATOM     17  S   UNL     1      31.472 -11.577 -20.552  0.00  0.00    +0.039 S 
ATOM     18  O   UNL     1      31.552 -11.440 -19.111  0.00  0.00    -0.158 OA
ATOM     19  O   UNL     1      30.186 -11.655 -21.219  0.00  0.00    -0.158 OA
BRANCH  17  20
ATOM     20  C   UNL     1      32.364 -10.229 -21.279  0.00  0.00    +0.146 C 
ATOM     21  C   UNL     1      31.910 -10.003 -22.721  0.00  0.00    +0.025 C 
ATOM     22  C   UNL     1      32.202  -8.965 -20.435  0.00  0.00    +0.025 C 
ATOM     23  C   UNL     1      32.621  -8.809 -23.352  0.00  0.00    +0.002 C 
ATOM     24  C   UNL     1      32.914  -7.773 -21.069  0.00  0.00    +0.002 C 
ATOM     25  C   UNL     1      32.462  -7.548 -22.509  0.00  0.00    +0.000 C 
ENDBRANCH  17  20
ENDBRANCH  15  17
ENDBRANCH  14  15
ENDBRANCH  12  14
ENDBRANCH   1  11
BRANCH   1  26
ATOM     26  C   UNL     1      34.470 -17.270 -23.006  0.00  0.00    +0.050 C 
BRANCH  26  27
ATOM     27  C   UNL     1      34.756 -15.907 -23.636  0.00  0.00    +0.089 C 
BRANCH  27  28
ATOM     28  N   UNL     1      33.553 -15.341 -24.198  0.00  0.00    -0.333 N 
ATOM     29  H   UNL     1      32.694 -15.777 -23.991  0.00  0.00    +0.147 HD
BRANCH  28  31
ATOM     30  N   UNL     1      33.508 -12.010 -26.615  0.00  0.00    -0.328 N 
ATOM     31  C   UNL     1      33.538 -14.219 -25.011  0.00  0.00    +0.043 C 
ATOM     32  C   UNL     1      33.826 -12.967 -24.478  0.00  0.00    +0.009 C 
ATOM     33  C   UNL     1      33.235 -14.343 -26.364  0.00  0.00    +0.030 C 
ATOM     34  C   UNL     1      33.804 -11.861 -25.316  0.00  0.00    +0.115 C 
ATOM     35  C   UNL     1      33.228 -13.203 -27.155  0.00  0.00    +0.059 C 
ATOM     36  H   UNL     1      33.497 -11.212 -27.193  0.00  0.00    +0.147 HD
ENDBRANCH  28  31
ENDBRANCH  27  28
ENDBRANCH  26  27
ENDBRANCH   1  26
TORSDOF 10
ENDMDL
MODEL 9
REMARK VINA RESULT:      -8.8      1.780      2.466
REMARK  Name = 448953
REMARK  10 active torsions:
REMARK  status: ('A' for Active; 'I' for Inactive)
REMARK    1  A    between atoms: C_1  and  C_9
REMARK    2  A    between atoms: C_1  and  N_11
REMARK    3  A    between atoms: C_1  and  C_26
REMARK    4  A    between atoms: C_12  and  C_14
REMARK    5  A    between atoms: C_14  and  N_15
REMARK    6  A    between atoms: N_15  and  S_17
REMARK    7  A    between atoms: S_17  and  C_20
REMARK    8  A    between atoms: C_26  and  C_27
REMARK    9  A    between atoms: C_27  and  N_28
REMARK   10  A    between atoms: N_28  and  C_31
REMARK                            x       y       z     vdW  Elec       q    Type
REMARK                         _______ _______ _______ _____ _____    ______ ____
ROOT
ATOM      1  C   UNL     1      33.170 -13.233 -22.513  0.00  0.00    +0.150 C 
ENDROOT
BRANCH   1   9
ATOM      2  O   UNL     1      33.049 -14.362 -24.592  0.00  0.00    -0.273 OA
ATOM      3  N   UNL     1      33.590 -12.104 -24.669  0.00  0.00    -0.278 N 
ATOM      4  C   UNL     1      33.701 -12.081 -26.130  0.00  0.00    +0.093 C 
ATOM      5  C   UNL     1      33.804 -10.806 -24.015  0.00  0.00    +0.093 C 
ATOM      6  C   UNL     1      35.051 -11.517 -26.565  0.00  0.00    +0.022 C 
ATOM      7  C   UNL     1      35.157 -10.217 -24.412  0.00  0.00    +0.022 C 
ATOM      8  C   UNL     1      35.310 -10.152 -25.930  0.00  0.00    +0.004 C 
ATOM      9  C   UNL     1      33.262 -13.292 -24.017  0.00  0.00    +0.244 C 
ENDBRANCH   1   9
BRANCH   1  11
ATOM     10  O   UNL     1      34.852 -14.311 -20.416  0.00  0.00    -0.274 OA
ATOM     11  N   UNL     1      33.288 -14.604 -22.111  0.00  0.00    -0.297 N 
ATOM     12  C   UNL     1      34.126 -15.040 -21.086  0.00  0.00    +0.241 C 
ATOM     13  H   UNL     1      32.746 -15.276 -22.585  0.00  0.00    +0.150 HD
BRANCH  12  14
ATOM     14  C   UNL     1      34.038 -16.531 -20.886  0.00  0.00    +0.176 C 
BRANCH  14  15
ATOM     15  N   UNL     1      35.387 -17.089 -20.723  0.00  0.00    -0.174 NA
ATOM     16  H   UNL     1      36.024 -16.484 -21.241  0.00  0.00    +0.149 HD
BRANCH  15  17
ATOM     17  S   UNL     1      35.698 -18.690 -21.232  0.00  0.00    +0.039 S 
ATOM     18  O   UNL     1      34.618 -19.559 -20.804  0.00  0.00    -0.158 OA
ATOM     19  O   UNL     1      37.077 -19.015 -20.922  0.00  0.00    -0.158 OA
BRANCH  17  20
ATOM     20  C   UNL     1      35.581 -18.499 -22.990  0.00  0.00    +0.146 C 
ATOM     21  C   UNL     1      34.462 -19.377 -23.550  0.00  0.00    +0.025 C 
ATOM     22  C   UNL     1      35.375 -17.029 -23.355  0.00  0.00    +0.025 C 
ATOM     23  C   UNL     1      34.301 -19.188 -25.056  0.00  0.00    +0.002 C 
ATOM     24  C   UNL     1      35.215 -16.842 -24.862  0.00  0.00    +0.002 C 
ATOM     25  C   UNL     1      34.099 -17.720 -25.421  0.00  0.00    +0.000 C 
ENDBRANCH  17  20
ENDBRANCH  15  17
ENDBRANCH  14  15
ENDBRANCH  12  14
ENDBRANCH   1  11
BRANCH   1  26
ATOM     26  C   UNL     1      31.849 -12.600 -22.089  0.00  0.00    +0.050 C 
BRANCH  26  27
ATOM     27  C   UNL     1      31.898 -11.984 -20.691  0.00  0.00    +0.089 C 
BRANCH  27  28
ATOM     28  N   UNL     1      31.122 -10.768 -20.641  0.00  0.00    -0.333 N 
ATOM     29  H   UNL     1      30.177 -10.832 -20.369  0.00  0.00    +0.147 HD
BRANCH  28  31
ATOM     30  N   UNL     1      32.630  -7.055 -21.576  0.00  0.00    -0.328 N 
ATOM     31  C   UNL     1      31.630  -9.518 -20.955  0.00  0.00    +0.043 C 
ATOM     32  C   UNL     1      32.252  -8.752 -19.975  0.00  0.00    +0.009 C 
ATOM     33  C   UNL     1      31.518  -9.026 -22.253  0.00  0.00    +0.030 C 
ATOM     34  C   UNL     1      32.752  -7.503 -20.319  0.00  0.00    +0.115 C 
ATOM     35  C   UNL     1      32.036  -7.771 -22.539  0.00  0.00    +0.059 C 
ATOM     36  H   UNL     1      32.991  -6.166 -21.799  0.00  0.00    +0.147 HD
ENDBRANCH  28  31
ENDBRANCH  27  28
ENDBRANCH  26  27
ENDBRANCH   1  26
TORSDOF 10
ENDMDL
