MODEL 1
REMARK VINA RESULT:      -8.6      0.000      0.000
REMARK  Name = 243556
REMARK  2 active torsions:
REMARK  status: ('A' for Active; 'I' for Inactive)
REMARK    1  A    between atoms: C_3  and  C_9
REMARK    2  A    between atoms: C_8  and  O_15
REMARK                            x       y       z     vdW  Elec       q    Type
REMARK                         _______ _______ _______ _____ _____    ______ ____
ROOT
ATOM      1 BR   UNL     1      34.566 -17.832 -25.506  0.00  0.00    -0.046 Br
ATOM      2 BR   UNL     1      34.452 -14.623 -20.743  0.00  0.00    -0.046 Br
ATOM      3  C   UNL     1      34.597 -18.715 -21.446  0.00  0.00    +0.001 C 
ATOM      4  C   UNL     1      34.552 -17.462 -20.835  0.00  0.00    +0.010 C 
ATOM      5  C   UNL     1      34.600 -18.812 -22.838  0.00  0.00    +0.010 C 
ATOM      6  C   UNL     1      34.559 -17.656 -23.618  0.00  0.00    +0.069 C 
ATOM      7  C   UNL     1      34.512 -16.306 -21.615  0.00  0.00    +0.069 C 
ATOM      8  C   UNL     1      34.515 -16.403 -23.006  0.00  0.00    +0.146 C 
ENDROOT
BRANCH   3   9
ATOM      9  C   UNL     1      34.639 -19.914 -20.637  0.00  0.00    +0.000 C 
ATOM     10  C   UNL     1      33.452 -20.523 -20.230  0.00  0.00    +0.000 C 
ATOM     11  C   UNL     1      35.867 -20.460 -20.263  0.00  0.00    +0.000 C 
ATOM     12  C   UNL     1      33.493 -21.679 -19.450  0.00  0.00    +0.000 C 
ATOM     13  C   UNL     1      35.908 -21.616 -19.484  0.00  0.00    +0.000 C 
ATOM     14  C   UNL     1      34.721 -22.225 -19.077  0.00  0.00    +0.000 C 
ENDBRANCH   3   9
BRANCH   8  15
ATOM     15  O   UNL     1      34.475 -15.272 -23.770  0.00  0.00    -0.505 OA
ATOM     16  H   UNL     1      34.512 -15.336 -24.703  0.00  0.00    +0.292 HD
ENDBRANCH   8  15
TORSDOF 2
ENDMDL
MODEL 2
REMARK VINA RESULT:      -8.6      0.057      2.741
REMARK  Name = 243556
REMARK  2 active torsions:
REMARK  status: ('A' for Active; 'I' for Inactive)
REMARK    1  A    between atoms: C_3  and  C_9
REMARK    2  A    between atoms: C_8  and  O_15
REMARK                            x       y       z     vdW  Elec       q    Type
REMARK                         _______ _______ _______ _____ _____    ______ ____
ROOT
ATOM      1 BR   UNL     1      34.528 -14.612 -20.744  0.00  0.00    -0.046 Br
ATOM      2 BR   UNL     1      34.573 -17.805 -25.519  0.00  0.00    -0.046 Br
ATOM      3  C   UNL     1      34.596 -18.704 -21.463  0.00  0.00    +0.001 C 
ATOM      4  C   UNL     1      34.595 -18.795 -22.855  0.00  0.00    +0.010 C 
ATOM      5  C   UNL     1      34.577 -17.453 -20.846  0.00  0.00    +0.010 C 
ATOM      6  C   UNL     1      34.556 -16.293 -21.622  0.00  0.00    +0.069 C 
ATOM      7  C   UNL     1      34.574 -17.636 -23.630  0.00  0.00    +0.069 C 
ATOM      8  C   UNL     1      34.554 -16.385 -23.013  0.00  0.00    +0.146 C 
ENDROOT
BRANCH   3   9
ATOM      9  C   UNL     1      34.618 -19.907 -20.658  0.00  0.00    +0.000 C 
ATOM     10  C   UNL     1      35.835 -20.503 -20.328  0.00  0.00    +0.000 C 
ATOM     11  C   UNL     1      33.422 -20.470 -20.215  0.00  0.00    +0.000 C 
ATOM     12  C   UNL     1      35.857 -21.662 -19.553  0.00  0.00    +0.000 C 
ATOM     13  C   UNL     1      33.443 -21.629 -19.438  0.00  0.00    +0.000 C 
ATOM     14  C   UNL     1      34.661 -22.225 -19.108  0.00  0.00    +0.000 C 
ENDBRANCH   3   9
BRANCH   8  15
ATOM     15  O   UNL     1      34.534 -15.250 -23.772  0.00  0.00    -0.505 OA
ATOM     16  H   UNL     1      35.069 -15.189 -24.538  0.00  0.00    +0.292 HD
ENDBRANCH   8  15
TORSDOF 2
ENDMDL
MODEL 3
REMARK VINA RESULT:      -8.0      6.953      9.140
REMARK  Name = 243556
REMARK  2 active torsions:
REMARK  status: ('A' for Active; 'I' for Inactive)
REMARK    1  A    between atoms: C_3  and  C_9
REMARK    2  A    between atoms: C_8  and  O_15
REMARK                            x       y       z     vdW  Elec       q    Type
REMARK                         _______ _______ _______ _____ _____    ______ ____
ROOT
ATOM      1 BR   UNL     1      37.450 -24.011 -12.797  0.00  0.00    -0.046 Br
ATOM      2 BR   UNL     1      31.837 -24.763 -13.756  0.00  0.00    -0.046 Br
ATOM      3  C   UNL     1      34.941 -23.147 -15.995  0.00  0.00    +0.001 C 
ATOM      4  C   UNL     1      33.692 -23.593 -15.565  0.00  0.00    +0.010 C 
ATOM      5  C   UNL     1      36.053 -23.276 -15.161  0.00  0.00    +0.010 C 
ATOM      6  C   UNL     1      35.914 -23.852 -13.899  0.00  0.00    +0.069 C 
ATOM      7  C   UNL     1      33.553 -24.169 -14.302  0.00  0.00    +0.069 C 
ATOM      8  C   UNL     1      34.665 -24.299 -13.469  0.00  0.00    +0.146 C 
ENDROOT
BRANCH   3   9
ATOM      9  C   UNL     1      35.085 -22.549 -17.305  0.00  0.00    +0.000 C 
ATOM     10  C   UNL     1      36.281 -21.927 -17.660  0.00  0.00    +0.000 C 
ATOM     11  C   UNL     1      34.026 -22.595 -18.212  0.00  0.00    +0.000 C 
ATOM     12  C   UNL     1      36.420 -21.351 -18.923  0.00  0.00    +0.000 C 
ATOM     13  C   UNL     1      34.164 -22.020 -19.475  0.00  0.00    +0.000 C 
ATOM     14  C   UNL     1      35.361 -21.398 -19.830  0.00  0.00    +0.000 C 
ENDBRANCH   3   9
BRANCH   8  15
ATOM     15  O   UNL     1      34.529 -24.863 -12.232  0.00  0.00    -0.505 OA
ATOM     16  H   UNL     1      33.676 -25.023 -11.882  0.00  0.00    +0.292 HD
ENDBRANCH   8  15
TORSDOF 2
ENDMDL
MODEL 4
REMARK VINA RESULT:      -8.0      6.925      9.041
REMARK  Name = 243556
REMARK  2 active torsions:
REMARK  status: ('A' for Active; 'I' for Inactive)
REMARK    1  A    between atoms: C_3  and  C_9
REMARK    2  A    between atoms: C_8  and  O_15
REMARK                            x       y       z     vdW  Elec       q    Type
REMARK                         _______ _______ _______ _____ _____    ______ ____
ROOT
ATOM      1 BR   UNL     1      37.466 -24.079 -12.842  0.00  0.00    -0.046 Br
ATOM      2 BR   UNL     1      31.836 -24.720 -13.786  0.00  0.00    -0.046 Br
ATOM      3  C   UNL     1      34.959 -23.130 -16.018  0.00  0.00    +0.001 C 
ATOM      4  C   UNL     1      33.704 -23.560 -15.588  0.00  0.00    +0.010 C 
ATOM      5  C   UNL     1      36.071 -23.290 -15.191  0.00  0.00    +0.010 C 
ATOM      6  C   UNL     1      35.928 -23.879 -13.935  0.00  0.00    +0.069 C 
ATOM      7  C   UNL     1      33.560 -24.150 -14.331  0.00  0.00    +0.069 C 
ATOM      8  C   UNL     1      34.673 -24.309 -13.505  0.00  0.00    +0.146 C 
ENDROOT
BRANCH   3   9
ATOM      9  C   UNL     1      35.108 -22.519 -17.321  0.00  0.00    +0.000 C 
ATOM     10  C   UNL     1      34.051 -22.552 -18.231  0.00  0.00    +0.000 C 
ATOM     11  C   UNL     1      36.307 -21.897 -17.666  0.00  0.00    +0.000 C 
ATOM     12  C   UNL     1      34.195 -21.962 -19.487  0.00  0.00    +0.000 C 
ATOM     13  C   UNL     1      36.450 -21.307 -18.922  0.00  0.00    +0.000 C 
ATOM     14  C   UNL     1      35.394 -21.340 -19.832  0.00  0.00    +0.000 C 
ENDBRANCH   3   9
BRANCH   8  15
ATOM     15  O   UNL     1      34.532 -24.886 -12.275  0.00  0.00    -0.505 OA
ATOM     16  H   UNL     1      35.194 -24.765 -11.623  0.00  0.00    +0.292 HD
ENDBRANCH   8  15
TORSDOF 2
ENDMDL
MODEL 5
REMARK VINA RESULT:      -8.0      6.945      8.993
REMARK  Name = 243556
REMARK  2 active torsions:
REMARK  status: ('A' for Active; 'I' for Inactive)
REMARK    1  A    between atoms: C_3  and  C_9
REMARK    2  A    between atoms: C_8  and  O_15
REMARK                            x       y       z     vdW  Elec       q    Type
REMARK                         _______ _______ _______ _____ _____    ______ ____
ROOT
ATOM      1 BR   UNL     1      31.840 -24.750 -13.851  0.00  0.00    -0.046 Br
ATOM      2 BR   UNL     1      37.403 -23.949 -12.662  0.00  0.00    -0.046 Br
ATOM      3  C   UNL     1      35.022 -23.112 -15.963  0.00  0.00    +0.001 C 
ATOM      4  C   UNL     1      36.099 -23.231 -15.083  0.00  0.00    +0.010 C 
ATOM      5  C   UNL     1      33.759 -23.568 -15.584  0.00  0.00    +0.010 C 
ATOM      6  C   UNL     1      33.573 -24.143 -14.327  0.00  0.00    +0.069 C 
ATOM      7  C   UNL     1      35.913 -23.806 -13.826  0.00  0.00    +0.069 C 
ATOM      8  C   UNL     1      34.650 -24.262 -13.448  0.00  0.00    +0.146 C 
ENDROOT
BRANCH   3   9
ATOM      9  C   UNL     1      35.215 -22.515 -17.267  0.00  0.00    +0.000 C 
ATOM     10  C   UNL     1      34.179 -22.528 -18.200  0.00  0.00    +0.000 C 
ATOM     11  C   UNL     1      36.438 -21.928 -17.590  0.00  0.00    +0.000 C 
ATOM     12  C   UNL     1      34.365 -21.953 -19.457  0.00  0.00    +0.000 C 
ATOM     13  C   UNL     1      36.624 -21.352 -18.847  0.00  0.00    +0.000 C 
ATOM     14  C   UNL     1      35.588 -21.365 -19.780  0.00  0.00    +0.000 C 
ENDBRANCH   3   9
BRANCH   8  15
ATOM     15  O   UNL     1      34.468 -24.826 -12.217  0.00  0.00    -0.505 OA
ATOM     16  H   UNL     1      35.202 -25.163 -11.743  0.00  0.00    +0.292 HD
ENDBRANCH   8  15
TORSDOF 2
ENDMDL
MODEL 6
REMARK VINA RESULT:      -7.8      7.647      9.332
REMARK  Name = 243556
REMARK  2 active torsions:
REMARK  status: ('A' for Active; 'I' for Inactive)
REMARK    1  A    between atoms: C_3  and  C_9
REMARK    2  A    between atoms: C_8  and  O_15
REMARK                            x       y       z     vdW  Elec       q    Type
REMARK                         _______ _______ _______ _____ _____    ______ ____
ROOT
ATOM      1 BR   UNL     1      37.059 -21.526 -17.066  0.00  0.00    -0.046 Br
ATOM      2 BR   UNL     1      37.624 -26.037 -13.556  0.00  0.00    -0.046 Br
ATOM      3  C   UNL     1      34.360 -23.891 -14.972  0.00  0.00    +0.001 C 
ATOM      4  C   UNL     1      35.172 -24.815 -14.313  0.00  0.00    +0.010 C 
ATOM      5  C   UNL     1      34.934 -22.917 -15.789  0.00  0.00    +0.010 C 
ATOM      6  C   UNL     1      36.319 -22.866 -15.946  0.00  0.00    +0.069 C 
ATOM      7  C   UNL     1      36.557 -24.763 -14.470  0.00  0.00    +0.069 C 
ATOM      8  C   UNL     1      37.130 -23.789 -15.287  0.00  0.00    +0.146 C 
ENDROOT
BRANCH   3   9
ATOM      9  C   UNL     1      32.923 -23.944 -14.809  0.00  0.00    +0.000 C 
ATOM     10  C   UNL     1      32.362 -24.785 -13.848  0.00  0.00    +0.000 C 
ATOM     11  C   UNL     1      32.101 -23.156 -15.613  0.00  0.00    +0.000 C 
ATOM     12  C   UNL     1      30.976 -24.836 -13.690  0.00  0.00    +0.000 C 
ATOM     13  C   UNL     1      30.716 -23.206 -15.455  0.00  0.00    +0.000 C 
ATOM     14  C   UNL     1      30.154 -24.046 -14.494  0.00  0.00    +0.000 C 
ENDBRANCH   3   9
BRANCH   8  15
ATOM     15  O   UNL     1      38.487 -23.739 -15.441  0.00  0.00    -0.505 OA
ATOM     16  H   UNL     1      38.870 -23.927 -16.274  0.00  0.00    +0.292 HD
ENDBRANCH   8  15
TORSDOF 2
ENDMDL
MODEL 7
REMARK VINA RESULT:      -7.8      7.662      9.367
REMARK  Name = 243556
REMARK  2 active torsions:
REMARK  status: ('A' for Active; 'I' for Inactive)
REMARK    1  A    between atoms: C_3  and  C_9
REMARK    2  A    between atoms: C_8  and  O_15
REMARK                            x       y       z     vdW  Elec       q    Type
REMARK                         _______ _______ _______ _____ _____    ______ ____
ROOT
ATOM      1 BR   UNL     1      37.545 -26.093 -13.544  0.00  0.00    -0.046 Br
ATOM      2 BR   UNL     1      37.043 -21.592 -17.076  0.00  0.00    -0.046 Br
ATOM      3  C   UNL     1      34.311 -23.913 -14.976  0.00  0.00    +0.001 C 
ATOM      4  C   UNL     1      34.899 -22.949 -15.797  0.00  0.00    +0.010 C 
ATOM      5  C   UNL     1      35.110 -24.843 -14.311  0.00  0.00    +0.010 C 
ATOM      6  C   UNL     1      36.496 -24.811 -14.467  0.00  0.00    +0.069 C 
ATOM      7  C   UNL     1      36.285 -22.917 -15.952  0.00  0.00    +0.069 C 
ATOM      8  C   UNL     1      37.083 -23.848 -15.287  0.00  0.00    +0.146 C 
ENDROOT
BRANCH   3   9
ATOM      9  C   UNL     1      32.873 -23.946 -14.815  0.00  0.00    +0.000 C 
ATOM     10  C   UNL     1      32.062 -23.153 -15.626  0.00  0.00    +0.000 C 
ATOM     11  C   UNL     1      32.299 -24.771 -13.848  0.00  0.00    +0.000 C 
ATOM     12  C   UNL     1      30.676 -23.185 -15.471  0.00  0.00    +0.000 C 
ATOM     13  C   UNL     1      30.913 -24.804 -13.693  0.00  0.00    +0.000 C 
ATOM     14  C   UNL     1      30.102 -24.011 -14.505  0.00  0.00    +0.000 C 
ENDBRANCH   3   9
BRANCH   8  15
ATOM     15  O   UNL     1      38.440 -23.816 -15.439  0.00  0.00    -0.505 OA
ATOM     16  H   UNL     1      38.910 -23.020 -15.286  0.00  0.00    +0.292 HD
ENDBRANCH   8  15
TORSDOF 2
ENDMDL
MODEL 8
REMARK VINA RESULT:      -7.7      1.385      3.255
REMARK  Name = 243556
REMARK  2 active torsions:
REMARK  status: ('A' for Active; 'I' for Inactive)
REMARK    1  A    between atoms: C_3  and  C_9
REMARK    2  A    between atoms: C_8  and  O_15
REMARK                            x       y       z     vdW  Elec       q    Type
REMARK                         _______ _______ _______ _____ _____    ______ ____
ROOT
ATOM      1 BR   UNL     1      32.660 -13.694 -20.602  0.00  0.00    -0.046 Br
ATOM      2 BR   UNL     1      33.967 -15.813 -25.778  0.00  0.00    -0.046 Br
ATOM      3  C   UNL     1      34.362 -17.255 -21.902  0.00  0.00    +0.001 C 
ATOM      4  C   UNL     1      34.393 -17.119 -23.290  0.00  0.00    +0.010 C 
ATOM      5  C   UNL     1      33.844 -16.228 -21.113  0.00  0.00    +0.010 C 
ATOM      6  C   UNL     1      33.357 -15.065 -21.711  0.00  0.00    +0.069 C 
ATOM      7  C   UNL     1      33.906 -15.956 -23.889  0.00  0.00    +0.069 C 
ATOM      8  C   UNL     1      33.388 -14.930 -23.099  0.00  0.00    +0.146 C 
ENDROOT
BRANCH   3   9
ATOM      9  C   UNL     1      34.868 -18.460 -21.281  0.00  0.00    +0.000 C 
ATOM     10  C   UNL     1      36.240 -18.629 -21.101  0.00  0.00    +0.000 C 
ATOM     11  C   UNL     1      33.982 -19.453 -20.864  0.00  0.00    +0.000 C 
ATOM     12  C   UNL     1      36.728 -19.791 -20.503  0.00  0.00    +0.000 C 
ATOM     13  C   UNL     1      34.469 -20.615 -20.264  0.00  0.00    +0.000 C 
ATOM     14  C   UNL     1      35.842 -20.783 -20.085  0.00  0.00    +0.000 C 
ENDBRANCH   3   9
BRANCH   8  15
ATOM     15  O   UNL     1      32.911 -13.792 -23.685  0.00  0.00    -0.505 OA
ATOM     16  H   UNL     1      33.463 -13.291 -24.252  0.00  0.00    +0.292 HD
ENDBRANCH   8  15
TORSDOF 2
ENDMDL
MODEL 9
REMARK VINA RESULT:      -7.7      4.271      7.055
REMARK  Name = 243556
REMARK  2 active torsions:
REMARK  status: ('A' for Active; 'I' for Inactive)
REMARK    1  A    between atoms: C_3  and  C_9
REMARK    2  A    between atoms: C_8  and  O_15
REMARK                            x       y       z     vdW  Elec       q    Type
REMARK                         _______ _______ _______ _____ _____    ______ ____
ROOT
ATOM      1 BR   UNL     1      33.143 -14.849 -26.313  0.00  0.00    -0.046 Br
ATOM      2 BR   UNL     1      34.927 -17.099 -21.338  0.00  0.00    -0.046 Br
ATOM      3  C   UNL     1      32.852 -13.643 -22.348  0.00  0.00    +0.001 C 
ATOM      4  C   UNL     1      33.503 -14.658 -21.645  0.00  0.00    +0.010 C 
ATOM      5  C   UNL     1      32.752 -13.712 -23.737  0.00  0.00    +0.010 C 
ATOM      6  C   UNL     1      33.302 -14.794 -24.424  0.00  0.00    +0.069 C 
ATOM      7  C   UNL     1      34.052 -15.741 -22.332  0.00  0.00    +0.069 C 
ATOM      8  C   UNL     1      33.951 -15.809 -23.721  0.00  0.00    +0.146 C 
ENDROOT
BRANCH   3   9
ATOM      9  C   UNL     1      32.283 -12.520 -21.635  0.00  0.00    +0.000 C 
ATOM     10  C   UNL     1      31.947 -11.355 -22.324  0.00  0.00    +0.000 C 
ATOM     11  C   UNL     1      32.070 -12.603 -20.259  0.00  0.00    +0.000 C 
ATOM     12  C   UNL     1      31.397 -10.272 -21.638  0.00  0.00    +0.000 C 
ATOM     13  C   UNL     1      31.520 -11.520 -19.573  0.00  0.00    +0.000 C 
ATOM     14  C   UNL     1      31.184 -10.355 -20.262  0.00  0.00    +0.000 C 
ENDBRANCH   3   9
BRANCH   8  15
ATOM     15  O   UNL     1      34.490 -16.869 -24.394  0.00  0.00    -0.505 OA
ATOM     16  H   UNL     1      34.497 -16.874 -25.330  0.00  0.00    +0.292 HD
ENDBRANCH   8  15
TORSDOF 2
ENDMDL
