MODEL 1
REMARK VINA RESULT:      -9.3      0.000      0.000
REMARK  Name = 3468
REMARK  6 active torsions:
REMARK  status: ('A' for Active; 'I' for Inactive)
REMARK    1  A    between atoms: N_1  and  C_6
REMARK    2  A    between atoms: C_2  and  C_3
REMARK    3  A    between atoms: C_2  and  C_11
REMARK    4  A    between atoms: C_2  and  C_20
REMARK    5  A    between atoms: C_14  and  N_17
REMARK    6  A    between atoms: C_23  and  N_26
REMARK                            x       y       z     vdW  Elec       q    Type
REMARK                         _______ _______ _______ _____ _____    ______ ____
ROOT
ATOM      1  C   UNL     1      34.659 -22.924 -16.794  0.00  0.00    +0.067 C 
ENDROOT
BRANCH   1   2
ATOM      2  C   UNL     1      33.387 -23.086 -16.395  0.00  0.00    -0.014 C 
ATOM      3  C   UNL     1      33.058 -23.075 -14.977  0.00  0.00    -0.002 C 
ATOM      4  C   UNL     1      32.329 -23.273 -17.376  0.00  0.00    -0.002 C 
ATOM      5  C   UNL     1      30.709 -23.428 -15.552  0.00  0.00    +0.048 C 
ATOM      6  C   UNL     1      31.796 -23.236 -14.557  0.00  0.00    +0.014 C 
ATOM      7  C   UNL     1      31.053 -23.436 -16.999  0.00  0.00    +0.014 C 
BRANCH   5   8
ATOM      8  N   UNL     1      29.493 -23.583 -15.170  0.00  0.00    -0.304 N 
ATOM      9  C   UNL     1      29.014 -24.871 -14.605  0.00  0.00    +0.112 C 
ATOM     10  C   UNL     1      28.499 -22.484 -15.278  0.00  0.00    +0.112 C 
ENDBRANCH   5   8
ENDBRANCH   1   2
BRANCH   1  11
ATOM     11  C   UNL     1      34.921 -22.086 -17.993  0.00  0.00    -0.014 C 
ATOM     12  C   UNL     1      33.862 -21.734 -18.803  0.00  0.00    -0.002 C 
ATOM     13  C   UNL     1      36.214 -21.686 -18.255  0.00  0.00    -0.002 C 
ATOM     14  C   UNL     1      35.408 -20.529 -20.217  0.00  0.00    +0.048 C 
ATOM     15  C   UNL     1      34.109 -20.947 -19.929  0.00  0.00    +0.014 C 
ATOM     16  C   UNL     1      36.461 -20.899 -19.380  0.00  0.00    +0.014 C 
BRANCH  14  17
ATOM     17  N   UNL     1      35.657 -19.733 -21.354  0.00  0.00    -0.304 N 
ATOM     18  C   UNL     1      36.908 -19.012 -21.485  0.00  0.00    +0.112 C 
ATOM     19  C   UNL     1      34.661 -19.616 -22.400  0.00  0.00    +0.112 C 
ENDBRANCH  14  17
ENDBRANCH   1  11
BRANCH   1  20
ATOM     20  C   UNL     1      35.732 -23.592 -16.011  0.00  0.00    -0.014 C 
ATOM     21  C   UNL     1      35.577 -24.919 -15.667  0.00  0.00    -0.002 C 
ATOM     22  C   UNL     1      36.848 -22.864 -15.657  0.00  0.00    -0.002 C 
ATOM     23  C   UNL     1      37.723 -24.831 -14.561  0.00  0.00    +0.048 C 
ATOM     24  C   UNL     1      36.584 -25.545 -14.933  0.00  0.00    +0.014 C 
ATOM     25  C   UNL     1      37.856 -23.491 -14.923  0.00  0.00    +0.014 C 
BRANCH  23  26
ATOM     26  N   UNL     1      38.741 -25.465 -13.819  0.00  0.00    -0.304 N 
ATOM     27  C   UNL     1      40.008 -25.793 -14.442  0.00  0.00    +0.112 C 
ATOM     28  C   UNL     1      38.529 -25.809 -12.427  0.00  0.00    +0.112 C 
ENDBRANCH  23  26
ENDBRANCH   1  20
TORSDOF 6
ENDMDL
MODEL 2
REMARK VINA RESULT:      -9.3      0.007      6.282
REMARK  Name = 3468
REMARK  6 active torsions:
REMARK  status: ('A' for Active; 'I' for Inactive)
REMARK    1  A    between atoms: N_1  and  C_6
REMARK    2  A    between atoms: C_2  and  C_3
REMARK    3  A    between atoms: C_2  and  C_11
REMARK    4  A    between atoms: C_2  and  C_20
REMARK    5  A    between atoms: C_14  and  N_17
REMARK    6  A    between atoms: C_23  and  N_26
REMARK                            x       y       z     vdW  Elec       q    Type
REMARK                         _______ _______ _______ _____ _____    ______ ____
ROOT
ATOM      1  C   UNL     1      34.660 -22.925 -16.788  0.00  0.00    +0.067 C 
ENDROOT
BRANCH   1   2
ATOM      2  C   UNL     1      33.387 -23.085 -16.392  0.00  0.00    -0.014 C 
ATOM      3  C   UNL     1      33.054 -23.067 -14.976  0.00  0.00    -0.002 C 
ATOM      4  C   UNL     1      32.332 -23.279 -17.376  0.00  0.00    -0.002 C 
ATOM      5  C   UNL     1      30.706 -23.425 -15.556  0.00  0.00    +0.048 C 
ATOM      6  C   UNL     1      31.790 -23.227 -14.559  0.00  0.00    +0.014 C 
ATOM      7  C   UNL     1      31.056 -23.441 -17.002  0.00  0.00    +0.014 C 
BRANCH   5   8
ATOM      8  N   UNL     1      29.489 -23.580 -15.178  0.00  0.00    -0.304 N 
ATOM      9  C   UNL     1      28.495 -22.481 -15.286  0.00  0.00    +0.112 C 
ATOM     10  C   UNL     1      29.011 -24.866 -14.608  0.00  0.00    +0.112 C 
ENDBRANCH   5   8
ENDBRANCH   1   2
BRANCH   1  11
ATOM     11  C   UNL     1      35.732 -23.594 -16.007  0.00  0.00    -0.014 C 
ATOM     12  C   UNL     1      36.849 -22.867 -15.650  0.00  0.00    -0.002 C 
ATOM     13  C   UNL     1      35.575 -24.920 -15.662  0.00  0.00    -0.002 C 
ATOM     14  C   UNL     1      37.721 -24.837 -14.555  0.00  0.00    +0.048 C 
ATOM     15  C   UNL     1      37.855 -23.496 -14.917  0.00  0.00    +0.014 C 
ATOM     16  C   UNL     1      36.580 -25.549 -14.928  0.00  0.00    +0.014 C 
BRANCH  14  17
ATOM     17  N   UNL     1      38.737 -25.472 -13.812  0.00  0.00    -0.304 N 
ATOM     18  C   UNL     1      38.529 -25.805 -12.417  0.00  0.00    +0.112 C 
ATOM     19  C   UNL     1      40.009 -25.788 -14.431  0.00  0.00    +0.112 C 
ENDBRANCH  14  17
ENDBRANCH   1  11
BRANCH   1  20
ATOM     20  C   UNL     1      34.923 -22.086 -17.987  0.00  0.00    -0.014 C 
ATOM     21  C   UNL     1      36.217 -21.689 -18.251  0.00  0.00    -0.002 C 
ATOM     22  C   UNL     1      33.864 -21.734 -18.797  0.00  0.00    -0.002 C 
ATOM     23  C   UNL     1      35.409 -20.531 -20.212  0.00  0.00    +0.048 C 
ATOM     24  C   UNL     1      36.463 -20.902 -19.377  0.00  0.00    +0.014 C 
ATOM     25  C   UNL     1      34.110 -20.947 -19.923  0.00  0.00    +0.014 C 
BRANCH  23  26
ATOM     26  N   UNL     1      35.658 -19.736 -21.350  0.00  0.00    -0.304 N 
ATOM     27  C   UNL     1      36.908 -19.015 -21.483  0.00  0.00    +0.112 C 
ATOM     28  C   UNL     1      34.660 -19.618 -22.395  0.00  0.00    +0.112 C 
ENDBRANCH  23  26
ENDBRANCH   1  20
TORSDOF 6
ENDMDL
