MODEL 1
REMARK VINA RESULT:      -7.1      0.000      0.000
REMARK  Name = 30951
REMARK  6 active torsions:
REMARK  status: ('A' for Active; 'I' for Inactive)
REMARK    1  A    between atoms: C_2  and  C_12
REMARK    2  A    between atoms: C_5  and  O_8
REMARK    3  A    between atoms: O_8  and  C_9
REMARK    4  A    between atoms: C_9  and  C_10
REMARK    5  A    between atoms: C_12  and  C_14
REMARK    6  A    between atoms: C_14  and  O_15
REMARK                            x       y       z     vdW  Elec       q    Type
REMARK                         _______ _______ _______ _____ _____    ______ ____
ROOT
ATOM      1 CL   UNL     1      34.511 -18.232 -25.293  0.00  0.00    -0.079 Cl
ATOM      2  C   UNL     1      34.791 -19.115 -21.407  0.00  0.00    -0.010 C 
ATOM      3  C   UNL     1      34.627 -19.217 -22.788  0.00  0.00    +0.011 C 
ATOM      4  C   UNL     1      35.044 -17.872 -20.824  0.00  0.00    -0.001 C 
ATOM      5  C   UNL     1      34.970 -16.835 -23.005  0.00  0.00    +0.149 C 
ATOM      6  C   UNL     1      34.716 -18.077 -23.587  0.00  0.00    +0.091 C 
ATOM      7  C   UNL     1      35.134 -16.733 -21.623  0.00  0.00    +0.037 C 
ENDROOT
BRANCH   5   8
ATOM      8  O   UNL     1      35.062 -15.705 -23.761  0.00  0.00    -0.470 OA
BRANCH   8   9
ATOM      9  C   UNL     1      34.295 -14.580 -23.340  0.00  0.00    +0.232 C 
BRANCH   9  10
ATOM     10  C   UNL     1      33.321 -14.233 -24.417  0.00  0.00    +0.021 C 
ATOM     11  C   UNL     1      33.256 -14.863 -25.596  0.00  0.00    -0.001 C 
ENDBRANCH   9  10
ENDBRANCH   8   9
ENDBRANCH   5   8
BRANCH   2  12
ATOM     12  C   UNL     1      34.697 -20.333 -20.552  0.00  0.00    +0.136 C 
BRANCH  12  14
ATOM     13  O   UNL     1      32.319 -19.933 -20.203  0.00  0.00    -0.250 OA
ATOM     14  C   UNL     1      33.274 -20.698 -20.176  0.00  0.00    +0.318 C 
BRANCH  14  15
ATOM     15  O   UNL     1      33.168 -21.999 -19.797  0.00  0.00    -0.480 OA
ATOM     16  H   UNL     1      33.814 -22.621 -20.071  0.00  0.00    +0.295 HD
ENDBRANCH  14  15
ENDBRANCH  12  14
ENDBRANCH   2  12
TORSDOF 6
ENDMDL
MODEL 2
REMARK VINA RESULT:      -7.1      1.465      2.000
REMARK  Name = 30951
REMARK  6 active torsions:
REMARK  status: ('A' for Active; 'I' for Inactive)
REMARK    1  A    between atoms: C_2  and  C_12
REMARK    2  A    between atoms: C_5  and  O_8
REMARK    3  A    between atoms: O_8  and  C_9
REMARK    4  A    between atoms: C_9  and  C_10
REMARK    5  A    between atoms: C_12  and  C_14
REMARK    6  A    between atoms: C_14  and  O_15
REMARK                            x       y       z     vdW  Elec       q    Type
REMARK                         _______ _______ _______ _____ _____    ______ ____
ROOT
ATOM      1 CL   UNL     1      34.578 -15.094 -21.071  0.00  0.00    -0.079 Cl
ATOM      2  C   UNL     1      34.701 -19.064 -21.497  0.00  0.00    -0.010 C 
ATOM      3  C   UNL     1      34.617 -17.785 -20.948  0.00  0.00    +0.011 C 
ATOM      4  C   UNL     1      34.856 -19.224 -22.875  0.00  0.00    -0.001 C 
ATOM      5  C   UNL     1      34.842 -16.824 -23.154  0.00  0.00    +0.149 C 
ATOM      6  C   UNL     1      34.687 -16.665 -21.776  0.00  0.00    +0.091 C 
ATOM      7  C   UNL     1      34.926 -18.104 -23.702  0.00  0.00    +0.037 C 
ENDROOT
BRANCH   5   8
ATOM      8  O   UNL     1      34.913 -15.748 -23.987  0.00  0.00    -0.470 OA
BRANCH   8   9
ATOM      9  C   UNL     1      33.771 -15.481 -24.798  0.00  0.00    +0.232 C 
BRANCH   9  10
ATOM     10  C   UNL     1      33.111 -14.237 -24.302  0.00  0.00    +0.021 C 
ATOM     11  C   UNL     1      33.766 -13.105 -24.021  0.00  0.00    -0.001 C 
ENDBRANCH   9  10
ENDBRANCH   8   9
ENDBRANCH   5   8
BRANCH   2  12
ATOM     12  C   UNL     1      34.626 -20.263 -20.612  0.00  0.00    +0.136 C 
BRANCH  12  14
ATOM     13  O   UNL     1      32.239 -19.899 -20.283  0.00  0.00    -0.250 OA
ATOM     14  C   UNL     1      33.208 -20.645 -20.233  0.00  0.00    +0.318 C 
BRANCH  14  15
ATOM     15  O   UNL     1      33.126 -21.938 -19.820  0.00  0.00    -0.480 OA
ATOM     16  H   UNL     1      33.305 -22.633 -20.422  0.00  0.00    +0.295 HD
ENDBRANCH  14  15
ENDBRANCH  12  14
ENDBRANCH   2  12
TORSDOF 6
ENDMDL
MODEL 3
REMARK VINA RESULT:      -7.0      2.602      6.512
REMARK  Name = 30951
REMARK  6 active torsions:
REMARK  status: ('A' for Active; 'I' for Inactive)
REMARK    1  A    between atoms: C_2  and  C_12
REMARK    2  A    between atoms: C_5  and  O_8
REMARK    3  A    between atoms: O_8  and  C_9
REMARK    4  A    between atoms: C_9  and  C_10
REMARK    5  A    between atoms: C_12  and  C_14
REMARK    6  A    between atoms: C_14  and  O_15
REMARK                            x       y       z     vdW  Elec       q    Type
REMARK                         _______ _______ _______ _____ _____    ______ ____
ROOT
ATOM      1 CL   UNL     1      34.591 -14.976 -21.216  0.00  0.00    -0.079 Cl
ATOM      2  C   UNL     1      33.462 -15.133 -25.044  0.00  0.00    -0.010 C 
ATOM      3  C   UNL     1      33.637 -14.724 -23.722  0.00  0.00    +0.011 C 
ATOM      4  C   UNL     1      34.036 -16.325 -25.489  0.00  0.00    -0.001 C 
ATOM      5  C   UNL     1      34.962 -16.697 -23.288  0.00  0.00    +0.149 C 
ATOM      6  C   UNL     1      34.387 -15.506 -22.845  0.00  0.00    +0.091 C 
ATOM      7  C   UNL     1      34.786 -17.106 -24.611  0.00  0.00    +0.037 C 
ENDROOT
BRANCH   5   8
ATOM      8  O   UNL     1      35.701 -17.481 -22.453  0.00  0.00    -0.470 OA
BRANCH   8   9
ATOM      9  C   UNL     1      35.245 -18.816 -22.247  0.00  0.00    +0.232 C 
BRANCH   9  10
ATOM     10  C   UNL     1      34.167 -18.801 -21.215  0.00  0.00    +0.021 C 
ATOM     11  C   UNL     1      33.510 -19.892 -20.805  0.00  0.00    -0.001 C 
ENDBRANCH   9  10
ENDBRANCH   8   9
ENDBRANCH   5   8
BRANCH   2  12
ATOM     12  C   UNL     1      32.659 -14.297 -25.984  0.00  0.00    +0.136 C 
BRANCH  12  14
ATOM     13  O   UNL     1      33.990 -13.585 -27.896  0.00  0.00    -0.250 OA
ATOM     14  C   UNL     1      33.498 -13.336 -26.803  0.00  0.00    +0.318 C 
BRANCH  14  15
ATOM     15  O   UNL     1      33.651 -12.138 -26.180  0.00  0.00    -0.480 OA
ATOM     16  H   UNL     1      32.976 -11.816 -25.615  0.00  0.00    +0.295 HD
ENDBRANCH  14  15
ENDBRANCH  12  14
ENDBRANCH   2  12
TORSDOF 6
ENDMDL
MODEL 4
REMARK VINA RESULT:      -7.0      3.116      7.017
REMARK  Name = 30951
REMARK  6 active torsions:
REMARK  status: ('A' for Active; 'I' for Inactive)
REMARK    1  A    between atoms: C_2  and  C_12
REMARK    2  A    between atoms: C_5  and  O_8
REMARK    3  A    between atoms: O_8  and  C_9
REMARK    4  A    between atoms: C_9  and  C_10
REMARK    5  A    between atoms: C_12  and  C_14
REMARK    6  A    between atoms: C_14  and  O_15
REMARK                            x       y       z     vdW  Elec       q    Type
REMARK                         _______ _______ _______ _____ _____    ______ ____
ROOT
ATOM      1 CL   UNL     1      36.957 -21.749 -19.200  0.00  0.00    -0.079 Cl
ATOM      2  C   UNL     1      34.226 -19.434 -20.973  0.00  0.00    -0.010 C 
ATOM      3  C   UNL     1      35.437 -19.962 -20.525  0.00  0.00    +0.011 C 
ATOM      4  C   UNL     1      33.024 -20.060 -20.639  0.00  0.00    -0.001 C 
ATOM      5  C   UNL     1      34.245 -21.742 -19.406  0.00  0.00    +0.149 C 
ATOM      6  C   UNL     1      35.446 -21.116 -19.741  0.00  0.00    +0.091 C 
ATOM      7  C   UNL     1      33.034 -21.214 -19.856  0.00  0.00    +0.037 C 
ENDROOT
BRANCH   5   8
ATOM      8  O   UNL     1      34.224 -22.871 -18.643  0.00  0.00    -0.470 OA
BRANCH   8   9
ATOM      9  C   UNL     1      33.146 -23.008 -17.720  0.00  0.00    +0.232 C 
BRANCH   9  10
ATOM     10  C   UNL     1      33.701 -23.384 -16.387  0.00  0.00    +0.021 C 
ATOM     11  C   UNL     1      34.923 -23.040 -15.962  0.00  0.00    -0.001 C 
ENDBRANCH   9  10
ENDBRANCH   8   9
ENDBRANCH   5   8
BRANCH   2  12
ATOM     12  C   UNL     1      34.215 -18.200 -21.812  0.00  0.00    +0.136 C 
BRANCH  12  14
ATOM     13  O   UNL     1      34.747 -19.112 -24.008  0.00  0.00    -0.250 OA
ATOM     14  C   UNL     1      35.008 -18.337 -23.097  0.00  0.00    +0.318 C 
BRANCH  14  15
ATOM     15  O   UNL     1      36.066 -17.485 -23.133  0.00  0.00    -0.480 OA
ATOM     16  H   UNL     1      36.599 -17.369 -22.371  0.00  0.00    +0.295 HD
ENDBRANCH  14  15
ENDBRANCH  12  14
ENDBRANCH   2  12
TORSDOF 6
ENDMDL
MODEL 5
REMARK VINA RESULT:      -7.0      2.245      3.015
REMARK  Name = 30951
REMARK  6 active torsions:
REMARK  status: ('A' for Active; 'I' for Inactive)
REMARK    1  A    between atoms: C_2  and  C_12
REMARK    2  A    between atoms: C_5  and  O_8
REMARK    3  A    between atoms: O_8  and  C_9
REMARK    4  A    between atoms: C_9  and  C_10
REMARK    5  A    between atoms: C_12  and  C_14
REMARK    6  A    between atoms: C_14  and  O_15
REMARK                            x       y       z     vdW  Elec       q    Type
REMARK                         _______ _______ _______ _____ _____    ______ ____
ROOT
ATOM      1 CL   UNL     1      34.488 -14.559 -23.222  0.00  0.00    -0.079 Cl
ATOM      2  C   UNL     1      34.732 -18.512 -22.702  0.00  0.00    -0.010 C 
ATOM      3  C   UNL     1      34.685 -17.138 -22.468  0.00  0.00    +0.011 C 
ATOM      4  C   UNL     1      34.638 -19.003 -24.005  0.00  0.00    -0.001 C 
ATOM      5  C   UNL     1      34.451 -16.744 -24.841  0.00  0.00    +0.149 C 
ATOM      6  C   UNL     1      34.545 -16.254 -23.538  0.00  0.00    +0.091 C 
ATOM      7  C   UNL     1      34.498 -18.119 -25.074  0.00  0.00    +0.037 C 
ENDROOT
BRANCH   5   8
ATOM      8  O   UNL     1      34.312 -15.903 -25.905  0.00  0.00    -0.470 OA
BRANCH   8   9
ATOM      9  C   UNL     1      32.983 -15.594 -26.317  0.00  0.00    +0.232 C 
BRANCH   9  10
ATOM     10  C   UNL     1      32.841 -14.111 -26.405  0.00  0.00    +0.021 C 
ATOM     11  C   UNL     1      33.479 -13.351 -27.302  0.00  0.00    -0.001 C 
ENDBRANCH   9  10
ENDBRANCH   8   9
ENDBRANCH   5   8
BRANCH   2  12
ATOM     12  C   UNL     1      34.882 -19.459 -21.559  0.00  0.00    +0.136 C 
BRANCH  12  14
ATOM     13  O   UNL     1      37.242 -18.878 -21.404  0.00  0.00    -0.250 OA
ATOM     14  C   UNL     1      36.260 -19.430 -20.927  0.00  0.00    +0.318 C 
BRANCH  14  15
ATOM     15  O   UNL     1      36.289 -20.099 -19.745  0.00  0.00    -0.480 OA
ATOM     16  H   UNL     1      36.851 -19.805 -19.055  0.00  0.00    +0.295 HD
ENDBRANCH  14  15
ENDBRANCH  12  14
ENDBRANCH   2  12
TORSDOF 6
ENDMDL
MODEL 6
REMARK VINA RESULT:      -6.9      3.718      7.291
REMARK  Name = 30951
REMARK  6 active torsions:
REMARK  status: ('A' for Active; 'I' for Inactive)
REMARK    1  A    between atoms: C_2  and  C_12
REMARK    2  A    between atoms: C_5  and  O_8
REMARK    3  A    between atoms: O_8  and  C_9
REMARK    4  A    between atoms: C_9  and  C_10
REMARK    5  A    between atoms: C_12  and  C_14
REMARK    6  A    between atoms: C_14  and  O_15
REMARK                            x       y       z     vdW  Elec       q    Type
REMARK                         _______ _______ _______ _____ _____    ______ ____
ROOT
ATOM      1 CL   UNL     1      33.072 -22.422 -18.370  0.00  0.00    -0.079 Cl
ATOM      2  C   UNL     1      34.879 -19.936 -20.923  0.00  0.00    -0.010 C 
ATOM      3  C   UNL     1      33.911 -20.670 -20.237  0.00  0.00    +0.011 C 
ATOM      4  C   UNL     1      36.225 -20.058 -20.574  0.00  0.00    -0.001 C 
ATOM      5  C   UNL     1      35.634 -21.648 -18.854  0.00  0.00    +0.149 C 
ATOM      6  C   UNL     1      34.289 -21.526 -19.203  0.00  0.00    +0.091 C 
ATOM      7  C   UNL     1      36.602 -20.914 -19.540  0.00  0.00    +0.037 C 
ENDROOT
BRANCH   5   8
ATOM      8  O   UNL     1      36.032 -22.477 -17.847  0.00  0.00    -0.470 OA
BRANCH   8   9
ATOM      9  C   UNL     1      37.015 -21.974 -16.945  0.00  0.00    +0.232 C 
BRANCH   9  10
ATOM     10  C   UNL     1      37.164 -22.936 -15.814  0.00  0.00    +0.021 C 
ATOM     11  C   UNL     1      36.175 -23.714 -15.359  0.00  0.00    -0.001 C 
ENDBRANCH   9  10
ENDBRANCH   8   9
ENDBRANCH   5   8
BRANCH   2  12
ATOM     12  C   UNL     1      34.476 -19.020 -22.029  0.00  0.00    +0.136 C 
BRANCH  12  14
ATOM     13  O   UNL     1      35.032 -16.861 -21.046  0.00  0.00    -0.250 OA
ATOM     14  C   UNL     1      35.148 -17.662 -21.964  0.00  0.00    +0.318 C 
BRANCH  14  15
ATOM     15  O   UNL     1      35.912 -17.423 -23.062  0.00  0.00    -0.480 OA
ATOM     16  H   UNL     1      35.978 -16.554 -23.406  0.00  0.00    +0.295 HD
ENDBRANCH  14  15
ENDBRANCH  12  14
ENDBRANCH   2  12
TORSDOF 6
ENDMDL
MODEL 7
REMARK VINA RESULT:      -6.9      7.427      8.991
REMARK  Name = 30951
REMARK  6 active torsions:
REMARK  status: ('A' for Active; 'I' for Inactive)
REMARK    1  A    between atoms: C_2  and  C_12
REMARK    2  A    between atoms: C_5  and  O_8
REMARK    3  A    between atoms: O_8  and  C_9
REMARK    4  A    between atoms: C_9  and  C_10
REMARK    5  A    between atoms: C_12  and  C_14
REMARK    6  A    between atoms: C_14  and  O_15
REMARK                            x       y       z     vdW  Elec       q    Type
REMARK                         _______ _______ _______ _____ _____    ______ ____
ROOT
ATOM      1 CL   UNL     1      33.588 -22.843 -18.734  0.00  0.00    -0.079 Cl
ATOM      2  C   UNL     1      31.205 -23.035 -15.533  0.00  0.00    -0.010 C 
ATOM      3  C   UNL     1      31.678 -22.859 -16.833  0.00  0.00    +0.011 C 
ATOM      4  C   UNL     1      32.081 -23.417 -14.516  0.00  0.00    -0.001 C 
ATOM      5  C   UNL     1      33.905 -23.448 -16.101  0.00  0.00    +0.149 C 
ATOM      6  C   UNL     1      33.028 -23.066 -17.117  0.00  0.00    +0.091 C 
ATOM      7  C   UNL     1      33.430 -23.624 -14.801  0.00  0.00    +0.037 C 
ENDROOT
BRANCH   5   8
ATOM      8  O   UNL     1      35.228 -23.658 -16.350  0.00  0.00    -0.470 OA
BRANCH   8   9
ATOM      9  C   UNL     1      36.159 -22.913 -15.568  0.00  0.00    +0.232 C 
BRANCH   9  10
ATOM     10  C   UNL     1      37.130 -22.246 -16.485  0.00  0.00    +0.021 C 
ATOM     11  C   UNL     1      36.797 -21.712 -17.665  0.00  0.00    -0.001 C 
ENDBRANCH   9  10
ENDBRANCH   8   9
ENDBRANCH   5   8
BRANCH   2  12
ATOM     12  C   UNL     1      29.761 -22.814 -15.229  0.00  0.00    +0.136 C 
BRANCH  12  14
ATOM     13  O   UNL     1      28.483 -24.229 -16.745  0.00  0.00    -0.250 OA
ATOM     14  C   UNL     1      28.845 -23.112 -16.400  0.00  0.00    +0.318 C 
BRANCH  14  15
ATOM     15  O   UNL     1      28.458 -21.978 -17.042  0.00  0.00    -0.480 OA
ATOM     16  H   UNL     1      27.637 -21.952 -17.492  0.00  0.00    +0.295 HD
ENDBRANCH  14  15
ENDBRANCH  12  14
ENDBRANCH   2  12
TORSDOF 6
ENDMDL
MODEL 8
REMARK VINA RESULT:      -6.9      2.187      6.226
REMARK  Name = 30951
REMARK  6 active torsions:
REMARK  status: ('A' for Active; 'I' for Inactive)
REMARK    1  A    between atoms: C_2  and  C_12
REMARK    2  A    between atoms: C_5  and  O_8
REMARK    3  A    between atoms: O_8  and  C_9
REMARK    4  A    between atoms: C_9  and  C_10
REMARK    5  A    between atoms: C_12  and  C_14
REMARK    6  A    between atoms: C_14  and  O_15
REMARK                            x       y       z     vdW  Elec       q    Type
REMARK                         _______ _______ _______ _____ _____    ______ ____
ROOT
ATOM      1 CL   UNL     1      34.911 -18.900 -24.921  0.00  0.00    -0.079 Cl
ATOM      2  C   UNL     1      33.479 -15.175 -25.092  0.00  0.00    -0.010 C 
ATOM      3  C   UNL     1      33.798 -16.495 -25.408  0.00  0.00    +0.011 C 
ATOM      4  C   UNL     1      33.890 -14.628 -23.876  0.00  0.00    -0.001 C 
ATOM      5  C   UNL     1      34.941 -16.723 -23.291  0.00  0.00    +0.149 C 
ATOM      6  C   UNL     1      34.530 -17.269 -24.507  0.00  0.00    +0.091 C 
ATOM      7  C   UNL     1      34.621 -15.403 -22.976  0.00  0.00    +0.037 C 
ENDROOT
BRANCH   5   8
ATOM      8  O   UNL     1      35.656 -17.457 -22.391  0.00  0.00    -0.470 OA
BRANCH   8   9
ATOM      9  C   UNL     1      34.978 -17.868 -21.207  0.00  0.00    +0.232 C 
BRANCH   9  10
ATOM     10  C   UNL     1      34.399 -19.225 -21.431  0.00  0.00    +0.021 C 
ATOM     11  C   UNL     1      33.431 -19.758 -20.678  0.00  0.00    -0.001 C 
ENDBRANCH   9  10
ENDBRANCH   8   9
ENDBRANCH   5   8
BRANCH   2  12
ATOM     12  C   UNL     1      32.696 -14.346 -26.055  0.00  0.00    +0.136 C 
BRANCH  12  14
ATOM     13  O   UNL     1      33.656 -12.108 -26.122  0.00  0.00    -0.250 OA
ATOM     14  C   UNL     1      33.491 -13.200 -26.649  0.00  0.00    +0.318 C 
BRANCH  14  15
ATOM     15  O   UNL     1      34.014 -13.521 -27.862  0.00  0.00    -0.480 OA
ATOM     16  H   UNL     1      34.308 -12.844 -28.439  0.00  0.00    +0.295 HD
ENDBRANCH  14  15
ENDBRANCH  12  14
ENDBRANCH   2  12
TORSDOF 6
ENDMDL
MODEL 9
REMARK VINA RESULT:      -6.9      1.741      5.559
REMARK  Name = 30951
REMARK  6 active torsions:
REMARK  status: ('A' for Active; 'I' for Inactive)
REMARK    1  A    between atoms: C_2  and  C_12
REMARK    2  A    between atoms: C_5  and  O_8
REMARK    3  A    between atoms: O_8  and  C_9
REMARK    4  A    between atoms: C_9  and  C_10
REMARK    5  A    between atoms: C_12  and  C_14
REMARK    6  A    between atoms: C_14  and  O_15
REMARK                            x       y       z     vdW  Elec       q    Type
REMARK                         _______ _______ _______ _____ _____    ______ ____
ROOT
ATOM      1 CL   UNL     1      34.655 -19.053 -24.829  0.00  0.00    -0.079 Cl
ATOM      2  C   UNL     1      34.523 -15.662 -22.721  0.00  0.00    -0.010 C 
ATOM      3  C   UNL     1      34.509 -16.580 -23.772  0.00  0.00    +0.011 C 
ATOM      4  C   UNL     1      34.705 -16.104 -21.410  0.00  0.00    -0.001 C 
ATOM      5  C   UNL     1      34.860 -18.382 -22.201  0.00  0.00    +0.149 C 
ATOM      6  C   UNL     1      34.678 -17.939 -23.511  0.00  0.00    +0.091 C 
ATOM      7  C   UNL     1      34.874 -17.464 -21.150  0.00  0.00    +0.037 C 
ENDROOT
BRANCH   5   8
ATOM      8  O   UNL     1      35.027 -19.705 -21.917  0.00  0.00    -0.470 OA
BRANCH   8   9
ATOM      9  C   UNL     1      35.611 -20.028 -20.658  0.00  0.00    +0.232 C 
BRANCH   9  10
ATOM     10  C   UNL     1      34.696 -20.956 -19.929  0.00  0.00    +0.021 C 
ATOM     11  C   UNL     1      33.361 -20.869 -19.963  0.00  0.00    -0.001 C 
ENDBRANCH   9  10
ENDBRANCH   8   9
ENDBRANCH   5   8
BRANCH   2  12
ATOM     12  C   UNL     1      34.342 -14.208 -22.999  0.00  0.00    +0.136 C 
BRANCH  12  14
ATOM     13  O   UNL     1      32.760 -13.829 -24.812  0.00  0.00    -0.250 OA
ATOM     14  C   UNL     1      32.996 -13.873 -23.612  0.00  0.00    +0.318 C 
BRANCH  14  15
ATOM     15  O   UNL     1      32.056 -13.619 -22.663  0.00  0.00    -0.480 OA
ATOM     16  H   UNL     1      31.155 -13.542 -22.907  0.00  0.00    +0.295 HD
ENDBRANCH  14  15
ENDBRANCH  12  14
ENDBRANCH   2  12
TORSDOF 6
ENDMDL
