MODEL 1
REMARK VINA RESULT:      -9.5      0.000      0.000
REMARK  Name = 656580
REMARK  13 active torsions:
REMARK  status: ('A' for Active; 'I' for Inactive)
REMARK    1  A    between atoms: C_1  and  N_3
REMARK    2  A    between atoms: C_1  and  C_9
REMARK    3  A    between atoms: C_1  and  C_21
REMARK    4  A    between atoms: C_4  and  C_8
REMARK    5  A    between atoms: C_9  and  C_10
REMARK    6  A    between atoms: C_9  and  O_19
REMARK    7  A    between atoms: C_15  and  N_18
REMARK    8  A    between atoms: C_21  and  O_22
REMARK    9  A    between atoms: O_22  and  C_24
REMARK   10  A    between atoms: C_24  and  C_25
REMARK   11  A    between atoms: C_25  and  C_26
REMARK   12  A    between atoms: C_26  and  C_28
REMARK   13  A    between atoms: C_28  and  O_29
REMARK                            x       y       z     vdW  Elec       q    Type
REMARK                         _______ _______ _______ _____ _____    ______ ____
ROOT
ATOM      1  C   UNL     1      34.090 -24.451 -15.001  0.00  0.00    +0.147 C 
ENDROOT
BRANCH   1   3
ATOM      2  O   UNL     1      36.002 -26.409 -15.860  0.00  0.00    -0.272 OA
ATOM      3  N   UNL     1      35.274 -24.877 -14.279  0.00  0.00    -0.298 N 
ATOM      4  C   UNL     1      36.138 -25.833 -14.781  0.00  0.00    +0.253 C 
ATOM      5  H   UNL     1      35.469 -24.472 -13.403  0.00  0.00    +0.150 HD
BRANCH   4   8
ATOM      6 CL   UNL     1      38.717 -25.251 -14.478  0.00  0.00    -0.087 Cl
ATOM      7 CL   UNL     1      36.860 -25.520 -12.240  0.00  0.00    -0.087 Cl
ATOM      8  C   UNL     1      37.298 -26.107 -13.852  0.00  0.00    +0.234 C 
ENDBRANCH   4   8
ENDBRANCH   1   3
BRANCH   1   9
ATOM      9  C   UNL     1      32.973 -24.093 -13.998  0.00  0.00    +0.154 C 
BRANCH   9  10
ATOM     10  C   UNL     1      31.615 -23.901 -14.635  0.00  0.00    +0.006 C 
ATOM     11  C   UNL     1      31.048 -22.637 -14.649  0.00  0.00    -0.000 C 
ATOM     12  C   UNL     1      30.967 -24.991 -15.192  0.00  0.00    -0.000 C 
ATOM     13  C   UNL     1      29.796 -22.459 -15.237  0.00  0.00    +0.024 C 
ATOM     14  C   UNL     1      29.715 -24.812 -15.779  0.00  0.00    +0.024 C 
ATOM     15  C   UNL     1      29.130 -23.546 -15.802  0.00  0.00    +0.143 C 
BRANCH  15  18
ATOM     16  O   UNL     1      26.988 -22.691 -15.793  0.00  0.00    -0.126 OA
ATOM     17  O   UNL     1      27.630 -23.881 -17.523  0.00  0.00    -0.126 OA
ATOM     18  N   UNL     1      27.855 -23.364 -16.401  0.00  0.00    +0.058 N 
ENDBRANCH  15  18
ENDBRANCH   9  10
BRANCH   9  19
ATOM     19  O   UNL     1      32.840 -25.146 -13.037  0.00  0.00    -0.378 OA
ATOM     20  H   UNL     1      32.116 -24.939 -12.427  0.00  0.00    +0.211 HD
ENDBRANCH   9  19
ENDBRANCH   1   9
BRANCH   1  21
ATOM     21  C   UNL     1      34.460 -23.315 -15.961  0.00  0.00    +0.231 C 
BRANCH  21  22
ATOM     22  O   UNL     1      34.226 -23.679 -17.325  0.00  0.00    -0.447 OA
BRANCH  22  24
ATOM     23  O   UNL     1      32.221 -22.690 -17.892  0.00  0.00    -0.250 OA
ATOM     24  C   UNL     1      33.428 -22.825 -18.034  0.00  0.00    +0.318 C 
BRANCH  24  25
ATOM     25  C   UNL     1      34.283 -22.074 -19.031  0.00  0.00    +0.121 C 
BRANCH  25  26
ATOM     26  C   UNL     1      33.498 -21.051 -19.843  0.00  0.00    +0.121 C 
BRANCH  26  28
ATOM     27  O   UNL     1      35.570 -19.876 -20.248  0.00  0.00    -0.250 OA
ATOM     28  C   UNL     1      34.420 -20.120 -20.589  0.00  0.00    +0.314 C 
BRANCH  28  29
ATOM     29  O   UNL     1      33.846 -19.594 -21.699  0.00  0.00    -0.480 OA
ATOM     30  H   UNL     1      32.994 -19.880 -21.967  0.00  0.00    +0.295 HD
ENDBRANCH  28  29
ENDBRANCH  26  28
ENDBRANCH  25  26
ENDBRANCH  24  25
ENDBRANCH  22  24
ENDBRANCH  21  22
ENDBRANCH   1  21
TORSDOF 13
ENDMDL
MODEL 2
REMARK VINA RESULT:      -9.2      2.980      7.143
REMARK  Name = 656580
REMARK  13 active torsions:
REMARK  status: ('A' for Active; 'I' for Inactive)
REMARK    1  A    between atoms: C_1  and  N_3
REMARK    2  A    between atoms: C_1  and  C_9
REMARK    3  A    between atoms: C_1  and  C_21
REMARK    4  A    between atoms: C_4  and  C_8
REMARK    5  A    between atoms: C_9  and  C_10
REMARK    6  A    between atoms: C_9  and  O_19
REMARK    7  A    between atoms: C_15  and  N_18
REMARK    8  A    between atoms: C_21  and  O_22
REMARK    9  A    between atoms: O_22  and  C_24
REMARK   10  A    between atoms: C_24  and  C_25
REMARK   11  A    between atoms: C_25  and  C_26
REMARK   12  A    between atoms: C_26  and  C_28
REMARK   13  A    between atoms: C_28  and  O_29
REMARK                            x       y       z     vdW  Elec       q    Type
REMARK                         _______ _______ _______ _____ _____    ______ ____
ROOT
ATOM      1  C   UNL     1      33.876 -23.692 -14.483  0.00  0.00    +0.147 C 
ENDROOT
BRANCH   1   3
ATOM      2  O   UNL     1      34.510 -23.594 -17.279  0.00  0.00    -0.272 OA
ATOM      3  N   UNL     1      34.846 -22.820 -15.119  0.00  0.00    -0.298 N 
ATOM      4  C   UNL     1      35.079 -22.849 -16.482  0.00  0.00    +0.253 C 
ATOM      5  H   UNL     1      35.353 -22.185 -14.563  0.00  0.00    +0.150 HD
BRANCH   4   8
ATOM      6 CL   UNL     1      37.689 -22.382 -16.267  0.00  0.00    -0.087 Cl
ATOM      7 CL   UNL     1      36.150 -21.797 -18.678  0.00  0.00    -0.087 Cl
ATOM      8  C   UNL     1      36.128 -21.849 -16.909  0.00  0.00    +0.234 C 
ENDBRANCH   4   8
ENDBRANCH   1   3
BRANCH   1   9
ATOM      9  C   UNL     1      34.550 -24.455 -13.322  0.00  0.00    +0.154 C 
BRANCH   9  10
ATOM     10  C   UNL     1      36.006 -24.782 -13.567  0.00  0.00    +0.006 C 
ATOM     11  C   UNL     1      36.973 -24.207 -12.759  0.00  0.00    -0.000 C 
ATOM     12  C   UNL     1      36.342 -25.650 -14.593  0.00  0.00    -0.000 C 
ATOM     13  C   UNL     1      38.316 -24.508 -12.985  0.00  0.00    +0.024 C 
ATOM     14  C   UNL     1      37.686 -25.951 -14.818  0.00  0.00    +0.024 C 
ATOM     15  C   UNL     1      38.672 -25.380 -14.013  0.00  0.00    +0.143 C 
BRANCH  15  18
ATOM     16  O   UNL     1      40.888 -24.765 -14.182  0.00  0.00    -0.126 OA
ATOM     17  O   UNL     1      40.363 -26.873 -14.498  0.00  0.00    -0.126 OA
ATOM     18  N   UNL     1      40.040 -25.687 -14.242  0.00  0.00    +0.058 N 
ENDBRANCH  15  18
ENDBRANCH   9  10
BRANCH   9  19
ATOM     19  O   UNL     1      34.494 -23.659 -12.134  0.00  0.00    -0.378 OA
ATOM     20  H   UNL     1      34.888 -24.150 -11.396  0.00  0.00    +0.211 HD
ENDBRANCH   9  19
ENDBRANCH   1   9
BRANCH   1  21
ATOM     21  C   UNL     1      32.650 -22.873 -14.067  0.00  0.00    +0.231 C 
BRANCH  21  22
ATOM     22  O   UNL     1      31.670 -23.685 -13.411  0.00  0.00    -0.447 OA
BRANCH  22  24
ATOM     23  O   UNL     1      30.788 -25.614 -14.316  0.00  0.00    -0.250 OA
ATOM     24  C   UNL     1      30.845 -24.395 -14.237  0.00  0.00    +0.318 C 
BRANCH  24  25
ATOM     25  C   UNL     1      30.011 -23.423 -15.044  0.00  0.00    +0.121 C 
BRANCH  25  26
ATOM     26  C   UNL     1      28.868 -24.095 -15.795  0.00  0.00    +0.121 C 
BRANCH  26  28
ATOM     27  O   UNL     1      28.291 -21.921 -16.675  0.00  0.00    -0.250 OA
ATOM     28  C   UNL     1      28.207 -23.139 -16.756  0.00  0.00    +0.314 C 
BRANCH  28  29
ATOM     29  O   UNL     1      27.524 -23.776 -17.740  0.00  0.00    -0.480 OA
ATOM     30  H   UNL     1      26.587 -23.756 -17.748  0.00  0.00    +0.295 HD
ENDBRANCH  28  29
ENDBRANCH  26  28
ENDBRANCH  25  26
ENDBRANCH  24  25
ENDBRANCH  22  24
ENDBRANCH  21  22
ENDBRANCH   1  21
TORSDOF 13
ENDMDL
MODEL 3
REMARK VINA RESULT:      -9.0      3.205      6.597
REMARK  Name = 656580
REMARK  13 active torsions:
REMARK  status: ('A' for Active; 'I' for Inactive)
REMARK    1  A    between atoms: C_1  and  N_3
REMARK    2  A    between atoms: C_1  and  C_9
REMARK    3  A    between atoms: C_1  and  C_21
REMARK    4  A    between atoms: C_4  and  C_8
REMARK    5  A    between atoms: C_9  and  C_10
REMARK    6  A    between atoms: C_9  and  O_19
REMARK    7  A    between atoms: C_15  and  N_18
REMARK    8  A    between atoms: C_21  and  O_22
REMARK    9  A    between atoms: O_22  and  C_24
REMARK   10  A    between atoms: C_24  and  C_25
REMARK   11  A    between atoms: C_25  and  C_26
REMARK   12  A    between atoms: C_26  and  C_28
REMARK   13  A    between atoms: C_28  and  O_29
REMARK                            x       y       z     vdW  Elec       q    Type
REMARK                         _______ _______ _______ _____ _____    ______ ____
ROOT
ATOM      1  C   UNL     1      33.957 -23.474 -14.877  0.00  0.00    +0.147 C 
ENDROOT
BRANCH   1   3
ATOM      2  O   UNL     1      31.777 -23.051 -13.062  0.00  0.00    -0.272 OA
ATOM      3  N   UNL     1      32.543 -23.558 -15.191  0.00  0.00    -0.298 N 
ATOM      4  C   UNL     1      31.563 -23.336 -14.240  0.00  0.00    +0.253 C 
ATOM      5  H   UNL     1      32.271 -23.781 -16.110  0.00  0.00    +0.150 HD
BRANCH   4   8
ATOM      6 CL   UNL     1      30.189 -22.880 -16.471  0.00  0.00    -0.087 Cl
ATOM      7 CL   UNL     1      29.725 -25.190 -14.746  0.00  0.00    -0.087 Cl
ATOM      8  C   UNL     1      30.170 -23.477 -14.804  0.00  0.00    +0.234 C 
ENDBRANCH   4   8
ENDBRANCH   1   3
BRANCH   1   9
ATOM      9  C   UNL     1      34.412 -24.774 -14.181  0.00  0.00    +0.154 C 
BRANCH   9  10
ATOM     10  C   UNL     1      35.905 -25.006 -14.229  0.00  0.00    +0.006 C 
ATOM     11  C   UNL     1      36.404 -26.041 -15.002  0.00  0.00    -0.000 C 
ATOM     12  C   UNL     1      36.743 -24.177 -13.501  0.00  0.00    -0.000 C 
ATOM     13  C   UNL     1      37.781 -26.255 -15.047  0.00  0.00    +0.024 C 
ATOM     14  C   UNL     1      38.121 -24.391 -13.547  0.00  0.00    +0.024 C 
ATOM     15  C   UNL     1      38.640 -25.430 -14.320  0.00  0.00    +0.143 C 
BRANCH  15  18
ATOM     16  O   UNL     1      40.815 -24.678 -14.176  0.00  0.00    -0.126 OA
ATOM     17  O   UNL     1      40.471 -26.806 -14.598  0.00  0.00    -0.126 OA
ATOM     18  N   UNL     1      40.042 -25.648 -14.367  0.00  0.00    +0.058 N 
ENDBRANCH  15  18
ENDBRANCH   9  10
BRANCH   9  19
ATOM     19  O   UNL     1      34.039 -24.730 -12.799  0.00  0.00    -0.378 OA
ATOM     20  H   UNL     1      33.549 -25.535 -12.570  0.00  0.00    +0.211 HD
ENDBRANCH   9  19
ENDBRANCH   1   9
BRANCH   1  21
ATOM     21  C   UNL     1      34.742 -23.136 -16.150  0.00  0.00    +0.231 C 
BRANCH  21  22
ATOM     22  O   UNL     1      34.049 -23.566 -17.326  0.00  0.00    -0.447 OA
BRANCH  22  24
ATOM     23  O   UNL     1      32.970 -22.413 -19.006  0.00  0.00    -0.250 OA
ATOM     24  C   UNL     1      33.962 -22.643 -18.330  0.00  0.00    +0.318 C 
BRANCH  24  25
ATOM     25  C   UNL     1      35.301 -21.952 -18.472  0.00  0.00    +0.121 C 
BRANCH  25  26
ATOM     26  C   UNL     1      35.701 -21.715 -19.924  0.00  0.00    +0.121 C 
BRANCH  26  28
ATOM     27  O   UNL     1      36.232 -19.402 -20.379  0.00  0.00    -0.250 OA
ATOM     28  C   UNL     1      35.400 -20.300 -20.351  0.00  0.00    +0.314 C 
BRANCH  28  29
ATOM     29  O   UNL     1      34.108 -20.129 -20.725  0.00  0.00    -0.480 OA
ATOM     30  H   UNL     1      33.438 -20.671 -20.357  0.00  0.00    +0.295 HD
ENDBRANCH  28  29
ENDBRANCH  26  28
ENDBRANCH  25  26
ENDBRANCH  24  25
ENDBRANCH  22  24
ENDBRANCH  21  22
ENDBRANCH   1  21
TORSDOF 13
ENDMDL
MODEL 4
REMARK VINA RESULT:      -8.9      1.144      1.682
REMARK  Name = 656580
REMARK  13 active torsions:
REMARK  status: ('A' for Active; 'I' for Inactive)
REMARK    1  A    between atoms: C_1  and  N_3
REMARK    2  A    between atoms: C_1  and  C_9
REMARK    3  A    between atoms: C_1  and  C_21
REMARK    4  A    between atoms: C_4  and  C_8
REMARK    5  A    between atoms: C_9  and  C_10
REMARK    6  A    between atoms: C_9  and  O_19
REMARK    7  A    between atoms: C_15  and  N_18
REMARK    8  A    between atoms: C_21  and  O_22
REMARK    9  A    between atoms: O_22  and  C_24
REMARK   10  A    between atoms: C_24  and  C_25
REMARK   11  A    between atoms: C_25  and  C_26
REMARK   12  A    between atoms: C_26  and  C_28
REMARK   13  A    between atoms: C_28  and  O_29
REMARK                            x       y       z     vdW  Elec       q    Type
REMARK                         _______ _______ _______ _____ _____    ______ ____
ROOT
ATOM      1  C   UNL     1      34.362 -24.386 -15.397  0.00  0.00    +0.147 C 
ENDROOT
BRANCH   1   3
ATOM      2  O   UNL     1      36.110 -26.641 -15.690  0.00  0.00    -0.272 OA
ATOM      3  N   UNL     1      35.633 -24.587 -14.725  0.00  0.00    -0.298 N 
ATOM      4  C   UNL     1      36.405 -25.715 -14.935  0.00  0.00    +0.253 C 
ATOM      5  H   UNL     1      35.955 -23.899 -14.100  0.00  0.00    +0.150 HD
BRANCH   4   8
ATOM      6 CL   UNL     1      38.881 -24.744 -15.018  0.00  0.00    -0.087 Cl
ATOM      7 CL   UNL     1      37.327 -24.965 -12.555  0.00  0.00    -0.087 Cl
ATOM      8  C   UNL     1      37.682 -25.696 -14.128  0.00  0.00    +0.234 C 
ENDBRANCH   4   8
ENDBRANCH   1   3
BRANCH   1   9
ATOM      9  C   UNL     1      33.302 -23.926 -14.373  0.00  0.00    +0.154 C 
BRANCH   9  10
ATOM     10  C   UNL     1      31.896 -23.875 -14.927  0.00  0.00    +0.006 C 
ATOM     11  C   UNL     1      31.496 -22.764 -15.652  0.00  0.00    -0.000 C 
ATOM     12  C   UNL     1      31.039 -24.939 -14.700  0.00  0.00    -0.000 C 
ATOM     13  C   UNL     1      30.199 -22.717 -16.163  0.00  0.00    +0.024 C 
ATOM     14  C   UNL     1      29.743 -24.890 -15.212  0.00  0.00    +0.024 C 
ATOM     15  C   UNL     1      29.323 -23.779 -15.944  0.00  0.00    +0.143 C 
BRANCH  15  18
ATOM     16  O   UNL     1      27.725 -24.412 -17.481  0.00  0.00    -0.126 OA
ATOM     17  O   UNL     1      27.150 -23.005 -15.896  0.00  0.00    -0.126 OA
ATOM     18  N   UNL     1      28.003 -23.730 -16.466  0.00  0.00    +0.058 N 
ENDBRANCH  15  18
ENDBRANCH   9  10
BRANCH   9  19
ATOM     19  O   UNL     1      33.284 -24.834 -13.267  0.00  0.00    -0.378 OA
ATOM     20  H   UNL     1      33.536 -25.720 -13.571  0.00  0.00    +0.211 HD
ENDBRANCH   9  19
ENDBRANCH   1   9
BRANCH   1  21
ATOM     21  C   UNL     1      34.556 -23.424 -16.575  0.00  0.00    +0.231 C 
BRANCH  21  22
ATOM     22  O   UNL     1      35.879 -22.878 -16.598  0.00  0.00    -0.447 OA
BRANCH  22  24
ATOM     23  O   UNL     1      36.967 -21.089 -17.564  0.00  0.00    -0.250 OA
ATOM     24  C   UNL     1      36.127 -21.977 -17.595  0.00  0.00    +0.318 C 
BRANCH  24  25
ATOM     25  C   UNL     1      35.185 -22.254 -18.747  0.00  0.00    +0.121 C 
BRANCH  25  26
ATOM     26  C   UNL     1      34.983 -21.050 -19.659  0.00  0.00    +0.121 C 
BRANCH  26  28
ATOM     27  O   UNL     1      33.099 -19.940 -20.686  0.00  0.00    -0.250 OA
ATOM     28  C   UNL     1      33.526 -20.857 -19.997  0.00  0.00    +0.314 C 
BRANCH  28  29
ATOM     29  O   UNL     1      32.735 -21.826 -19.473  0.00  0.00    -0.480 OA
ATOM     30  H   UNL     1      32.189 -21.638 -18.735  0.00  0.00    +0.295 HD
ENDBRANCH  28  29
ENDBRANCH  26  28
ENDBRANCH  25  26
ENDBRANCH  24  25
ENDBRANCH  22  24
ENDBRANCH  21  22
ENDBRANCH   1  21
TORSDOF 13
ENDMDL
MODEL 5
REMARK VINA RESULT:      -8.7      6.074      9.763
REMARK  Name = 656580
REMARK  13 active torsions:
REMARK  status: ('A' for Active; 'I' for Inactive)
REMARK    1  A    between atoms: C_1  and  N_3
REMARK    2  A    between atoms: C_1  and  C_9
REMARK    3  A    between atoms: C_1  and  C_21
REMARK    4  A    between atoms: C_4  and  C_8
REMARK    5  A    between atoms: C_9  and  C_10
REMARK    6  A    between atoms: C_9  and  O_19
REMARK    7  A    between atoms: C_15  and  N_18
REMARK    8  A    between atoms: C_21  and  O_22
REMARK    9  A    between atoms: O_22  and  C_24
REMARK   10  A    between atoms: C_24  and  C_25
REMARK   11  A    between atoms: C_25  and  C_26
REMARK   12  A    between atoms: C_26  and  C_28
REMARK   13  A    between atoms: C_28  and  O_29
REMARK                            x       y       z     vdW  Elec       q    Type
REMARK                         _______ _______ _______ _____ _____    ______ ____
ROOT
ATOM      1  C   UNL     1      35.304 -17.366 -22.208  0.00  0.00    +0.147 C 
ENDROOT
BRANCH   1   3
ATOM      2  O   UNL     1      35.051 -14.920 -20.732  0.00  0.00    -0.272 OA
ATOM      3  N   UNL     1      34.146 -16.930 -21.449  0.00  0.00    -0.298 N 
ATOM      4  C   UNL     1      34.123 -15.726 -20.768  0.00  0.00    +0.253 C 
ATOM      5  H   UNL     1      33.351 -17.510 -21.418  0.00  0.00    +0.150 HD
BRANCH   4   8
ATOM      6 CL   UNL     1      32.262 -13.853 -20.441  0.00  0.00    -0.087 Cl
ATOM      7 CL   UNL     1      31.653 -16.703 -20.628  0.00  0.00    -0.087 Cl
ATOM      8  C   UNL     1      32.811 -15.492 -20.057  0.00  0.00    +0.234 C 
ENDBRANCH   4   8
ENDBRANCH   1   3
BRANCH   1   9
ATOM      9  C   UNL     1      35.127 -18.844 -22.619  0.00  0.00    +0.154 C 
BRANCH   9  10
ATOM     10  C   UNL     1      34.712 -19.751 -21.482  0.00  0.00    +0.006 C 
ATOM     11  C   UNL     1      35.688 -20.401 -20.746  0.00  0.00    -0.000 C 
ATOM     12  C   UNL     1      33.365 -19.910 -21.200  0.00  0.00    -0.000 C 
ATOM     13  C   UNL     1      35.306 -21.238 -19.698  0.00  0.00    +0.024 C 
ATOM     14  C   UNL     1      32.984 -20.747 -20.151  0.00  0.00    +0.024 C 
ATOM     15  C   UNL     1      33.955 -21.411 -19.400  0.00  0.00    +0.143 C 
BRANCH  15  18
ATOM     16  O   UNL     1      32.344 -22.427 -18.099  0.00  0.00    -0.126 OA
ATOM     17  O   UNL     1      34.456 -22.828 -17.650  0.00  0.00    -0.126 OA
ATOM     18  N   UNL     1      33.566 -22.262 -18.332  0.00  0.00    +0.058 N 
ENDBRANCH  15  18
ENDBRANCH   9  10
BRANCH   9  19
ATOM     19  O   UNL     1      34.112 -18.939 -23.624  0.00  0.00    -0.378 OA
ATOM     20  H   UNL     1      33.242 -19.012 -23.200  0.00  0.00    +0.211 HD
ENDBRANCH   9  19
ENDBRANCH   1   9
BRANCH   1  21
ATOM     21  C   UNL     1      35.531 -16.410 -23.384  0.00  0.00    +0.231 C 
BRANCH  21  22
ATOM     22  O   UNL     1      34.293 -15.973 -23.955  0.00  0.00    -0.447 OA
BRANCH  22  24
ATOM     23  O   UNL     1      34.638 -17.064 -25.957  0.00  0.00    -0.250 OA
ATOM     24  C   UNL     1      34.178 -16.136 -25.307  0.00  0.00    +0.318 C 
BRANCH  24  25
ATOM     25  C   UNL     1      33.389 -14.975 -25.872  0.00  0.00    +0.121 C 
BRANCH  25  26
ATOM     26  C   UNL     1      32.764 -14.096 -24.796  0.00  0.00    +0.121 C 
BRANCH  26  28
ATOM     27  O   UNL     1      33.836 -11.955 -25.121  0.00  0.00    -0.250 OA
ATOM     28  C   UNL     1      33.673 -12.950 -24.427  0.00  0.00    +0.314 C 
BRANCH  28  29
ATOM     29  O   UNL     1      34.279 -13.129 -23.227  0.00  0.00    -0.480 OA
ATOM     30  H   UNL     1      33.763 -13.203 -22.448  0.00  0.00    +0.295 HD
ENDBRANCH  28  29
ENDBRANCH  26  28
ENDBRANCH  25  26
ENDBRANCH  24  25
ENDBRANCH  22  24
ENDBRANCH  21  22
ENDBRANCH   1  21
TORSDOF 13
ENDMDL
MODEL 6
REMARK VINA RESULT:      -8.6      1.565      2.129
REMARK  Name = 656580
REMARK  13 active torsions:
REMARK  status: ('A' for Active; 'I' for Inactive)
REMARK    1  A    between atoms: C_1  and  N_3
REMARK    2  A    between atoms: C_1  and  C_9
REMARK    3  A    between atoms: C_1  and  C_21
REMARK    4  A    between atoms: C_4  and  C_8
REMARK    5  A    between atoms: C_9  and  C_10
REMARK    6  A    between atoms: C_9  and  O_19
REMARK    7  A    between atoms: C_15  and  N_18
REMARK    8  A    between atoms: C_21  and  O_22
REMARK    9  A    between atoms: O_22  and  C_24
REMARK   10  A    between atoms: C_24  and  C_25
REMARK   11  A    between atoms: C_25  and  C_26
REMARK   12  A    between atoms: C_26  and  C_28
REMARK   13  A    between atoms: C_28  and  O_29
REMARK                            x       y       z     vdW  Elec       q    Type
REMARK                         _______ _______ _______ _____ _____    ______ ____
ROOT
ATOM      1  C   UNL     1      33.851 -24.289 -15.046  0.00  0.00    +0.147 C 
ENDROOT
BRANCH   1   3
ATOM      2  O   UNL     1      36.143 -25.959 -15.472  0.00  0.00    -0.272 OA
ATOM      3  N   UNL     1      35.118 -24.214 -14.342  0.00  0.00    -0.298 N 
ATOM      4  C   UNL     1      36.167 -25.070 -14.623  0.00  0.00    +0.253 C 
ATOM      5  H   UNL     1      35.234 -23.531 -13.642  0.00  0.00    +0.150 HD
BRANCH   4   8
ATOM      6 CL   UNL     1      37.119 -23.261 -12.920  0.00  0.00    -0.087 Cl
ATOM      7 CL   UNL     1      37.552 -26.133 -12.616  0.00  0.00    -0.087 Cl
ATOM      8  C   UNL     1      37.379 -24.796 -13.763  0.00  0.00    +0.234 C 
ENDBRANCH   4   8
ENDBRANCH   1   3
BRANCH   1   9
ATOM      9  C   UNL     1      32.691 -24.083 -14.048  0.00  0.00    +0.154 C 
BRANCH   9  10
ATOM     10  C   UNL     1      31.354 -23.829 -14.707  0.00  0.00    +0.006 C 
ATOM     11  C   UNL     1      31.015 -22.537 -15.071  0.00  0.00    -0.000 C 
ATOM     12  C   UNL     1      30.497 -24.893 -14.933  0.00  0.00    -0.000 C 
ATOM     13  C   UNL     1      29.781 -22.302 -15.678  0.00  0.00    +0.024 C 
ATOM     14  C   UNL     1      29.264 -24.658 -15.541  0.00  0.00    +0.024 C 
ATOM     15  C   UNL     1      28.906 -23.361 -15.914  0.00  0.00    +0.143 C 
BRANCH  15  18
ATOM     16  O   UNL     1      27.490 -23.457 -17.731  0.00  0.00    -0.126 OA
ATOM     17  O   UNL     1      26.736 -22.581 -15.865  0.00  0.00    -0.126 OA
ATOM     18  N   UNL     1      27.651 -23.122 -16.533  0.00  0.00    +0.058 N 
ENDBRANCH  15  18
ENDBRANCH   9  10
BRANCH   9  19
ATOM     19  O   UNL     1      32.545 -25.256 -13.241  0.00  0.00    -0.378 OA
ATOM     20  H   UNL     1      33.098 -25.174 -12.448  0.00  0.00    +0.211 HD
ENDBRANCH   9  19
ENDBRANCH   1   9
BRANCH   1  21
ATOM     21  C   UNL     1      33.858 -23.296 -16.214  0.00  0.00    +0.231 C 
BRANCH  21  22
ATOM     22  O   UNL     1      33.686 -23.958 -17.471  0.00  0.00    -0.447 OA
BRANCH  22  24
ATOM     23  O   UNL     1      33.888 -23.573 -19.735  0.00  0.00    -0.250 OA
ATOM     24  C   UNL     1      34.057 -23.238 -18.572  0.00  0.00    +0.318 C 
BRANCH  24  25
ATOM     25  C   UNL     1      34.717 -21.955 -18.115  0.00  0.00    +0.121 C 
BRANCH  25  26
ATOM     26  C   UNL     1      36.188 -21.868 -18.501  0.00  0.00    +0.121 C 
BRANCH  26  28
ATOM     27  O   UNL     1      37.427 -22.525 -16.533  0.00  0.00    -0.250 OA
ATOM     28  C   UNL     1      37.059 -21.638 -17.292  0.00  0.00    +0.314 C 
BRANCH  28  29
ATOM     29  O   UNL     1      37.415 -20.337 -17.144  0.00  0.00    -0.480 OA
ATOM     30  H   UNL     1      37.187 -19.711 -17.803  0.00  0.00    +0.295 HD
ENDBRANCH  28  29
ENDBRANCH  26  28
ENDBRANCH  25  26
ENDBRANCH  24  25
ENDBRANCH  22  24
ENDBRANCH  21  22
ENDBRANCH   1  21
TORSDOF 13
ENDMDL
MODEL 7
REMARK VINA RESULT:      -8.4      6.976     10.937
REMARK  Name = 656580
REMARK  13 active torsions:
REMARK  status: ('A' for Active; 'I' for Inactive)
REMARK    1  A    between atoms: C_1  and  N_3
REMARK    2  A    between atoms: C_1  and  C_9
REMARK    3  A    between atoms: C_1  and  C_21
REMARK    4  A    between atoms: C_4  and  C_8
REMARK    5  A    between atoms: C_9  and  C_10
REMARK    6  A    between atoms: C_9  and  O_19
REMARK    7  A    between atoms: C_15  and  N_18
REMARK    8  A    between atoms: C_21  and  O_22
REMARK    9  A    between atoms: O_22  and  C_24
REMARK   10  A    between atoms: C_24  and  C_25
REMARK   11  A    between atoms: C_25  and  C_26
REMARK   12  A    between atoms: C_26  and  C_28
REMARK   13  A    between atoms: C_28  and  O_29
REMARK                            x       y       z     vdW  Elec       q    Type
REMARK                         _______ _______ _______ _____ _____    ______ ____
ROOT
ATOM      1  C   UNL     1      35.127 -16.422 -22.970  0.00  0.00    +0.147 C 
ENDROOT
BRANCH   1   3
ATOM      2  O   UNL     1      35.153 -14.605 -20.751  0.00  0.00    -0.272 OA
ATOM      3  N   UNL     1      34.051 -16.200 -22.022  0.00  0.00    -0.298 N 
ATOM      4  C   UNL     1      34.162 -15.296 -20.981  0.00  0.00    +0.253 C 
ATOM      5  H   UNL     1      33.214 -16.709 -22.123  0.00  0.00    +0.150 HD
BRANCH   4   8
ATOM      6 CL   UNL     1      32.173 -13.645 -20.351  0.00  0.00    -0.087 Cl
ATOM      7 CL   UNL     1      31.824 -16.527 -20.670  0.00  0.00    -0.087 Cl
ATOM      8  C   UNL     1      32.914 -15.239 -20.132  0.00  0.00    +0.234 C 
ENDBRANCH   4   8
ENDBRANCH   1   3
BRANCH   1   9
ATOM      9  C   UNL     1      35.197 -17.922 -23.332  0.00  0.00    +0.154 C 
BRANCH   9  10
ATOM     10  C   UNL     1      35.401 -18.831 -22.141  0.00  0.00    +0.006 C 
ATOM     11  C   UNL     1      34.337 -19.588 -21.679  0.00  0.00    -0.000 C 
ATOM     12  C   UNL     1      36.647 -18.888 -21.539  0.00  0.00    -0.000 C 
ATOM     13  C   UNL     1      34.525 -20.426 -20.580  0.00  0.00    +0.024 C 
ATOM     14  C   UNL     1      36.834 -19.728 -20.440  0.00  0.00    +0.024 C 
ATOM     15  C   UNL     1      35.772 -20.497 -19.961  0.00  0.00    +0.143 C 
BRANCH  15  18
ATOM     16  O   UNL     1      35.266 -22.390 -18.746  0.00  0.00    -0.126 OA
ATOM     17  O   UNL     1      36.824 -21.045 -17.983  0.00  0.00    -0.126 OA
ATOM     18  N   UNL     1      35.963 -21.351 -18.844  0.00  0.00    +0.058 N 
ENDBRANCH  15  18
ENDBRANCH   9  10
BRANCH   9  19
ATOM     19  O   UNL     1      33.971 -18.318 -23.957  0.00  0.00    -0.378 OA
ATOM     20  H   UNL     1      33.267 -18.357 -23.291  0.00  0.00    +0.211 HD
ENDBRANCH   9  19
ENDBRANCH   1   9
BRANCH   1  21
ATOM     21  C   UNL     1      34.943 -15.494 -24.175  0.00  0.00    +0.231 C 
BRANCH  21  22
ATOM     22  O   UNL     1      33.587 -15.483 -24.632  0.00  0.00    -0.447 OA
BRANCH  22  24
ATOM     23  O   UNL     1      32.615 -14.201 -26.284  0.00  0.00    -0.250 OA
ATOM     24  C   UNL     1      33.164 -14.313 -25.197  0.00  0.00    +0.318 C 
BRANCH  24  25
ATOM     25  C   UNL     1      33.492 -13.172 -24.258  0.00  0.00    +0.121 C 
BRANCH  25  26
ATOM     26  C   UNL     1      33.968 -11.919 -24.982  0.00  0.00    +0.121 C 
BRANCH  26  28
ATOM     27  O   UNL     1      33.059 -10.374 -23.362  0.00  0.00    -0.250 OA
ATOM     28  C   UNL     1      34.003 -10.730 -24.055  0.00  0.00    +0.314 C 
BRANCH  28  29
ATOM     29  O   UNL     1      35.207 -10.106 -24.050  0.00  0.00    -0.480 OA
ATOM     30  H   UNL     1      35.788 -10.202 -24.780  0.00  0.00    +0.295 HD
ENDBRANCH  28  29
ENDBRANCH  26  28
ENDBRANCH  25  26
ENDBRANCH  24  25
ENDBRANCH  22  24
ENDBRANCH  21  22
ENDBRANCH   1  21
TORSDOF 13
ENDMDL
MODEL 8
REMARK VINA RESULT:      -8.4      6.392      9.997
REMARK  Name = 656580
REMARK  13 active torsions:
REMARK  status: ('A' for Active; 'I' for Inactive)
REMARK    1  A    between atoms: C_1  and  N_3
REMARK    2  A    between atoms: C_1  and  C_9
REMARK    3  A    between atoms: C_1  and  C_21
REMARK    4  A    between atoms: C_4  and  C_8
REMARK    5  A    between atoms: C_9  and  C_10
REMARK    6  A    between atoms: C_9  and  O_19
REMARK    7  A    between atoms: C_15  and  N_18
REMARK    8  A    between atoms: C_21  and  O_22
REMARK    9  A    between atoms: O_22  and  C_24
REMARK   10  A    between atoms: C_24  and  C_25
REMARK   11  A    between atoms: C_25  and  C_26
REMARK   12  A    between atoms: C_26  and  C_28
REMARK   13  A    between atoms: C_28  and  O_29
REMARK                            x       y       z     vdW  Elec       q    Type
REMARK                         _______ _______ _______ _____ _____    ______ ____
ROOT
ATOM      1  C   UNL     1      34.670 -17.264 -21.641  0.00  0.00    +0.147 C 
ENDROOT
BRANCH   1   3
ATOM      2  O   UNL     1      35.254 -15.179 -23.521  0.00  0.00    -0.272 OA
ATOM      3  N   UNL     1      34.453 -17.308 -23.075  0.00  0.00    -0.298 N 
ATOM      4  C   UNL     1      34.770 -16.244 -23.900  0.00  0.00    +0.253 C 
ATOM      5  H   UNL     1      34.068 -18.122 -23.474  0.00  0.00    +0.150 HD
BRANCH   4   8
ATOM      6 CL   UNL     1      33.887 -18.200 -25.473  0.00  0.00    -0.087 Cl
ATOM      7 CL   UNL     1      33.208 -15.388 -25.876  0.00  0.00    -0.087 Cl
ATOM      8  C   UNL     1      34.458 -16.528 -25.351  0.00  0.00    +0.234 C 
ENDBRANCH   4   8
ENDBRANCH   1   3
BRANCH   1   9
ATOM      9  C   UNL     1      35.844 -18.194 -21.266  0.00  0.00    +0.154 C 
BRANCH   9  10
ATOM     10  C   UNL     1      35.415 -19.499 -20.635  0.00  0.00    +0.006 C 
ATOM     11  C   UNL     1      36.376 -20.332 -20.086  0.00  0.00    -0.000 C 
ATOM     12  C   UNL     1      34.072 -19.834 -20.616  0.00  0.00    -0.000 C 
ATOM     13  C   UNL     1      35.981 -21.536 -19.504  0.00  0.00    +0.024 C 
ATOM     14  C   UNL     1      33.677 -21.038 -20.034  0.00  0.00    +0.024 C 
ATOM     15  C   UNL     1      34.633 -21.889 -19.477  0.00  0.00    +0.143 C 
BRANCH  15  18
ATOM     16  O   UNL     1      34.249 -23.220 -17.633  0.00  0.00    -0.126 OA
ATOM     17  O   UNL     1      33.868 -24.061 -19.626  0.00  0.00    -0.126 OA
ATOM     18  N   UNL     1      34.231 -23.115 -18.884  0.00  0.00    +0.058 N 
ENDBRANCH  15  18
ENDBRANCH   9  10
BRANCH   9  19
ATOM     19  O   UNL     1      36.586 -18.522 -22.446  0.00  0.00    -0.378 OA
ATOM     20  H   UNL     1      36.214 -19.321 -22.850  0.00  0.00    +0.211 HD
ENDBRANCH   9  19
ENDBRANCH   1   9
BRANCH   1  21
ATOM     21  C   UNL     1      34.856 -15.809 -21.198  0.00  0.00    +0.231 C 
BRANCH  21  22
ATOM     22  O   UNL     1      33.872 -15.421 -20.233  0.00  0.00    -0.447 OA
BRANCH  22  24
ATOM     23  O   UNL     1      31.707 -15.981 -20.793  0.00  0.00    -0.250 OA
ATOM     24  C   UNL     1      32.623 -15.175 -20.731  0.00  0.00    +0.318 C 
BRANCH  24  25
ATOM     25  C   UNL     1      32.560 -13.737 -21.197  0.00  0.00    +0.121 C 
BRANCH  25  26
ATOM     26  C   UNL     1      32.357 -13.604 -22.702  0.00  0.00    +0.121 C 
BRANCH  26  28
ATOM     27  O   UNL     1      32.615 -11.227 -23.050  0.00  0.00    -0.250 OA
ATOM     28  C   UNL     1      33.028 -12.364 -23.238  0.00  0.00    +0.314 C 
BRANCH  28  29
ATOM     29  O   UNL     1      34.158 -12.641 -23.934  0.00  0.00    -0.480 OA
ATOM     30  H   UNL     1      34.406 -12.101 -24.660  0.00  0.00    +0.295 HD
ENDBRANCH  28  29
ENDBRANCH  26  28
ENDBRANCH  25  26
ENDBRANCH  24  25
ENDBRANCH  22  24
ENDBRANCH  21  22
ENDBRANCH   1  21
TORSDOF 13
ENDMDL
MODEL 9
REMARK VINA RESULT:      -8.4      5.947      9.529
REMARK  Name = 656580
REMARK  13 active torsions:
REMARK  status: ('A' for Active; 'I' for Inactive)
REMARK    1  A    between atoms: C_1  and  N_3
REMARK    2  A    between atoms: C_1  and  C_9
REMARK    3  A    between atoms: C_1  and  C_21
REMARK    4  A    between atoms: C_4  and  C_8
REMARK    5  A    between atoms: C_9  and  C_10
REMARK    6  A    between atoms: C_9  and  O_19
REMARK    7  A    between atoms: C_15  and  N_18
REMARK    8  A    between atoms: C_21  and  O_22
REMARK    9  A    between atoms: O_22  and  C_24
REMARK   10  A    between atoms: C_24  and  C_25
REMARK   11  A    between atoms: C_25  and  C_26
REMARK   12  A    between atoms: C_26  and  C_28
REMARK   13  A    between atoms: C_28  and  O_29
REMARK                            x       y       z     vdW  Elec       q    Type
REMARK                         _______ _______ _______ _____ _____    ______ ____
ROOT
ATOM      1  C   UNL     1      34.436 -19.021 -21.940  0.00  0.00    +0.147 C 
ENDROOT
BRANCH   1   3
ATOM      2  O   UNL     1      32.662 -20.571 -20.304  0.00  0.00    -0.272 OA
ATOM      3  N   UNL     1      34.801 -20.135 -21.085  0.00  0.00    -0.298 N 
ATOM      4  C   UNL     1      33.866 -20.821 -20.331  0.00  0.00    +0.253 C 
ATOM      5  H   UNL     1      35.745 -20.411 -21.039  0.00  0.00    +0.150 HD
BRANCH   4   8
ATOM      6 CL   UNL     1      35.998 -21.342 -18.829  0.00  0.00    -0.087 Cl
ATOM      7 CL   UNL     1      33.338 -22.402 -18.258  0.00  0.00    -0.087 Cl
ATOM      8  C   UNL     1      34.484 -21.939 -19.526  0.00  0.00    +0.234 C 
ENDBRANCH   4   8
ENDBRANCH   1   3
BRANCH   1   9
ATOM      9  C   UNL     1      35.261 -17.776 -21.549  0.00  0.00    +0.154 C 
BRANCH   9  10
ATOM     10  C   UNL     1      34.440 -16.512 -21.424  0.00  0.00    +0.006 C 
ATOM     11  C   UNL     1      35.023 -15.295 -21.736  0.00  0.00    -0.000 C 
ATOM     12  C   UNL     1      33.124 -16.597 -21.002  0.00  0.00    -0.000 C 
ATOM     13  C   UNL     1      34.267 -14.128 -21.620  0.00  0.00    +0.024 C 
ATOM     14  C   UNL     1      32.368 -15.430 -20.887  0.00  0.00    +0.024 C 
ATOM     15  C   UNL     1      32.940 -14.196 -21.197  0.00  0.00    +0.143 C 
BRANCH  15  18
ATOM     16  O   UNL     1      31.993 -12.508 -19.943  0.00  0.00    -0.126 OA
ATOM     17  O   UNL     1      31.689 -12.490 -22.118  0.00  0.00    -0.126 OA
ATOM     18  N   UNL     1      32.171 -13.008 -21.080  0.00  0.00    +0.058 N 
ENDBRANCH  15  18
ENDBRANCH   9  10
BRANCH   9  19
ATOM     19  O   UNL     1      35.885 -17.998 -20.280  0.00  0.00    -0.378 OA
ATOM     20  H   UNL     1      36.829 -17.787 -20.342  0.00  0.00    +0.211 HD
ENDBRANCH   9  19
ENDBRANCH   1   9
BRANCH   1  21
ATOM     21  C   UNL     1      34.585 -19.436 -23.408  0.00  0.00    +0.231 C 
BRANCH  21  22
ATOM     22  O   UNL     1      35.200 -18.406 -24.188  0.00  0.00    -0.447 OA
BRANCH  22  24
ATOM     23  O   UNL     1      33.490 -18.327 -25.733  0.00  0.00    -0.250 OA
ATOM     24  C   UNL     1      34.387 -17.791 -25.099  0.00  0.00    +0.318 C 
BRANCH  24  25
ATOM     25  C   UNL     1      34.782 -16.333 -25.197  0.00  0.00    +0.121 C 
BRANCH  25  26
ATOM     26  C   UNL     1      33.602 -15.382 -25.037  0.00  0.00    +0.121 C 
BRANCH  26  28
ATOM     27  O   UNL     1      33.362 -13.941 -26.962  0.00  0.00    -0.250 OA
ATOM     28  C   UNL     1      33.046 -14.968 -26.376  0.00  0.00    +0.314 C 
BRANCH  28  29
ATOM     29  O   UNL     1      32.169 -15.872 -26.880  0.00  0.00    -0.480 OA
ATOM     30  H   UNL     1      32.350 -16.298 -27.695  0.00  0.00    +0.295 HD
ENDBRANCH  28  29
ENDBRANCH  26  28
ENDBRANCH  25  26
ENDBRANCH  24  25
ENDBRANCH  22  24
ENDBRANCH  21  22
ENDBRANCH   1  21
TORSDOF 13
ENDMDL
