MODEL 1
REMARK VINA RESULT:      -4.8      0.000      0.000
REMARK  Name = 25945
REMARK  6 active torsions:
REMARK  status: ('A' for Active; 'I' for Inactive)
REMARK    1  A    between atoms: C_1  and  C_2
REMARK    2  A    between atoms: C_1  and  C_6
REMARK    3  A    between atoms: C_2  and  C_3
REMARK    4  A    between atoms: C_3  and  O_4
REMARK    5  A    between atoms: C_6  and  C_8
REMARK    6  A    between atoms: C_8  and  O_9
REMARK                            x       y       z     vdW  Elec       q    Type
REMARK                         _______ _______ _______ _____ _____    ______ ____
ROOT
ATOM      1  C   UNL     1      38.303 -24.648 -14.441  0.00  0.00    +0.014 C 
ENDROOT
BRANCH   1   2
ATOM      2  C   UNL     1      36.994 -25.171 -15.048  0.00  0.00    +0.032 C 
BRANCH   2   3
ATOM      3  C   UNL     1      36.889 -26.689 -14.960  0.00  0.00    +0.137 C 
BRANCH   3   4
ATOM      4  O   UNL     1      36.803 -27.246 -16.265  0.00  0.00    -0.382 OA
ATOM      5  H   UNL     1      37.305 -28.075 -16.296  0.00  0.00    +0.210 HD
ENDBRANCH   3   4
ENDBRANCH   2   3
ENDBRANCH   1   2
BRANCH   1   6
ATOM      6  C   UNL     1      39.161 -25.769 -13.854  0.00  0.00    +0.109 C 
BRANCH   6   8
ATOM      7  O   UNL     1      40.523 -25.821 -15.875  0.00  0.00    -0.250 OA
ATOM      8  C   UNL     1      40.385 -26.083 -14.688  0.00  0.00    +0.314 C 
BRANCH   8   9
ATOM      9  O   UNL     1      41.332 -26.727 -13.956  0.00  0.00    -0.480 OA
ATOM     10  H   UNL     1      41.517 -27.631 -14.122  0.00  0.00    +0.295 HD
ENDBRANCH   8   9
ENDBRANCH   6   8
ENDBRANCH   1   6
TORSDOF 6
ENDMDL
MODEL 2
REMARK VINA RESULT:      -4.8      2.465      3.260
REMARK  Name = 25945
REMARK  6 active torsions:
REMARK  status: ('A' for Active; 'I' for Inactive)
REMARK    1  A    between atoms: C_1  and  C_2
REMARK    2  A    between atoms: C_1  and  C_6
REMARK    3  A    between atoms: C_2  and  C_3
REMARK    4  A    between atoms: C_3  and  O_4
REMARK    5  A    between atoms: C_6  and  C_8
REMARK    6  A    between atoms: C_8  and  O_9
REMARK                            x       y       z     vdW  Elec       q    Type
REMARK                         _______ _______ _______ _____ _____    ______ ____
ROOT
ATOM      1  C   UNL     1      38.694 -25.037 -12.942  0.00  0.00    +0.014 C 
ENDROOT
BRANCH   1   2
ATOM      2  C   UNL     1      37.281 -24.450 -12.819  0.00  0.00    +0.032 C 
BRANCH   2   3
ATOM      3  C   UNL     1      37.235 -23.265 -11.861  0.00  0.00    +0.137 C 
BRANCH   3   4
ATOM      4  O   UNL     1      38.546 -22.758 -11.653  0.00  0.00    -0.382 OA
ATOM      5  H   UNL     1      38.656 -22.520 -10.719  0.00  0.00    +0.210 HD
ENDBRANCH   3   4
ENDBRANCH   2   3
ENDBRANCH   1   2
BRANCH   1   6
ATOM      6  C   UNL     1      38.926 -25.717 -14.292  0.00  0.00    +0.109 C 
BRANCH   6   8
ATOM      7  O   UNL     1      41.107 -24.639 -14.421  0.00  0.00    -0.250 OA
ATOM      8  C   UNL     1      40.255 -25.359 -14.921  0.00  0.00    +0.314 C 
BRANCH   8   9
ATOM      9  O   UNL     1      40.392 -25.926 -16.148  0.00  0.00    -0.480 OA
ATOM     10  H   UNL     1      40.988 -26.639 -16.271  0.00  0.00    +0.295 HD
ENDBRANCH   8   9
ENDBRANCH   6   8
ENDBRANCH   1   6
TORSDOF 6
ENDMDL
MODEL 3
REMARK VINA RESULT:      -4.7      8.734     10.888
REMARK  Name = 25945
REMARK  6 active torsions:
REMARK  status: ('A' for Active; 'I' for Inactive)
REMARK    1  A    between atoms: C_1  and  C_2
REMARK    2  A    between atoms: C_1  and  C_6
REMARK    3  A    between atoms: C_2  and  C_3
REMARK    4  A    between atoms: C_3  and  O_4
REMARK    5  A    between atoms: C_6  and  C_8
REMARK    6  A    between atoms: C_8  and  O_9
REMARK                            x       y       z     vdW  Elec       q    Type
REMARK                         _______ _______ _______ _____ _____    ______ ____
ROOT
ATOM      1  C   UNL     1      29.775 -23.498 -15.787  0.00  0.00    +0.014 C 
ENDROOT
BRANCH   1   2
ATOM      2  C   UNL     1      29.567 -24.755 -14.932  0.00  0.00    +0.032 C 
BRANCH   2   3
ATOM      3  C   UNL     1      30.803 -25.099 -14.109  0.00  0.00    +0.137 C 
BRANCH   3   4
ATOM      4  O   UNL     1      30.545 -24.873 -12.730  0.00  0.00    -0.382 OA
ATOM      5  H   UNL     1      29.589 -24.898 -12.571  0.00  0.00    +0.210 HD
ENDBRANCH   3   4
ENDBRANCH   2   3
ENDBRANCH   1   2
BRANCH   1   6
ATOM      6  C   UNL     1      28.567 -22.561 -15.750  0.00  0.00    +0.109 C 
BRANCH   6   8
ATOM      7  O   UNL     1      27.596 -23.593 -17.733  0.00  0.00    -0.250 OA
ATOM      8  C   UNL     1      27.731 -22.616 -17.010  0.00  0.00    +0.314 C 
BRANCH   8   9
ATOM      9  O   UNL     1      27.147 -21.417 -17.270  0.00  0.00    -0.480 OA
ATOM     10  H   UNL     1      26.290 -21.231 -16.937  0.00  0.00    +0.295 HD
ENDBRANCH   8   9
ENDBRANCH   6   8
ENDBRANCH   1   6
TORSDOF 6
ENDMDL
MODEL 4
REMARK VINA RESULT:      -4.6     11.049     12.029
REMARK  Name = 25945
REMARK  6 active torsions:
REMARK  status: ('A' for Active; 'I' for Inactive)
REMARK    1  A    between atoms: C_1  and  C_2
REMARK    2  A    between atoms: C_1  and  C_6
REMARK    3  A    between atoms: C_2  and  C_3
REMARK    4  A    between atoms: C_3  and  O_4
REMARK    5  A    between atoms: C_6  and  C_8
REMARK    6  A    between atoms: C_8  and  O_9
REMARK                            x       y       z     vdW  Elec       q    Type
REMARK                         _______ _______ _______ _____ _____    ______ ____
ROOT
ATOM      1  C   UNL     1      35.351 -18.779 -23.633  0.00  0.00    +0.014 C 
ENDROOT
BRANCH   1   2
ATOM      2  C   UNL     1      34.547 -17.953 -24.647  0.00  0.00    +0.032 C 
BRANCH   2   3
ATOM      3  C   UNL     1      34.555 -16.467 -24.309  0.00  0.00    +0.137 C 
BRANCH   3   4
ATOM      4  O   UNL     1      35.717 -16.146 -23.557  0.00  0.00    -0.382 OA
ATOM      5  H   UNL     1      36.490 -16.143 -24.142  0.00  0.00    +0.210 HD
ENDBRANCH   3   4
ENDBRANCH   2   3
ENDBRANCH   1   2
BRANCH   1   6
ATOM      6  C   UNL     1      34.524 -19.159 -22.405  0.00  0.00    +0.109 C 
BRANCH   6   8
ATOM      7  O   UNL     1      35.662 -19.761 -20.336  0.00  0.00    -0.250 OA
ATOM      8  C   UNL     1      35.242 -18.902 -21.098  0.00  0.00    +0.314 C 
BRANCH   8   9
ATOM      9  O   UNL     1      35.353 -17.571 -20.847  0.00  0.00    -0.480 OA
ATOM     10  H   UNL     1      34.604 -17.014 -20.932  0.00  0.00    +0.295 HD
ENDBRANCH   8   9
ENDBRANCH   6   8
ENDBRANCH   1   6
TORSDOF 6
ENDMDL
MODEL 5
REMARK VINA RESULT:      -4.6      4.008      4.775
REMARK  Name = 25945
REMARK  6 active torsions:
REMARK  status: ('A' for Active; 'I' for Inactive)
REMARK    1  A    between atoms: C_1  and  C_2
REMARK    2  A    between atoms: C_1  and  C_6
REMARK    3  A    between atoms: C_2  and  C_3
REMARK    4  A    between atoms: C_3  and  O_4
REMARK    5  A    between atoms: C_6  and  C_8
REMARK    6  A    between atoms: C_8  and  O_9
REMARK                            x       y       z     vdW  Elec       q    Type
REMARK                         _______ _______ _______ _____ _____    ______ ____
ROOT
ATOM      1  C   UNL     1      37.836 -24.093 -12.541  0.00  0.00    +0.014 C 
ENDROOT
BRANCH   1   2
ATOM      2  C   UNL     1      37.559 -24.748 -13.901  0.00  0.00    +0.032 C 
BRANCH   2   3
ATOM      3  C   UNL     1      37.756 -26.259 -13.860  0.00  0.00    +0.137 C 
BRANCH   3   4
ATOM      4  O   UNL     1      36.787 -26.850 -13.005  0.00  0.00    -0.382 OA
ATOM      5  H   UNL     1      36.486 -26.196 -12.356  0.00  0.00    +0.210 HD
ENDBRANCH   3   4
ENDBRANCH   2   3
ENDBRANCH   1   2
BRANCH   1   6
ATOM      6  C   UNL     1      36.606 -23.381 -11.977  0.00  0.00    +0.109 C 
BRANCH   6   8
ATOM      7  O   UNL     1      36.003 -24.256  -9.784  0.00  0.00    -0.250 OA
ATOM      8  C   UNL     1      35.826 -24.227 -10.994  0.00  0.00    +0.314 C 
BRANCH   8   9
ATOM      9  O   UNL     1      34.895 -24.990 -11.625  0.00  0.00    -0.480 OA
ATOM     10  H   UNL     1      34.633 -25.810 -11.254  0.00  0.00    +0.295 HD
ENDBRANCH   8   9
ENDBRANCH   6   8
ENDBRANCH   1   6
TORSDOF 6
ENDMDL
MODEL 6
REMARK VINA RESULT:      -4.6      7.968      9.477
REMARK  Name = 25945
REMARK  6 active torsions:
REMARK  status: ('A' for Active; 'I' for Inactive)
REMARK    1  A    between atoms: C_1  and  C_2
REMARK    2  A    between atoms: C_1  and  C_6
REMARK    3  A    between atoms: C_2  and  C_3
REMARK    4  A    between atoms: C_3  and  O_4
REMARK    5  A    between atoms: C_6  and  C_8
REMARK    6  A    between atoms: C_8  and  O_9
REMARK                            x       y       z     vdW  Elec       q    Type
REMARK                         _______ _______ _______ _____ _____    ______ ____
ROOT
ATOM      1  C   UNL     1      33.552 -20.153 -20.489  0.00  0.00    +0.014 C 
ENDROOT
BRANCH   1   2
ATOM      2  C   UNL     1      34.271 -19.484 -21.668  0.00  0.00    +0.032 C 
BRANCH   2   3
ATOM      3  C   UNL     1      35.611 -18.884 -21.256  0.00  0.00    +0.137 C 
BRANCH   3   4
ATOM      4  O   UNL     1      35.408 -17.615 -20.650  0.00  0.00    -0.382 OA
ATOM      5  H   UNL     1      36.227 -17.098 -20.700  0.00  0.00    +0.210 HD
ENDBRANCH   3   4
ENDBRANCH   2   3
ENDBRANCH   1   2
BRANCH   1   6
ATOM      6  C   UNL     1      34.443 -21.158 -19.757  0.00  0.00    +0.109 C 
BRANCH   6   8
ATOM      7  O   UNL     1      34.072 -23.547 -19.448  0.00  0.00    -0.250 OA
ATOM      8  C   UNL     1      33.698 -22.392 -19.298  0.00  0.00    +0.314 C 
BRANCH   8   9
ATOM      9  O   UNL     1      32.521 -22.068 -18.701  0.00  0.00    -0.480 OA
ATOM     10  H   UNL     1      31.728 -22.063 -19.201  0.00  0.00    +0.295 HD
ENDBRANCH   8   9
ENDBRANCH   6   8
ENDBRANCH   1   6
TORSDOF 6
ENDMDL
MODEL 7
REMARK VINA RESULT:      -4.6     11.923     12.941
REMARK  Name = 25945
REMARK  6 active torsions:
REMARK  status: ('A' for Active; 'I' for Inactive)
REMARK    1  A    between atoms: C_1  and  C_2
REMARK    2  A    between atoms: C_1  and  C_6
REMARK    3  A    between atoms: C_2  and  C_3
REMARK    4  A    between atoms: C_3  and  O_4
REMARK    5  A    between atoms: C_6  and  C_8
REMARK    6  A    between atoms: C_8  and  O_9
REMARK                            x       y       z     vdW  Elec       q    Type
REMARK                         _______ _______ _______ _____ _____    ______ ____
ROOT
ATOM      1  C   UNL     1      35.443 -18.843 -23.433  0.00  0.00    +0.014 C 
ENDROOT
BRANCH   1   2
ATOM      2  C   UNL     1      34.696 -19.330 -22.184  0.00  0.00    +0.032 C 
BRANCH   2   3
ATOM      3  C   UNL     1      34.214 -18.173 -21.317  0.00  0.00    +0.137 C 
BRANCH   3   4
ATOM      4  O   UNL     1      35.285 -17.274 -21.069  0.00  0.00    -0.382 OA
ATOM      5  H   UNL     1      36.122 -17.685 -21.339  0.00  0.00    +0.210 HD
ENDBRANCH   3   4
ENDBRANCH   2   3
ENDBRANCH   1   2
BRANCH   1   6
ATOM      6  C   UNL     1      34.497 -18.276 -24.492  0.00  0.00    +0.109 C 
BRANCH   6   8
ATOM      7  O   UNL     1      34.492 -16.303 -25.924  0.00  0.00    -0.250 OA
ATOM      8  C   UNL     1      34.822 -16.850 -24.880  0.00  0.00    +0.314 C 
BRANCH   8   9
ATOM      9  O   UNL     1      35.562 -16.231 -23.923  0.00  0.00    -0.480 OA
ATOM     10  H   UNL     1      35.219 -15.481 -23.478  0.00  0.00    +0.295 HD
ENDBRANCH   8   9
ENDBRANCH   6   8
ENDBRANCH   1   6
TORSDOF 6
ENDMDL
MODEL 8
REMARK VINA RESULT:      -4.5     10.582     11.358
REMARK  Name = 25945
REMARK  6 active torsions:
REMARK  status: ('A' for Active; 'I' for Inactive)
REMARK    1  A    between atoms: C_1  and  C_2
REMARK    2  A    between atoms: C_1  and  C_6
REMARK    3  A    between atoms: C_2  and  C_3
REMARK    4  A    between atoms: C_3  and  O_4
REMARK    5  A    between atoms: C_6  and  C_8
REMARK    6  A    between atoms: C_8  and  O_9
REMARK                            x       y       z     vdW  Elec       q    Type
REMARK                         _______ _______ _______ _____ _____    ______ ____
ROOT
ATOM      1  C   UNL     1      41.245 -14.448 -17.394  0.00  0.00    +0.014 C 
ENDROOT
BRANCH   1   2
ATOM      2  C   UNL     1      41.602 -13.946 -15.988  0.00  0.00    +0.032 C 
BRANCH   2   3
ATOM      3  C   UNL     1      40.886 -14.735 -14.899  0.00  0.00    +0.137 C 
BRANCH   3   4
ATOM      4  O   UNL     1      40.339 -15.928 -15.444  0.00  0.00    -0.382 OA
ATOM      5  H   UNL     1      39.536 -15.716 -15.945  0.00  0.00    +0.210 HD
ENDBRANCH   3   4
ENDBRANCH   2   3
ENDBRANCH   1   2
BRANCH   1   6
ATOM      6  C   UNL     1      42.465 -14.976 -18.150  0.00  0.00    +0.109 C 
BRANCH   6   8
ATOM      7  O   UNL     1      42.091 -17.260 -17.388  0.00  0.00    -0.250 OA
ATOM      8  C   UNL     1      42.505 -16.486 -18.240  0.00  0.00    +0.314 C 
BRANCH   8   9
ATOM      9  O   UNL     1      43.089 -16.899 -19.395  0.00  0.00    -0.480 OA
ATOM     10  H   UNL     1      42.940 -17.770 -19.709  0.00  0.00    +0.295 HD
ENDBRANCH   8   9
ENDBRANCH   6   8
ENDBRANCH   1   6
TORSDOF 6
ENDMDL
MODEL 9
REMARK VINA RESULT:      -4.5     10.725     11.759
REMARK  Name = 25945
REMARK  6 active torsions:
REMARK  status: ('A' for Active; 'I' for Inactive)
REMARK    1  A    between atoms: C_1  and  C_2
REMARK    2  A    between atoms: C_1  and  C_6
REMARK    3  A    between atoms: C_2  and  C_3
REMARK    4  A    between atoms: C_3  and  O_4
REMARK    5  A    between atoms: C_6  and  C_8
REMARK    6  A    between atoms: C_8  and  O_9
REMARK                            x       y       z     vdW  Elec       q    Type
REMARK                         _______ _______ _______ _____ _____    ______ ____
ROOT
ATOM      1  C   UNL     1      41.318 -14.415 -17.266  0.00  0.00    +0.014 C 
ENDROOT
BRANCH   1   2
ATOM      2  C   UNL     1      42.542 -15.096 -17.894  0.00  0.00    +0.032 C 
BRANCH   2   3
ATOM      3  C   UNL     1      42.343 -16.598 -18.054  0.00  0.00    +0.137 C 
BRANCH   3   4
ATOM      4  O   UNL     1      41.977 -17.174 -16.808  0.00  0.00    -0.382 OA
ATOM      5  H   UNL     1      42.765 -17.539 -16.376  0.00  0.00    +0.210 HD
ENDBRANCH   3   4
ENDBRANCH   2   3
ENDBRANCH   1   2
BRANCH   1   6
ATOM      6  C   UNL     1      41.649 -13.732 -15.938  0.00  0.00    +0.109 C 
BRANCH   6   8
ATOM      7  O   UNL     1      40.649 -13.693 -13.716  0.00  0.00    -0.250 OA
ATOM      8  C   UNL     1      40.850 -14.275 -14.773  0.00  0.00    +0.314 C 
BRANCH   8   9
ATOM      9  O   UNL     1      40.387 -15.526 -15.029  0.00  0.00    -0.480 OA
ATOM     10  H   UNL     1      40.467 -15.888 -15.890  0.00  0.00    +0.295 HD
ENDBRANCH   8   9
ENDBRANCH   6   8
ENDBRANCH   1   6
TORSDOF 6
ENDMDL
