MODEL 1
REMARK VINA RESULT:      -8.8      0.000      0.000
REMARK  Name = 10770
REMARK  6 active torsions:
REMARK  status: ('A' for Active; 'I' for Inactive)
REMARK    1  A    between atoms: C_1  and  O_3
REMARK    2  A    between atoms: C_1  and  C_12
REMARK    3  A    between atoms: O_3  and  C_5
REMARK    4  A    between atoms: C_5  and  C_6
REMARK    5  A    between atoms: C_12  and  N_13
REMARK    6  A    between atoms: N_13  and  C_16
REMARK                            x       y       z     vdW  Elec       q    Type
REMARK                         _______ _______ _______ _____ _____    ______ ____
ROOT
ATOM      1  C   UNL     1      34.948 -16.320 -22.224  0.00  0.00    +0.148 C 
ATOM      2  C   UNL     1      34.414 -15.716 -20.931  0.00  0.00    +0.045 C 
ENDROOT
BRANCH   1   3
ATOM      3  O   UNL     1      34.586 -17.701 -22.236  0.00  0.00    -0.451 OA
BRANCH   3   5
ATOM      4  O   UNL     1      36.724 -18.501 -21.935  0.00  0.00    -0.245 OA
ATOM      5  C   UNL     1      35.518 -18.562 -21.748  0.00  0.00    +0.341 C 
BRANCH   5   6
ATOM      6  C   UNL     1      34.873 -19.622 -20.935  0.00  0.00    +0.076 C 
ATOM      7  C   UNL     1      33.497 -19.634 -20.824  0.00  0.00    +0.006 C 
ATOM      8  C   UNL     1      35.668 -20.564 -20.313  0.00  0.00    +0.006 C 
ATOM      9  C   UNL     1      32.890 -20.631 -20.060  0.00  0.00    +0.000 C 
ATOM     10  C   UNL     1      35.061 -21.560 -19.549  0.00  0.00    +0.000 C 
ATOM     11  C   UNL     1      33.672 -21.593 -19.421  0.00  0.00    +0.000 C 
ENDBRANCH   5   6
ENDBRANCH   3   5
ENDBRANCH   1   3
BRANCH   1  12
ATOM     12  C   UNL     1      34.379 -15.653 -23.478  0.00  0.00    -0.037 C 
BRANCH  12  13
ATOM     13  N   UNL     1      33.197 -14.856 -23.188  0.00  0.00    +0.388 N 
ATOM     14  H   UNL     1      32.393 -15.476 -23.090  0.00  0.00    -0.084 HD
ATOM     15  H   UNL     1      33.355 -14.341 -22.322  0.00  0.00    -0.084 HD
BRANCH  13  16
ATOM     16  C   UNL     1      32.939 -13.900 -24.263  0.00  0.00    -0.062 C 
ATOM     17  C   UNL     1      33.872 -12.693 -24.120  0.00  0.00    -0.021 C 
ATOM     18  C   UNL     1      33.122 -14.583 -25.622  0.00  0.00    -0.021 C 
ATOM     19  C   UNL     1      33.684 -11.706 -25.272  0.00  0.00    -0.002 C 
ATOM     20  C   UNL     1      32.934 -13.595 -26.772  0.00  0.00    -0.002 C 
ATOM     21  C   UNL     1      33.853 -12.385 -26.629  0.00  0.00    -0.000 C 
ENDBRANCH  13  16
ENDBRANCH  12  13
ENDBRANCH   1  12
TORSDOF 6
ENDMDL
MODEL 2
REMARK VINA RESULT:      -8.8      1.529      2.549
REMARK  Name = 10770
REMARK  6 active torsions:
REMARK  status: ('A' for Active; 'I' for Inactive)
REMARK    1  A    between atoms: C_1  and  O_3
REMARK    2  A    between atoms: C_1  and  C_12
REMARK    3  A    between atoms: O_3  and  C_5
REMARK    4  A    between atoms: C_5  and  C_6
REMARK    5  A    between atoms: C_12  and  N_13
REMARK    6  A    between atoms: N_13  and  C_16
REMARK                            x       y       z     vdW  Elec       q    Type
REMARK                         _______ _______ _______ _____ _____    ______ ____
ROOT
ATOM      1  C   UNL     1      34.728 -18.124 -23.549  0.00  0.00    +0.148 C 
ATOM      2  C   UNL     1      34.720 -19.198 -24.630  0.00  0.00    +0.045 C 
ENDROOT
BRANCH   1   3
ATOM      3  O   UNL     1      35.711 -18.493 -22.582  0.00  0.00    -0.451 OA
BRANCH   3   5
ATOM      4  O   UNL     1      35.362 -17.256 -20.673  0.00  0.00    -0.245 OA
ATOM      5  C   UNL     1      35.359 -18.315 -21.282  0.00  0.00    +0.341 C 
BRANCH   5   6
ATOM      6  C   UNL     1      34.958 -19.605 -20.669  0.00  0.00    +0.076 C 
ATOM      7  C   UNL     1      33.615 -19.897 -20.547  0.00  0.00    +0.006 C 
ATOM      8  C   UNL     1      35.941 -20.474 -20.238  0.00  0.00    +0.006 C 
ATOM      9  C   UNL     1      33.238 -21.111 -19.971  0.00  0.00    +0.000 C 
ATOM     10  C   UNL     1      35.563 -21.687 -19.663  0.00  0.00    +0.000 C 
ATOM     11  C   UNL     1      34.212 -22.004 -19.528  0.00  0.00    +0.000 C 
ENDBRANCH   5   6
ENDBRANCH   3   5
ENDBRANCH   1   3
BRANCH   1  12
ATOM     12  C   UNL     1      35.067 -16.732 -24.088  0.00  0.00    -0.037 C 
BRANCH  12  13
ATOM     13  N   UNL     1      33.875 -15.942 -24.353  0.00  0.00    +0.388 N 
ATOM     14  H   UNL     1      33.923 -15.575 -25.304  0.00  0.00    -0.084 HD
ATOM     15  H   UNL     1      33.056 -16.539 -24.244  0.00  0.00    -0.084 HD
BRANCH  13  16
ATOM     16  C   UNL     1      33.772 -14.827 -23.413  0.00  0.00    -0.062 C 
ATOM     17  C   UNL     1      33.116 -13.625 -24.102  0.00  0.00    -0.021 C 
ATOM     18  C   UNL     1      32.975 -15.259 -22.178  0.00  0.00    -0.021 C 
ATOM     19  C   UNL     1      32.922 -12.464 -23.128  0.00  0.00    -0.002 C 
ATOM     20  C   UNL     1      32.781 -14.097 -21.206  0.00  0.00    -0.002 C 
ATOM     21  C   UNL     1      32.138 -12.893 -21.890  0.00  0.00    -0.000 C 
ENDBRANCH  13  16
ENDBRANCH  12  13
ENDBRANCH   1  12
TORSDOF 6
ENDMDL
MODEL 3
REMARK VINA RESULT:      -8.8      2.105      7.334
REMARK  Name = 10770
REMARK  6 active torsions:
REMARK  status: ('A' for Active; 'I' for Inactive)
REMARK    1  A    between atoms: C_1  and  O_3
REMARK    2  A    between atoms: C_1  and  C_12
REMARK    3  A    between atoms: O_3  and  C_5
REMARK    4  A    between atoms: C_5  and  C_6
REMARK    5  A    between atoms: C_12  and  N_13
REMARK    6  A    between atoms: N_13  and  C_16
REMARK                            x       y       z     vdW  Elec       q    Type
REMARK                         _______ _______ _______ _____ _____    ______ ____
ROOT
ATOM      1  C   UNL     1      35.062 -17.323 -23.338  0.00  0.00    +0.148 C 
ATOM      2  C   UNL     1      34.801 -17.187 -24.833  0.00  0.00    +0.045 C 
ENDROOT
BRANCH   1   3
ATOM      3  O   UNL     1      33.963 -16.723 -22.652  0.00  0.00    -0.451 OA
BRANCH   3   5
ATOM      4  O   UNL     1      35.037 -15.959 -20.764  0.00  0.00    -0.245 OA
ATOM      5  C   UNL     1      34.287 -15.794 -21.714  0.00  0.00    +0.341 C 
BRANCH   5   6
ATOM      6  C   UNL     1      33.595 -14.511 -21.992  0.00  0.00    +0.076 C 
ATOM      7  C   UNL     1      32.660 -14.047 -21.088  0.00  0.00    +0.006 C 
ATOM      8  C   UNL     1      33.906 -13.821 -23.146  0.00  0.00    +0.006 C 
ATOM      9  C   UNL     1      32.011 -12.840 -21.349  0.00  0.00    +0.000 C 
ATOM     10  C   UNL     1      33.256 -12.614 -23.406  0.00  0.00    +0.000 C 
ATOM     11  C   UNL     1      32.308 -12.125 -22.509  0.00  0.00    +0.000 C 
ENDBRANCH   5   6
ENDBRANCH   3   5
ENDBRANCH   1   3
BRANCH   1  12
ATOM     12  C   UNL     1      35.190 -18.778 -22.881  0.00  0.00    -0.037 C 
BRANCH  12  13
ATOM     13  N   UNL     1      36.024 -18.910 -21.697  0.00  0.00    +0.388 N 
ATOM     14  H   UNL     1      36.847 -19.468 -21.929  0.00  0.00    -0.084 HD
ATOM     15  H   UNL     1      36.303 -17.979 -21.388  0.00  0.00    -0.084 HD
BRANCH  13  16
ATOM     16  C   UNL     1      35.290 -19.563 -20.615  0.00  0.00    -0.062 C 
ATOM     17  C   UNL     1      33.849 -19.839 -21.057  0.00  0.00    -0.021 C 
ATOM     18  C   UNL     1      36.002 -20.858 -20.209  0.00  0.00    -0.021 C 
ATOM     19  C   UNL     1      33.071 -20.591 -19.978  0.00  0.00    -0.002 C 
ATOM     20  C   UNL     1      35.223 -21.608 -19.131  0.00  0.00    -0.002 C 
ATOM     21  C   UNL     1      33.783 -21.876 -19.562  0.00  0.00    -0.000 C 
ENDBRANCH  13  16
ENDBRANCH  12  13
ENDBRANCH   1  12
TORSDOF 6
ENDMDL
MODEL 4
REMARK VINA RESULT:      -8.7      5.823     11.282
REMARK  Name = 10770
REMARK  6 active torsions:
REMARK  status: ('A' for Active; 'I' for Inactive)
REMARK    1  A    between atoms: C_1  and  O_3
REMARK    2  A    between atoms: C_1  and  C_12
REMARK    3  A    between atoms: O_3  and  C_5
REMARK    4  A    between atoms: C_5  and  C_6
REMARK    5  A    between atoms: C_12  and  N_13
REMARK    6  A    between atoms: N_13  and  C_16
REMARK                            x       y       z     vdW  Elec       q    Type
REMARK                         _______ _______ _______ _____ _____    ______ ____
ROOT
ATOM      1  C   UNL     1      35.342 -22.523 -16.647  0.00  0.00    +0.148 C 
ATOM      2  C   UNL     1      36.832 -22.203 -16.658  0.00  0.00    +0.045 C 
ENDROOT
BRANCH   1   3
ATOM      3  O   UNL     1      34.986 -22.967 -17.956  0.00  0.00    -0.451 OA
BRANCH   3   5
ATOM      4  O   UNL     1      32.694 -22.854 -18.135  0.00  0.00    -0.245 OA
ATOM      5  C   UNL     1      33.815 -22.483 -18.448  0.00  0.00    +0.341 C 
BRANCH   5   6
ATOM      6  C   UNL     1      34.071 -21.414 -19.445  0.00  0.00    +0.076 C 
ATOM      7  C   UNL     1      35.367 -21.186 -19.861  0.00  0.00    +0.006 C 
ATOM      8  C   UNL     1      33.005 -20.680 -19.925  0.00  0.00    +0.006 C 
ATOM      9  C   UNL     1      35.607 -20.182 -20.799  0.00  0.00    +0.000 C 
ATOM     10  C   UNL     1      33.247 -19.676 -20.862  0.00  0.00    +0.000 C 
ATOM     11  C   UNL     1      34.548 -19.426 -21.298  0.00  0.00    +0.000 C 
ENDBRANCH   5   6
ENDBRANCH   3   5
ENDBRANCH   1   3
BRANCH   1  12
ATOM     12  C   UNL     1      34.969 -23.613 -15.640  0.00  0.00    -0.037 C 
BRANCH  12  13
ATOM     13  N   UNL     1      35.034 -23.137 -14.267  0.00  0.00    +0.388 N 
ATOM     14  H   UNL     1      35.449 -22.205 -14.256  0.00  0.00    -0.084 HD
ATOM     15  H   UNL     1      34.089 -23.108 -13.886  0.00  0.00    -0.084 HD
BRANCH  13  16
ATOM     16  C   UNL     1      35.844 -24.034 -13.445  0.00  0.00    -0.062 C 
ATOM     17  C   UNL     1      36.294 -25.239 -14.278  0.00  0.00    -0.021 C 
ATOM     18  C   UNL     1      37.047 -23.275 -12.876  0.00  0.00    -0.021 C 
ATOM     19  C   UNL     1      37.208 -26.162 -13.472  0.00  0.00    -0.002 C 
ATOM     20  C   UNL     1      37.959 -24.199 -12.071  0.00  0.00    -0.002 C 
ATOM     21  C   UNL     1      38.402 -25.407 -12.893  0.00  0.00    -0.000 C 
ENDBRANCH  13  16
ENDBRANCH  12  13
ENDBRANCH   1  12
TORSDOF 6
ENDMDL
MODEL 5
REMARK VINA RESULT:      -8.7      3.239      4.592
REMARK  Name = 10770
REMARK  6 active torsions:
REMARK  status: ('A' for Active; 'I' for Inactive)
REMARK    1  A    between atoms: C_1  and  O_3
REMARK    2  A    between atoms: C_1  and  C_12
REMARK    3  A    between atoms: O_3  and  C_5
REMARK    4  A    between atoms: C_5  and  C_6
REMARK    5  A    between atoms: C_12  and  N_13
REMARK    6  A    between atoms: N_13  and  C_16
REMARK                            x       y       z     vdW  Elec       q    Type
REMARK                         _______ _______ _______ _____ _____    ______ ____
ROOT
ATOM      1  C   UNL     1      33.068 -14.460 -22.704  0.00  0.00    +0.148 C 
ATOM      2  C   UNL     1      33.083 -13.958 -24.142  0.00  0.00    +0.045 C 
ENDROOT
BRANCH   1   3
ATOM      3  O   UNL     1      34.423 -14.567 -22.270  0.00  0.00    -0.451 OA
BRANCH   3   5
ATOM      4  O   UNL     1      34.834 -15.323 -20.134  0.00  0.00    -0.245 OA
ATOM      5  C   UNL     1      34.671 -15.517 -21.329  0.00  0.00    +0.341 C 
BRANCH   5   6
ATOM      6  C   UNL     1      34.722 -16.864 -21.950  0.00  0.00    +0.076 C 
ATOM      7  C   UNL     1      34.183 -17.935 -21.266  0.00  0.00    +0.006 C 
ATOM      8  C   UNL     1      35.308 -17.005 -23.192  0.00  0.00    +0.006 C 
ATOM      9  C   UNL     1      34.230 -19.201 -21.850  0.00  0.00    +0.000 C 
ATOM     10  C   UNL     1      35.355 -18.271 -23.775  0.00  0.00    +0.000 C 
ATOM     11  C   UNL     1      34.817 -19.369 -23.103  0.00  0.00    +0.000 C 
ENDBRANCH   5   6
ENDBRANCH   3   5
ENDBRANCH   1   3
BRANCH   1  12
ATOM     12  C   UNL     1      32.320 -13.526 -21.750  0.00  0.00    -0.037 C 
BRANCH  12  13
ATOM     13  N   UNL     1      31.567 -12.504 -22.461  0.00  0.00    +0.388 N 
ATOM     14  H   UNL     1      32.116 -12.178 -23.257  0.00  0.00    -0.084 HD
ATOM     15  H   UNL     1      30.687 -12.908 -22.780  0.00  0.00    -0.084 HD
BRANCH  13  16
ATOM     16  C   UNL     1      31.273 -11.372 -21.584  0.00  0.00    -0.062 C 
ATOM     17  C   UNL     1      31.580 -11.747 -20.130  0.00  0.00    -0.021 C 
ATOM     18  C   UNL     1      32.084 -10.149 -22.023  0.00  0.00    -0.021 C 
ATOM     19  C   UNL     1      31.357 -10.562 -19.191  0.00  0.00    -0.002 C 
ATOM     20  C   UNL     1      31.860  -8.966 -21.083  0.00  0.00    -0.002 C 
ATOM     21  C   UNL     1      32.154  -9.337 -19.631  0.00  0.00    -0.000 C 
ENDBRANCH  13  16
ENDBRANCH  12  13
ENDBRANCH   1  12
TORSDOF 6
ENDMDL
MODEL 6
REMARK VINA RESULT:      -8.7      5.709     11.191
REMARK  Name = 10770
REMARK  6 active torsions:
REMARK  status: ('A' for Active; 'I' for Inactive)
REMARK    1  A    between atoms: C_1  and  O_3
REMARK    2  A    between atoms: C_1  and  C_12
REMARK    3  A    between atoms: O_3  and  C_5
REMARK    4  A    between atoms: C_5  and  C_6
REMARK    5  A    between atoms: C_12  and  N_13
REMARK    6  A    between atoms: N_13  and  C_16
REMARK                            x       y       z     vdW  Elec       q    Type
REMARK                         _______ _______ _______ _____ _____    ______ ____
ROOT
ATOM      1  C   UNL     1      33.844 -23.602 -16.749  0.00  0.00    +0.148 C 
ATOM      2  C   UNL     1      32.428 -23.118 -16.465  0.00  0.00    +0.045 C 
ENDROOT
BRANCH   1   3
ATOM      3  O   UNL     1      34.450 -22.665 -17.639  0.00  0.00    -0.451 OA
BRANCH   3   5
ATOM      4  O   UNL     1      33.973 -23.926 -19.505  0.00  0.00    -0.245 OA
ATOM      5  C   UNL     1      34.199 -22.856 -18.961  0.00  0.00    +0.341 C 
BRANCH   5   6
ATOM      6  C   UNL     1      34.233 -21.563 -19.689  0.00  0.00    +0.076 C 
ATOM      7  C   UNL     1      35.454 -21.048 -20.078  0.00  0.00    +0.006 C 
ATOM      8  C   UNL     1      33.044 -20.915 -19.955  0.00  0.00    +0.006 C 
ATOM      9  C   UNL     1      35.486 -19.833 -20.763  0.00  0.00    +0.000 C 
ATOM     10  C   UNL     1      33.077 -19.700 -20.640  0.00  0.00    +0.000 C 
ATOM     11  C   UNL     1      34.298 -19.159 -21.043  0.00  0.00    +0.000 C 
ENDBRANCH   5   6
ENDBRANCH   3   5
ENDBRANCH   1   3
BRANCH   1  12
ATOM     12  C   UNL     1      34.706 -23.711 -15.489  0.00  0.00    -0.037 C 
BRANCH  12  13
ATOM     13  N   UNL     1      36.102 -23.396 -15.750  0.00  0.00    +0.388 N 
ATOM     14  H   UNL     1      36.289 -23.510 -16.747  0.00  0.00    -0.084 HD
ATOM     15  H   UNL     1      36.279 -22.434 -15.464  0.00  0.00    -0.084 HD
BRANCH  13  16
ATOM     16  C   UNL     1      36.984 -24.281 -14.992  0.00  0.00    -0.062 C 
ATOM     17  C   UNL     1      37.191 -23.723 -13.580  0.00  0.00    -0.021 C 
ATOM     18  C   UNL     1      36.392 -25.694 -14.948  0.00  0.00    -0.021 C 
ATOM     19  C   UNL     1      38.047 -24.663 -12.731  0.00  0.00    -0.002 C 
ATOM     20  C   UNL     1      37.249 -26.631 -14.099  0.00  0.00    -0.002 C 
ATOM     21  C   UNL     1      37.468 -26.074 -12.694  0.00  0.00    -0.000 C 
ENDBRANCH  13  16
ENDBRANCH  12  13
ENDBRANCH   1  12
TORSDOF 6
ENDMDL
MODEL 7
REMARK VINA RESULT:      -8.6      5.565     10.245
REMARK  Name = 10770
REMARK  6 active torsions:
REMARK  status: ('A' for Active; 'I' for Inactive)
REMARK    1  A    between atoms: C_1  and  O_3
REMARK    2  A    between atoms: C_1  and  C_12
REMARK    3  A    between atoms: O_3  and  C_5
REMARK    4  A    between atoms: C_5  and  C_6
REMARK    5  A    between atoms: C_12  and  N_13
REMARK    6  A    between atoms: N_13  and  C_16
REMARK                            x       y       z     vdW  Elec       q    Type
REMARK                         _______ _______ _______ _____ _____    ______ ____
ROOT
ATOM      1  C   UNL     1      35.077 -22.484 -16.955  0.00  0.00    +0.148 C 
ATOM      2  C   UNL     1      36.531 -22.452 -16.504  0.00  0.00    +0.045 C 
ENDROOT
BRANCH   1   3
ATOM      3  O   UNL     1      35.063 -22.803 -18.347  0.00  0.00    -0.451 OA
BRANCH   3   5
ATOM      4  O   UNL     1      32.949 -22.413 -19.170  0.00  0.00    -0.245 OA
ATOM      5  C   UNL     1      34.138 -22.146 -19.096  0.00  0.00    +0.341 C 
BRANCH   5   6
ATOM      6  C   UNL     1      34.769 -21.027 -19.839  0.00  0.00    +0.076 C 
ATOM      7  C   UNL     1      33.963 -20.146 -20.531  0.00  0.00    +0.006 C 
ATOM      8  C   UNL     1      36.144 -20.902 -19.817  0.00  0.00    +0.006 C 
ATOM      9  C   UNL     1      34.556 -19.094 -21.229  0.00  0.00    +0.000 C 
ATOM     10  C   UNL     1      36.736 -19.850 -20.516  0.00  0.00    +0.000 C 
ATOM     11  C   UNL     1      35.942 -18.947 -21.223  0.00  0.00    +0.000 C 
ENDBRANCH   5   6
ENDBRANCH   3   5
ENDBRANCH   1   3
BRANCH   1  12
ATOM     12  C   UNL     1      34.237 -23.521 -16.206  0.00  0.00    -0.037 C 
BRANCH  12  13
ATOM     13  N   UNL     1      33.903 -23.086 -14.858  0.00  0.00    +0.388 N 
ATOM     14  H   UNL     1      34.468 -23.610 -14.189  0.00  0.00    -0.084 HD
ATOM     15  H   UNL     1      34.095 -22.088 -14.780  0.00  0.00    -0.084 HD
BRANCH  13  16
ATOM     16  C   UNL     1      32.488 -23.316 -14.575  0.00  0.00    -0.062 C 
ATOM     17  C   UNL     1      31.688 -23.309 -15.883  0.00  0.00    -0.021 C 
ATOM     18  C   UNL     1      32.314 -24.642 -13.828  0.00  0.00    -0.021 C 
ATOM     19  C   UNL     1      30.213 -23.622 -15.634  0.00  0.00    -0.002 C 
ATOM     20  C   UNL     1      30.839 -24.954 -13.581  0.00  0.00    -0.002 C 
ATOM     21  C   UNL     1      30.036 -24.937 -14.879  0.00  0.00    -0.000 C 
ENDBRANCH  13  16
ENDBRANCH  12  13
ENDBRANCH   1  12
TORSDOF 6
ENDMDL
MODEL 8
REMARK VINA RESULT:      -8.6      3.340      5.468
REMARK  Name = 10770
REMARK  6 active torsions:
REMARK  status: ('A' for Active; 'I' for Inactive)
REMARK    1  A    between atoms: C_1  and  O_3
REMARK    2  A    between atoms: C_1  and  C_12
REMARK    3  A    between atoms: O_3  and  C_5
REMARK    4  A    between atoms: C_5  and  C_6
REMARK    5  A    between atoms: C_12  and  N_13
REMARK    6  A    between atoms: N_13  and  C_16
REMARK                            x       y       z     vdW  Elec       q    Type
REMARK                         _______ _______ _______ _____ _____    ______ ____
ROOT
ATOM      1  C   UNL     1      34.935 -21.245 -20.015  0.00  0.00    +0.148 C 
ATOM      2  C   UNL     1      36.267 -21.176 -19.279  0.00  0.00    +0.045 C 
ENDROOT
BRANCH   1   3
ATOM      3  O   UNL     1      33.926 -21.551 -19.053  0.00  0.00    -0.451 OA
BRANCH   3   5
ATOM      4  O   UNL     1      33.927 -23.805 -19.523  0.00  0.00    -0.245 OA
ATOM      5  C   UNL     1      33.773 -22.868 -18.754  0.00  0.00    +0.341 C 
BRANCH   5   6
ATOM      6  C   UNL     1      33.382 -23.037 -17.332  0.00  0.00    +0.076 C 
ATOM      7  C   UNL     1      32.042 -23.020 -17.002  0.00  0.00    +0.006 C 
ATOM      8  C   UNL     1      34.370 -23.205 -16.384  0.00  0.00    +0.006 C 
ATOM      9  C   UNL     1      31.674 -23.180 -15.666  0.00  0.00    +0.000 C 
ATOM     10  C   UNL     1      34.002 -23.365 -15.048  0.00  0.00    +0.000 C 
ATOM     11  C   UNL     1      32.655 -23.351 -14.689  0.00  0.00    +0.000 C 
ENDBRANCH   5   6
ENDBRANCH   3   5
ENDBRANCH   1   3
BRANCH   1  12
ATOM     12  C   UNL     1      34.566 -19.933 -20.713  0.00  0.00    -0.037 C 
BRANCH  12  13
ATOM     13  N   UNL     1      35.649 -18.963 -20.665  0.00  0.00    +0.388 N 
ATOM     14  H   UNL     1      35.496 -18.330 -19.879  0.00  0.00    -0.084 HD
ATOM     15  H   UNL     1      36.531 -19.463 -20.551  0.00  0.00    -0.084 HD
BRANCH  13  16
ATOM     16  C   UNL     1      35.706 -18.187 -21.903  0.00  0.00    -0.062 C 
ATOM     17  C   UNL     1      35.051 -18.977 -23.041  0.00  0.00    -0.021 C 
ATOM     18  C   UNL     1      35.018 -16.833 -21.701  0.00  0.00    -0.021 C 
ATOM     19  C   UNL     1      35.023 -18.165 -24.336  0.00  0.00    -0.002 C 
ATOM     20  C   UNL     1      34.991 -16.024 -22.996  0.00  0.00    -0.002 C 
ATOM     21  C   UNL     1      34.349 -16.810 -24.137  0.00  0.00    -0.000 C 
ENDBRANCH  13  16
ENDBRANCH  12  13
ENDBRANCH   1  12
TORSDOF 6
ENDMDL
MODEL 9
REMARK VINA RESULT:      -8.6      5.856     11.278
REMARK  Name = 10770
REMARK  6 active torsions:
REMARK  status: ('A' for Active; 'I' for Inactive)
REMARK    1  A    between atoms: C_1  and  O_3
REMARK    2  A    between atoms: C_1  and  C_12
REMARK    3  A    between atoms: O_3  and  C_5
REMARK    4  A    between atoms: C_5  and  C_6
REMARK    5  A    between atoms: C_12  and  N_13
REMARK    6  A    between atoms: N_13  and  C_16
REMARK                            x       y       z     vdW  Elec       q    Type
REMARK                         _______ _______ _______ _____ _____    ______ ____
ROOT
ATOM      1  C   UNL     1      33.776 -23.588 -16.777  0.00  0.00    +0.148 C 
ATOM      2  C   UNL     1      32.343 -23.077 -16.689  0.00  0.00    +0.045 C 
ENDROOT
BRANCH   1   3
ATOM      3  O   UNL     1      34.484 -22.732 -17.674  0.00  0.00    -0.451 OA
BRANCH   3   5
ATOM      4  O   UNL     1      34.005 -23.971 -19.554  0.00  0.00    -0.245 OA
ATOM      5  C   UNL     1      34.215 -22.905 -18.995  0.00  0.00    +0.341 C 
BRANCH   5   6
ATOM      6  C   UNL     1      34.208 -21.600 -19.700  0.00  0.00    +0.076 C 
ATOM      7  C   UNL     1      33.001 -20.964 -19.915  0.00  0.00    +0.006 C 
ATOM      8  C   UNL     1      35.407 -21.061 -20.120  0.00  0.00    +0.006 C 
ATOM      9  C   UNL     1      32.994 -19.737 -20.577  0.00  0.00    +0.000 C 
ATOM     10  C   UNL     1      35.399 -19.833 -20.783  0.00  0.00    +0.000 C 
ATOM     11  C   UNL     1      34.193 -19.172 -21.012  0.00  0.00    +0.000 C 
ENDBRANCH   5   6
ENDBRANCH   3   5
ENDBRANCH   1   3
BRANCH   1  12
ATOM     12  C   UNL     1      34.497 -23.590 -15.427  0.00  0.00    -0.037 C 
BRANCH  12  13
ATOM     13  N   UNL     1      35.322 -24.774 -15.248  0.00  0.00    +0.388 N 
ATOM     14  H   UNL     1      34.745 -25.606 -15.380  0.00  0.00    -0.084 HD
ATOM     15  H   UNL     1      36.076 -24.754 -15.933  0.00  0.00    -0.084 HD
BRANCH  13  16
ATOM     16  C   UNL     1      35.905 -24.802 -13.908  0.00  0.00    -0.062 C 
ATOM     17  C   UNL     1      37.203 -25.617 -13.923  0.00  0.00    -0.021 C 
ATOM     18  C   UNL     1      36.156 -23.372 -13.419  0.00  0.00    -0.021 C 
ATOM     19  C   UNL     1      37.883 -25.605 -12.554  0.00  0.00    -0.002 C 
ATOM     20  C   UNL     1      36.837 -23.362 -12.051  0.00  0.00    -0.002 C 
ATOM     21  C   UNL     1      38.124 -24.182 -12.058  0.00  0.00    -0.000 C 
ENDBRANCH  13  16
ENDBRANCH  12  13
ENDBRANCH   1  12
TORSDOF 6
ENDMDL
