MODEL 1
REMARK VINA RESULT:      -4.5      0.000      0.000
REMARK  Name = 5245672
REMARK  2 active torsions:
REMARK  status: ('A' for Active; 'I' for Inactive)
REMARK    1  A    between atoms: C_1  and  N_4
REMARK    2  A    between atoms: C_1  and  C_10
REMARK                            x       y       z     vdW  Elec       q    Type
REMARK                         _______ _______ _______ _____ _____    ______ ____
ROOT
ATOM      1  C   UNL     1      38.751 -25.349 -14.380  0.00  0.00    +0.047 C 
ATOM      2  C   UNL     1      37.824 -26.538 -14.630  0.00  0.00    -0.011 C 
ATOM      3  C   UNL     1      38.562 -24.812 -12.960  0.00  0.00    -0.011 C 
ENDROOT
BRANCH   1   4
ATOM      4  N   UNL     1      38.323 -24.262 -15.325  0.00  0.00    +0.390 N 
ATOM      5  H   UNL     1      37.402 -24.482 -15.703  0.00  0.00    -0.088 HD
ATOM      6  H   UNL     1      38.996 -24.191 -16.089  0.00  0.00    -0.088 HD
ATOM      7  H   UNL     1      38.283 -23.374 -14.825  0.00  0.00    -0.088 HD
ENDBRANCH   1   4
BRANCH   1  10
ATOM      8  O   UNL     1      41.045 -24.717 -14.609  0.00  0.00    -0.248 OA
ATOM      9  O   UNL     1      40.514 -26.935 -14.559  0.00  0.00    -0.248 OA
ATOM     10  C   UNL     1      40.252 -25.698 -14.531  0.00  0.00    +0.346 C 
ENDBRANCH   1  10
TORSDOF 2
ENDMDL
MODEL 2
REMARK VINA RESULT:      -4.5      1.241      2.024
REMARK  Name = 5245672
REMARK  2 active torsions:
REMARK  status: ('A' for Active; 'I' for Inactive)
REMARK    1  A    between atoms: C_1  and  N_4
REMARK    2  A    between atoms: C_1  and  C_10
REMARK                            x       y       z     vdW  Elec       q    Type
REMARK                         _______ _______ _______ _____ _____    ______ ____
ROOT
ATOM      1  C   UNL     1      38.736 -25.576 -14.034  0.00  0.00    +0.047 C 
ATOM      2  C   UNL     1      38.458 -25.268 -12.563  0.00  0.00    -0.011 C 
ATOM      3  C   UNL     1      38.135 -24.492 -14.931  0.00  0.00    -0.011 C 
ENDROOT
BRANCH   1   4
ATOM      4  N   UNL     1      38.021 -26.859 -14.350  0.00  0.00    +0.390 N 
ATOM      5  H   UNL     1      37.113 -26.867 -13.886  0.00  0.00    -0.088 HD
ATOM      6  H   UNL     1      38.578 -27.648 -14.021  0.00  0.00    -0.088 HD
ATOM      7  H   UNL     1      37.888 -26.935 -15.359  0.00  0.00    -0.088 HD
ENDBRANCH   1   4
BRANCH   1  10
ATOM      8  O   UNL     1      40.671 -26.770 -14.774  0.00  0.00    -0.248 OA
ATOM      9  O   UNL     1      40.884 -24.570 -14.206  0.00  0.00    -0.248 OA
ATOM     10  C   UNL     1      40.245 -25.650 -14.372  0.00  0.00    +0.346 C 
ENDBRANCH   1  10
TORSDOF 2
ENDMDL
MODEL 3
REMARK VINA RESULT:      -4.5     10.619     11.121
REMARK  Name = 5245672
REMARK  2 active torsions:
REMARK  status: ('A' for Active; 'I' for Inactive)
REMARK    1  A    between atoms: C_1  and  N_4
REMARK    2  A    between atoms: C_1  and  C_10
REMARK                            x       y       z     vdW  Elec       q    Type
REMARK                         _______ _______ _______ _____ _____    ______ ____
ROOT
ATOM      1  C   UNL     1      29.546 -23.206 -16.199  0.00  0.00    +0.047 C 
ATOM      2  C   UNL     1      29.580 -22.488 -14.850  0.00  0.00    -0.011 C 
ATOM      3  C   UNL     1      29.684 -24.716 -16.005  0.00  0.00    -0.011 C 
ENDROOT
BRANCH   1   4
ATOM      4  N   UNL     1      30.753 -22.745 -16.965  0.00  0.00    +0.390 N 
ATOM      5  H   UNL     1      30.810 -21.727 -16.931  0.00  0.00    -0.088 HD
ATOM      6  H   UNL     1      30.676 -23.048 -17.936  0.00  0.00    -0.088 HD
ATOM      7  H   UNL     1      31.593 -23.147 -16.550  0.00  0.00    -0.088 HD
ENDBRANCH   1   4
BRANCH   1  10
ATOM      8  O   UNL     1      27.732 -23.991 -17.544  0.00  0.00    -0.248 OA
ATOM      9  O   UNL     1      27.805 -21.783 -16.976  0.00  0.00    -0.248 OA
ATOM     10  C   UNL     1      28.232 -22.974 -16.985  0.00  0.00    +0.346 C 
ENDBRANCH   1  10
TORSDOF 2
ENDMDL
MODEL 4
REMARK VINA RESULT:      -4.4     10.706     11.285
REMARK  Name = 5245672
REMARK  2 active torsions:
REMARK  status: ('A' for Active; 'I' for Inactive)
REMARK    1  A    between atoms: C_1  and  N_4
REMARK    2  A    between atoms: C_1  and  C_10
REMARK                            x       y       z     vdW  Elec       q    Type
REMARK                         _______ _______ _______ _____ _____    ______ ____
ROOT
ATOM      1  C   UNL     1      42.074 -14.413 -16.574  0.00  0.00    +0.047 C 
ATOM      2  C   UNL     1      43.551 -14.224 -16.915  0.00  0.00    -0.011 C 
ATOM      3  C   UNL     1      41.207 -14.216 -17.818  0.00  0.00    -0.011 C 
ENDROOT
BRANCH   1   4
ATOM      4  N   UNL     1      41.711 -13.325 -15.603  0.00  0.00    +0.390 N 
ATOM      5  H   UNL     1      41.600 -13.723 -14.671  0.00  0.00    -0.088 HD
ATOM      6  H   UNL     1      40.835 -12.889 -15.894  0.00  0.00    -0.088 HD
ATOM      7  H   UNL     1      42.451 -12.623 -15.588  0.00  0.00    -0.088 HD
ENDBRANCH   1   4
BRANCH   1  10
ATOM      8  O   UNL     1      40.543 -16.027 -15.697  0.00  0.00    -0.248 OA
ATOM      9  O   UNL     1      42.732 -16.614 -15.955  0.00  0.00    -0.248 OA
ATOM     10  C   UNL     1      41.747 -15.822 -16.020  0.00  0.00    +0.346 C 
ENDBRANCH   1  10
TORSDOF 2
ENDMDL
MODEL 5
REMARK VINA RESULT:      -4.3     10.480     10.994
REMARK  Name = 5245672
REMARK  2 active torsions:
REMARK  status: ('A' for Active; 'I' for Inactive)
REMARK    1  A    between atoms: C_1  and  N_4
REMARK    2  A    between atoms: C_1  and  C_10
REMARK                            x       y       z     vdW  Elec       q    Type
REMARK                         _______ _______ _______ _____ _____    ______ ____
ROOT
ATOM      1  C   UNL     1      41.921 -14.619 -16.549  0.00  0.00    +0.047 C 
ATOM      2  C   UNL     1      41.247 -14.384 -17.900  0.00  0.00    -0.011 C 
ATOM      3  C   UNL     1      41.424 -13.603 -15.520  0.00  0.00    -0.011 C 
ENDROOT
BRANCH   1   4
ATOM      4  N   UNL     1      43.389 -14.367 -16.748  0.00  0.00    +0.390 N 
ATOM      5  H   UNL     1      43.770 -13.902 -15.924  0.00  0.00    -0.088 HD
ATOM      6  H   UNL     1      43.524 -13.773 -17.567  0.00  0.00    -0.088 HD
ATOM      7  H   UNL     1      43.870 -15.255 -16.890  0.00  0.00    -0.088 HD
ENDBRANCH   1   4
BRANCH   1  10
ATOM      8  O   UNL     1      40.437 -16.292 -15.705  0.00  0.00    -0.248 OA
ATOM      9  O   UNL     1      42.670 -16.749 -15.802  0.00  0.00    -0.248 OA
ATOM     10  C   UNL     1      41.645 -16.024 -15.960  0.00  0.00    +0.346 C 
ENDBRANCH   1  10
TORSDOF 2
ENDMDL
MODEL 6
REMARK VINA RESULT:      -4.3      2.548      3.117
REMARK  Name = 5245672
REMARK  2 active torsions:
REMARK  status: ('A' for Active; 'I' for Inactive)
REMARK    1  A    between atoms: C_1  and  N_4
REMARK    2  A    between atoms: C_1  and  C_10
REMARK                            x       y       z     vdW  Elec       q    Type
REMARK                         _______ _______ _______ _____ _____    ______ ____
ROOT
ATOM      1  C   UNL     1      36.861 -25.545 -13.967  0.00  0.00    +0.047 C 
ATOM      2  C   UNL     1      37.267 -25.882 -12.533  0.00  0.00    -0.011 C 
ATOM      3  C   UNL     1      37.591 -24.290 -14.450  0.00  0.00    -0.011 C 
ENDROOT
BRANCH   1   4
ATOM      4  N   UNL     1      35.394 -25.221 -13.937  0.00  0.00    +0.390 N 
ATOM      5  H   UNL     1      35.142 -24.871 -13.013  0.00  0.00    -0.088 HD
ATOM      6  H   UNL     1      34.856 -26.063 -14.141  0.00  0.00    -0.088 HD
ATOM      7  H   UNL     1      35.189 -24.508 -14.638  0.00  0.00    -0.088 HD
ENDBRANCH   1   4
BRANCH   1  10
ATOM      8  O   UNL     1      36.317 -26.893 -15.866  0.00  0.00    -0.248 OA
ATOM      9  O   UNL     1      38.305 -27.241 -14.801  0.00  0.00    -0.248 OA
ATOM     10  C   UNL     1      37.190 -26.670 -14.979  0.00  0.00    +0.346 C 
ENDBRANCH   1  10
TORSDOF 2
ENDMDL
MODEL 7
REMARK VINA RESULT:      -4.3     10.262     10.825
REMARK  Name = 5245672
REMARK  2 active torsions:
REMARK  status: ('A' for Active; 'I' for Inactive)
REMARK    1  A    between atoms: C_1  and  N_4
REMARK    2  A    between atoms: C_1  and  C_10
REMARK                            x       y       z     vdW  Elec       q    Type
REMARK                         _______ _______ _______ _____ _____    ______ ____
ROOT
ATOM      1  C   UNL     1      42.156 -15.363 -17.607  0.00  0.00    +0.047 C 
ATOM      2  C   UNL     1      41.178 -14.279 -18.057  0.00  0.00    -0.011 C 
ATOM      3  C   UNL     1      43.556 -14.777 -17.418  0.00  0.00    -0.011 C 
ENDROOT
BRANCH   1   4
ATOM      4  N   UNL     1      42.241 -16.362 -18.726  0.00  0.00    +0.390 N 
ATOM      5  H   UNL     1      42.173 -15.878 -19.621  0.00  0.00    -0.088 HD
ATOM      6  H   UNL     1      41.476 -17.032 -18.642  0.00  0.00    -0.088 HD
ATOM      7  H   UNL     1      43.132 -16.856 -18.674  0.00  0.00    -0.088 HD
ENDBRANCH   1   4
BRANCH   1  10
ATOM      8  O   UNL     1      40.599 -15.779 -15.841  0.00  0.00    -0.248 OA
ATOM      9  O   UNL     1      42.664 -16.743 -15.737  0.00  0.00    -0.248 OA
ATOM     10  C   UNL     1      41.764 -16.025 -16.263  0.00  0.00    +0.346 C 
ENDBRANCH   1  10
TORSDOF 2
ENDMDL
MODEL 8
REMARK VINA RESULT:      -4.3      3.115      3.600
REMARK  Name = 5245672
REMARK  2 active torsions:
REMARK  status: ('A' for Active; 'I' for Inactive)
REMARK    1  A    between atoms: C_1  and  N_4
REMARK    2  A    between atoms: C_1  and  C_10
REMARK                            x       y       z     vdW  Elec       q    Type
REMARK                         _______ _______ _______ _____ _____    ______ ____
ROOT
ATOM      1  C   UNL     1      37.603 -24.696 -13.077  0.00  0.00    +0.047 C 
ATOM      2  C   UNL     1      37.226 -23.796 -14.253  0.00  0.00    -0.011 C 
ATOM      3  C   UNL     1      38.938 -25.394 -13.343  0.00  0.00    -0.011 C 
ENDROOT
BRANCH   1   4
ATOM      4  N   UNL     1      36.552 -25.766 -12.997  0.00  0.00    +0.390 N 
ATOM      5  H   UNL     1      36.681 -26.428 -13.761  0.00  0.00    -0.088 HD
ATOM      6  H   UNL     1      35.628 -25.341 -13.067  0.00  0.00    -0.088 HD
ATOM      7  H   UNL     1      36.633 -26.256 -12.105  0.00  0.00    -0.088 HD
ENDBRANCH   1   4
BRANCH   1  10
ATOM      8  O   UNL     1      38.690 -23.076 -11.694  0.00  0.00    -0.248 OA
ATOM      9  O   UNL     1      36.926 -24.246 -10.842  0.00  0.00    -0.248 OA
ATOM     10  C   UNL     1      37.758 -23.929 -11.741  0.00  0.00    +0.346 C 
ENDBRANCH   1  10
TORSDOF 2
ENDMDL
MODEL 9
REMARK VINA RESULT:      -4.3      2.262      2.781
REMARK  Name = 5245672
REMARK  2 active torsions:
REMARK  status: ('A' for Active; 'I' for Inactive)
REMARK    1  A    between atoms: C_1  and  N_4
REMARK    2  A    between atoms: C_1  and  C_10
REMARK                            x       y       z     vdW  Elec       q    Type
REMARK                         _______ _______ _______ _____ _____    ______ ____
ROOT
ATOM      1  C   UNL     1      37.257 -25.096 -14.513  0.00  0.00    +0.047 C 
ATOM      2  C   UNL     1      35.844 -24.552 -14.305  0.00  0.00    -0.011 C 
ATOM      3  C   UNL     1      38.023 -25.117 -13.189  0.00  0.00    -0.011 C 
ENDROOT
BRANCH   1   4
ATOM      4  N   UNL     1      37.964 -24.128 -15.419  0.00  0.00    +0.390 N 
ATOM      5  H   UNL     1      38.807 -23.785 -14.960  0.00  0.00    -0.088 HD
ATOM      6  H   UNL     1      37.347 -23.343 -15.627  0.00  0.00    -0.088 HD
ATOM      7  H   UNL     1      38.218 -24.600 -16.288  0.00  0.00    -0.088 HD
ENDBRANCH   1   4
BRANCH   1  10
ATOM      8  O   UNL     1      38.268 -27.252 -14.720  0.00  0.00    -0.248 OA
ATOM      9  O   UNL     1      36.305 -26.847 -15.811  0.00  0.00    -0.248 OA
ATOM     10  C   UNL     1      37.283 -26.541 -15.068  0.00  0.00    +0.346 C 
ENDBRANCH   1  10
TORSDOF 2
ENDMDL
