MODEL 1
REMARK VINA RESULT:      -6.8      0.000      0.000
REMARK  Name = 49867580
REMARK  12 active torsions:
REMARK  status: ('A' for Active; 'I' for Inactive)
REMARK    1  A    between atoms: C_1  and  C_3
REMARK    2  A    between atoms: C_1  and  C_12
REMARK    3  A    between atoms: C_3  and  O_4
REMARK    4  A    between atoms: O_4  and  C_5
REMARK    5  A    between atoms: C_5  and  C_7
REMARK    6  A    between atoms: C_7  and  C_9
REMARK    7  A    between atoms: C_9  and  O_10
REMARK    8  A    between atoms: C_12  and  O_14
REMARK    9  A    between atoms: O_14  and  C_16
REMARK   10  A    between atoms: C_16  and  C_17
REMARK   11  A    between atoms: C_17  and  C_18
REMARK   12  A    between atoms: C_18  and  O_20
REMARK                            x       y       z     vdW  Elec       q    Type
REMARK                         _______ _______ _______ _____ _____    ______ ____
ROOT
ATOM      1  C   UNL     1      34.393 -19.333 -22.118  0.00  0.00    +0.153 C 
ENDROOT
BRANCH   1   3
ATOM      2  O   UNL     1      36.013 -18.419 -20.545  0.00  0.00    -0.250 OA
ATOM      3  C   UNL     1      35.470 -19.389 -21.055  0.00  0.00    +0.321 C 
BRANCH   3   4
ATOM      4  O   UNL     1      35.736 -20.699 -20.760  0.00  0.00    -0.452 OA
BRANCH   4   5
ATOM      5  C   UNL     1      35.460 -21.100 -19.419  0.00  0.00    +0.180 C 
ATOM      6  C   UNL     1      36.757 -21.571 -18.776  0.00  0.00    +0.048 C 
BRANCH   5   7
ATOM      7  C   UNL     1      34.421 -22.220 -19.450  0.00  0.00    +0.153 C 
BRANCH   7   9
ATOM      8  O   UNL     1      32.506 -20.714 -19.451  0.00  0.00    -0.250 OA
ATOM      9  C   UNL     1      33.040 -21.740 -19.053  0.00  0.00    +0.321 C 
BRANCH   9  10
ATOM     10  O   UNL     1      32.496 -22.638 -18.178  0.00  0.00    -0.444 OA
ATOM     11  C   UNL     1      33.418 -23.251 -17.271  0.00  0.00    +0.256 C 
ENDBRANCH   9  10
ENDBRANCH   7   9
ENDBRANCH   5   7
ENDBRANCH   4   5
ENDBRANCH   3   4
ENDBRANCH   1   3
BRANCH   1  12
ATOM     12  C   UNL     1      34.733 -18.356 -23.243  0.00  0.00    +0.180 C 
ATOM     13  C   UNL     1      34.447 -18.966 -24.608  0.00  0.00    +0.048 C 
BRANCH  12  14
ATOM     14  O   UNL     1      33.929 -17.187 -23.089  0.00  0.00    -0.452 OA
BRANCH  14  16
ATOM     15  O   UNL     1      35.715 -15.822 -23.609  0.00  0.00    -0.250 OA
ATOM     16  C   UNL     1      34.599 -15.994 -23.136  0.00  0.00    +0.319 C 
BRANCH  16  17
ATOM     17  C   UNL     1      33.736 -14.919 -22.510  0.00  0.00    +0.139 C 
BRANCH  17  18
ATOM     18  C   UNL     1      33.879 -14.868 -20.988  0.00  0.00    +0.122 C 
ATOM     19  C   UNL     1      32.595 -15.316 -20.301  0.00  0.00    +0.032 C 
BRANCH  18  20
ATOM     20  O   UNL     1      34.933 -15.746 -20.601  0.00  0.00    -0.384 OA
ATOM     21  H   UNL     1      34.877 -15.918 -19.648  0.00  0.00    +0.210 HD
ENDBRANCH  18  20
ENDBRANCH  17  18
ENDBRANCH  16  17
ENDBRANCH  14  16
ENDBRANCH  12  14
ENDBRANCH   1  12
TORSDOF 12
ENDMDL
MODEL 2
REMARK VINA RESULT:      -6.7      7.714     10.068
REMARK  Name = 49867580
REMARK  12 active torsions:
REMARK  status: ('A' for Active; 'I' for Inactive)
REMARK    1  A    between atoms: C_1  and  C_3
REMARK    2  A    between atoms: C_1  and  C_12
REMARK    3  A    between atoms: C_3  and  O_4
REMARK    4  A    between atoms: O_4  and  C_5
REMARK    5  A    between atoms: C_5  and  C_7
REMARK    6  A    between atoms: C_7  and  C_9
REMARK    7  A    between atoms: C_9  and  O_10
REMARK    8  A    between atoms: C_12  and  O_14
REMARK    9  A    between atoms: O_14  and  C_16
REMARK   10  A    between atoms: C_16  and  C_17
REMARK   11  A    between atoms: C_17  and  C_18
REMARK   12  A    between atoms: C_18  and  O_20
REMARK                            x       y       z     vdW  Elec       q    Type
REMARK                         _______ _______ _______ _____ _____    ______ ____
ROOT
ATOM      1  C   UNL     1      33.174 -23.602 -14.090  0.00  0.00    +0.153 C 
ENDROOT
BRANCH   1   3
ATOM      2  O   UNL     1      31.658 -25.508 -14.004  0.00  0.00    -0.250 OA
ATOM      3  C   UNL     1      31.836 -24.308 -14.160  0.00  0.00    +0.321 C 
BRANCH   3   4
ATOM      4  O   UNL     1      30.860 -23.385 -14.428  0.00  0.00    -0.452 OA
BRANCH   4   5
ATOM      5  C   UNL     1      30.187 -23.542 -15.676  0.00  0.00    +0.180 C 
ATOM      6  C   UNL     1      30.968 -22.793 -16.746  0.00  0.00    +0.048 C 
BRANCH   5   7
ATOM      7  C   UNL     1      28.769 -22.988 -15.538  0.00  0.00    +0.153 C 
BRANCH   7   9
ATOM      8  O   UNL     1      27.764 -23.974 -17.526  0.00  0.00    -0.250 OA
ATOM      9  C   UNL     1      28.019 -22.984 -16.854  0.00  0.00    +0.321 C 
BRANCH   9  10
ATOM     10  O   UNL     1      27.679 -21.697 -17.164  0.00  0.00    -0.444 OA
ATOM     11  C   UNL     1      26.290 -21.474 -17.427  0.00  0.00    +0.256 C 
ENDBRANCH   9  10
ENDBRANCH   7   9
ENDBRANCH   5   7
ENDBRANCH   4   5
ENDBRANCH   3   4
ENDBRANCH   1   3
BRANCH   1  12
ATOM     12  C   UNL     1      34.196 -24.192 -15.062  0.00  0.00    +0.180 C 
ATOM     13  C   UNL     1      34.652 -23.154 -16.078  0.00  0.00    +0.048 C 
BRANCH  12  14
ATOM     14  O   UNL     1      35.332 -24.630 -14.317  0.00  0.00    -0.452 OA
BRANCH  14  16
ATOM     15  O   UNL     1      35.975 -26.388 -15.666  0.00  0.00    -0.250 OA
ATOM     16  C   UNL     1      36.237 -25.391 -15.006  0.00  0.00    +0.319 C 
BRANCH  16  17
ATOM     17  C   UNL     1      37.618 -24.797 -14.826  0.00  0.00    +0.139 C 
BRANCH  17  18
ATOM     18  C   UNL     1      38.538 -25.699 -14.000  0.00  0.00    +0.122 C 
ATOM     19  C   UNL     1      38.045 -25.818 -12.564  0.00  0.00    +0.032 C 
BRANCH  18  20
ATOM     20  O   UNL     1      38.547 -26.998 -14.588  0.00  0.00    -0.384 OA
ATOM     21  H   UNL     1      39.254 -27.529 -14.189  0.00  0.00    +0.210 HD
ENDBRANCH  18  20
ENDBRANCH  17  18
ENDBRANCH  16  17
ENDBRANCH  14  16
ENDBRANCH  12  14
ENDBRANCH   1  12
TORSDOF 12
ENDMDL
MODEL 3
REMARK VINA RESULT:      -6.7      4.366      9.119
REMARK  Name = 49867580
REMARK  12 active torsions:
REMARK  status: ('A' for Active; 'I' for Inactive)
REMARK    1  A    between atoms: C_1  and  C_3
REMARK    2  A    between atoms: C_1  and  C_12
REMARK    3  A    between atoms: C_3  and  O_4
REMARK    4  A    between atoms: O_4  and  C_5
REMARK    5  A    between atoms: C_5  and  C_7
REMARK    6  A    between atoms: C_7  and  C_9
REMARK    7  A    between atoms: C_9  and  O_10
REMARK    8  A    between atoms: C_12  and  O_14
REMARK    9  A    between atoms: O_14  and  C_16
REMARK   10  A    between atoms: C_16  and  C_17
REMARK   11  A    between atoms: C_17  and  C_18
REMARK   12  A    between atoms: C_18  and  O_20
REMARK                            x       y       z     vdW  Elec       q    Type
REMARK                         _______ _______ _______ _____ _____    ______ ____
ROOT
ATOM      1  C   UNL     1      35.589 -22.871 -15.029  0.00  0.00    +0.153 C 
ENDROOT
BRANCH   1   3
ATOM      2  O   UNL     1      34.054 -24.660 -14.412  0.00  0.00    -0.250 OA
ATOM      3  C   UNL     1      34.575 -23.968 -15.276  0.00  0.00    +0.321 C 
BRANCH   3   4
ATOM      4  O   UNL     1      34.340 -24.061 -16.622  0.00  0.00    -0.452 OA
BRANCH   4   5
ATOM      5  C   UNL     1      33.562 -23.008 -17.188  0.00  0.00    +0.180 C 
ATOM      6  C   UNL     1      32.110 -23.200 -16.774  0.00  0.00    +0.048 C 
BRANCH   5   7
ATOM      7  C   UNL     1      33.713 -23.054 -18.708  0.00  0.00    +0.153 C 
BRANCH   7   9
ATOM      8  O   UNL     1      35.090 -21.187 -19.452  0.00  0.00    -0.250 OA
ATOM      9  C   UNL     1      33.984 -21.688 -19.304  0.00  0.00    +0.321 C 
BRANCH   9  10
ATOM     10  O   UNL     1      32.793 -21.112 -19.644  0.00  0.00    -0.444 OA
ATOM     11  C   UNL     1      32.882 -19.994 -20.536  0.00  0.00    +0.256 C 
ENDBRANCH   9  10
ENDBRANCH   7   9
ENDBRANCH   5   7
ENDBRANCH   4   5
ENDBRANCH   3   4
ENDBRANCH   1   3
BRANCH   1  12
ATOM     12  C   UNL     1      36.922 -23.139 -15.727  0.00  0.00    +0.180 C 
ATOM     13  C   UNL     1      37.347 -21.950 -16.577  0.00  0.00    +0.048 C 
BRANCH  12  14
ATOM     14  O   UNL     1      37.919 -23.367 -14.732  0.00  0.00    -0.452 OA
BRANCH  14  16
ATOM     15  O   UNL     1      37.920 -25.659 -15.000  0.00  0.00    -0.250 OA
ATOM     16  C   UNL     1      38.044 -24.661 -14.302  0.00  0.00    +0.319 C 
BRANCH  16  17
ATOM     17  C   UNL     1      38.366 -24.660 -12.822  0.00  0.00    +0.139 C 
BRANCH  17  18
ATOM     18  C   UNL     1      37.131 -24.913 -11.956  0.00  0.00    +0.122 C 
ATOM     19  C   UNL     1      36.465 -23.604 -11.555  0.00  0.00    +0.032 C 
BRANCH  18  20
ATOM     20  O   UNL     1      36.199 -25.687 -12.708  0.00  0.00    -0.384 OA
ATOM     21  H   UNL     1      36.431 -25.648 -13.649  0.00  0.00    +0.210 HD
ENDBRANCH  18  20
ENDBRANCH  17  18
ENDBRANCH  16  17
ENDBRANCH  14  16
ENDBRANCH  12  14
ENDBRANCH   1  12
TORSDOF 12
ENDMDL
MODEL 4
REMARK VINA RESULT:      -6.7      4.575      7.780
REMARK  Name = 49867580
REMARK  12 active torsions:
REMARK  status: ('A' for Active; 'I' for Inactive)
REMARK    1  A    between atoms: C_1  and  C_3
REMARK    2  A    between atoms: C_1  and  C_12
REMARK    3  A    between atoms: C_3  and  O_4
REMARK    4  A    between atoms: O_4  and  C_5
REMARK    5  A    between atoms: C_5  and  C_7
REMARK    6  A    between atoms: C_7  and  C_9
REMARK    7  A    between atoms: C_9  and  O_10
REMARK    8  A    between atoms: C_12  and  O_14
REMARK    9  A    between atoms: O_14  and  C_16
REMARK   10  A    between atoms: C_16  and  C_17
REMARK   11  A    between atoms: C_17  and  C_18
REMARK   12  A    between atoms: C_18  and  O_20
REMARK                            x       y       z     vdW  Elec       q    Type
REMARK                         _______ _______ _______ _____ _____    ______ ____
ROOT
ATOM      1  C   UNL     1      34.040 -23.352 -15.373  0.00  0.00    +0.153 C 
ENDROOT
BRANCH   1   3
ATOM      2  O   UNL     1      36.350 -23.436 -16.143  0.00  0.00    -0.250 OA
ATOM      3  C   UNL     1      35.454 -23.891 -15.446  0.00  0.00    +0.321 C 
BRANCH   3   4
ATOM      4  O   UNL     1      35.563 -24.968 -14.608  0.00  0.00    -0.452 OA
BRANCH   4   5
ATOM      5  C   UNL     1      36.852 -25.576 -14.548  0.00  0.00    +0.180 C 
ATOM      6  C   UNL     1      36.814 -26.876 -15.340  0.00  0.00    +0.048 C 
BRANCH   5   7
ATOM      7  C   UNL     1      37.201 -25.834 -13.082  0.00  0.00    +0.153 C 
BRANCH   7   9
ATOM      8  O   UNL     1      39.254 -24.522 -13.042  0.00  0.00    -0.250 OA
ATOM      9  C   UNL     1      38.181 -24.818 -12.533  0.00  0.00    +0.321 C 
BRANCH   9  10
ATOM     10  O   UNL     1      37.670 -24.291 -11.381  0.00  0.00    -0.444 OA
ATOM     11  C   UNL     1      37.076 -22.995 -11.507  0.00  0.00    +0.256 C 
ENDBRANCH   9  10
ENDBRANCH   7   9
ENDBRANCH   5   7
ENDBRANCH   4   5
ENDBRANCH   3   4
ENDBRANCH   1   3
BRANCH   1  12
ATOM     12  C   UNL     1      33.319 -23.422 -16.718  0.00  0.00    +0.180 C 
ATOM     13  C   UNL     1      31.816 -23.246 -16.547  0.00  0.00    +0.048 C 
BRANCH  12  14
ATOM     14  O   UNL     1      33.808 -22.372 -17.552  0.00  0.00    -0.452 OA
BRANCH  14  16
ATOM     15  O   UNL     1      33.940 -23.835 -19.330  0.00  0.00    -0.250 OA
ATOM     16  C   UNL     1      34.083 -22.720 -18.846  0.00  0.00    +0.319 C 
BRANCH  16  17
ATOM     17  C   UNL     1      34.592 -21.502 -19.587  0.00  0.00    +0.139 C 
BRANCH  17  18
ATOM     18  C   UNL     1      36.115 -21.372 -19.520  0.00  0.00    +0.122 C 
ATOM     19  C   UNL     1      36.597 -20.156 -20.300  0.00  0.00    +0.032 C 
BRANCH  18  20
ATOM     20  O   UNL     1      36.499 -21.219 -18.155  0.00  0.00    -0.384 OA
ATOM     21  H   UNL     1      35.738 -20.914 -17.637  0.00  0.00    +0.210 HD
ENDBRANCH  18  20
ENDBRANCH  17  18
ENDBRANCH  16  17
ENDBRANCH  14  16
ENDBRANCH  12  14
ENDBRANCH   1  12
TORSDOF 12
ENDMDL
MODEL 5
REMARK VINA RESULT:      -6.6      2.341      4.235
REMARK  Name = 49867580
REMARK  12 active torsions:
REMARK  status: ('A' for Active; 'I' for Inactive)
REMARK    1  A    between atoms: C_1  and  C_3
REMARK    2  A    between atoms: C_1  and  C_12
REMARK    3  A    between atoms: C_3  and  O_4
REMARK    4  A    between atoms: O_4  and  C_5
REMARK    5  A    between atoms: C_5  and  C_7
REMARK    6  A    between atoms: C_7  and  C_9
REMARK    7  A    between atoms: C_9  and  O_10
REMARK    8  A    between atoms: C_12  and  O_14
REMARK    9  A    between atoms: O_14  and  C_16
REMARK   10  A    between atoms: C_16  and  C_17
REMARK   11  A    between atoms: C_17  and  C_18
REMARK   12  A    between atoms: C_18  and  O_20
REMARK                            x       y       z     vdW  Elec       q    Type
REMARK                         _______ _______ _______ _____ _____    ______ ____
ROOT
ATOM      1  C   UNL     1      34.941 -21.482 -19.261  0.00  0.00    +0.153 C 
ENDROOT
BRANCH   1   3
ATOM      2  O   UNL     1      34.007 -23.692 -19.685  0.00  0.00    -0.250 OA
ATOM      3  C   UNL     1      34.032 -22.668 -19.016  0.00  0.00    +0.321 C 
BRANCH   3   4
ATOM      4  O   UNL     1      33.243 -22.407 -17.928  0.00  0.00    -0.452 OA
BRANCH   4   5
ATOM      5  C   UNL     1      33.248 -23.403 -16.907  0.00  0.00    +0.180 C 
ATOM      6  C   UNL     1      31.909 -23.364 -16.184  0.00  0.00    +0.048 C 
BRANCH   5   7
ATOM      7  C   UNL     1      34.402 -23.111 -15.947  0.00  0.00    +0.153 C 
BRANCH   7   9
ATOM      8  O   UNL     1      34.246 -24.416 -13.896  0.00  0.00    -0.250 OA
ATOM      9  C   UNL     1      34.695 -24.277 -15.025  0.00  0.00    +0.321 C 
BRANCH   9  10
ATOM     10  O   UNL     1      35.542 -25.140 -15.661  0.00  0.00    -0.444 OA
ATOM     11  C   UNL     1      36.750 -25.449 -14.957  0.00  0.00    +0.256 C 
ENDBRANCH   9  10
ENDBRANCH   7   9
ENDBRANCH   5   7
ENDBRANCH   4   5
ENDBRANCH   3   4
ENDBRANCH   1   3
BRANCH   1  12
ATOM     12  C   UNL     1      34.481 -20.628 -20.443  0.00  0.00    +0.180 C 
ATOM     13  C   UNL     1      33.022 -20.219 -20.291  0.00  0.00    +0.048 C 
BRANCH  12  14
ATOM     14  O   UNL     1      35.282 -19.448 -20.491  0.00  0.00    -0.452 OA
BRANCH  14  16
ATOM     15  O   UNL     1      35.140 -19.149 -22.774  0.00  0.00    -0.250 OA
ATOM     16  C   UNL     1      35.175 -18.704 -21.635  0.00  0.00    +0.319 C 
BRANCH  16  17
ATOM     17  C   UNL     1      35.104 -17.238 -21.264  0.00  0.00    +0.139 C 
BRANCH  17  18
ATOM     18  C   UNL     1      34.670 -16.359 -22.438  0.00  0.00    +0.122 C 
ATOM     19  C   UNL     1      34.400 -14.931 -21.985  0.00  0.00    +0.032 C 
BRANCH  18  20
ATOM     20  O   UNL     1      35.720 -16.339 -23.403  0.00  0.00    -0.384 OA
ATOM     21  H   UNL     1      35.468 -16.882 -24.167  0.00  0.00    +0.210 HD
ENDBRANCH  18  20
ENDBRANCH  17  18
ENDBRANCH  16  17
ENDBRANCH  14  16
ENDBRANCH  12  14
ENDBRANCH   1  12
TORSDOF 12
ENDMDL
MODEL 6
REMARK VINA RESULT:      -6.6      7.420      9.741
REMARK  Name = 49867580
REMARK  12 active torsions:
REMARK  status: ('A' for Active; 'I' for Inactive)
REMARK    1  A    between atoms: C_1  and  C_3
REMARK    2  A    between atoms: C_1  and  C_12
REMARK    3  A    between atoms: C_3  and  O_4
REMARK    4  A    between atoms: O_4  and  C_5
REMARK    5  A    between atoms: C_5  and  C_7
REMARK    6  A    between atoms: C_7  and  C_9
REMARK    7  A    between atoms: C_9  and  O_10
REMARK    8  A    between atoms: C_12  and  O_14
REMARK    9  A    between atoms: O_14  and  C_16
REMARK   10  A    between atoms: C_16  and  C_17
REMARK   11  A    between atoms: C_17  and  C_18
REMARK   12  A    between atoms: C_18  and  O_20
REMARK                            x       y       z     vdW  Elec       q    Type
REMARK                         _______ _______ _______ _____ _____    ______ ____
ROOT
ATOM      1  C   UNL     1      35.267 -24.757 -15.183  0.00  0.00    +0.153 C 
ENDROOT
BRANCH   1   3
ATOM      2  O   UNL     1      36.822 -22.895 -14.955  0.00  0.00    -0.250 OA
ATOM      3  C   UNL     1      36.623 -24.100 -15.029  0.00  0.00    +0.321 C 
BRANCH   3   4
ATOM      4  O   UNL     1      37.586 -25.072 -14.990  0.00  0.00    -0.452 OA
BRANCH   4   5
ATOM      5  C   UNL     1      38.636 -24.864 -14.047  0.00  0.00    +0.180 C 
ATOM      6  C   UNL     1      39.843 -25.687 -14.474  0.00  0.00    +0.048 C 
BRANCH   5   7
ATOM      7  C   UNL     1      38.140 -25.289 -12.664  0.00  0.00    +0.153 C 
BRANCH   7   9
ATOM      8  O   UNL     1      38.689 -23.110 -11.722  0.00  0.00    -0.250 OA
ATOM      9  C   UNL     1      37.993 -24.116 -11.717  0.00  0.00    +0.321 C 
BRANCH   9  10
ATOM     10  O   UNL     1      36.959 -24.369 -10.860  0.00  0.00    -0.444 OA
ATOM     11  C   UNL     1      35.661 -24.424 -11.461  0.00  0.00    +0.256 C 
ENDBRANCH   9  10
ENDBRANCH   7   9
ENDBRANCH   5   7
ENDBRANCH   4   5
ENDBRANCH   3   4
ENDBRANCH   1   3
BRANCH   1  12
ATOM     12  C   UNL     1      34.133 -23.738 -15.291  0.00  0.00    +0.180 C 
ATOM     13  C   UNL     1      33.942 -23.277 -16.730  0.00  0.00    +0.048 C 
BRANCH  12  14
ATOM     14  O   UNL     1      32.925 -24.352 -14.846  0.00  0.00    -0.452 OA
BRANCH  14  16
ATOM     15  O   UNL     1      32.462 -23.377 -12.807  0.00  0.00    -0.250 OA
ATOM     16  C   UNL     1      32.171 -23.616 -13.972  0.00  0.00    +0.319 C 
BRANCH  16  17
ATOM     17  C   UNL     1      30.919 -23.141 -14.679  0.00  0.00    +0.139 C 
BRANCH  17  18
ATOM     18  C   UNL     1      29.776 -24.154 -14.585  0.00  0.00    +0.122 C 
ATOM     19  C   UNL     1      29.279 -24.551 -15.968  0.00  0.00    +0.032 C 
BRANCH  18  20
ATOM     20  O   UNL     1      30.256 -25.321 -13.921  0.00  0.00    -0.384 OA
ATOM     21  H   UNL     1      29.868 -25.371 -13.033  0.00  0.00    +0.210 HD
ENDBRANCH  18  20
ENDBRANCH  17  18
ENDBRANCH  16  17
ENDBRANCH  14  16
ENDBRANCH  12  14
ENDBRANCH   1  12
TORSDOF 12
ENDMDL
MODEL 7
REMARK VINA RESULT:      -6.6      4.363      7.509
REMARK  Name = 49867580
REMARK  12 active torsions:
REMARK  status: ('A' for Active; 'I' for Inactive)
REMARK    1  A    between atoms: C_1  and  C_3
REMARK    2  A    between atoms: C_1  and  C_12
REMARK    3  A    between atoms: C_3  and  O_4
REMARK    4  A    between atoms: O_4  and  C_5
REMARK    5  A    between atoms: C_5  and  C_7
REMARK    6  A    between atoms: C_7  and  C_9
REMARK    7  A    between atoms: C_9  and  O_10
REMARK    8  A    between atoms: C_12  and  O_14
REMARK    9  A    between atoms: O_14  and  C_16
REMARK   10  A    between atoms: C_16  and  C_17
REMARK   11  A    between atoms: C_17  and  C_18
REMARK   12  A    between atoms: C_18  and  O_20
REMARK                            x       y       z     vdW  Elec       q    Type
REMARK                         _______ _______ _______ _____ _____    ______ ____
ROOT
ATOM      1  C   UNL     1      33.945 -23.164 -15.723  0.00  0.00    +0.153 C 
ENDROOT
BRANCH   1   3
ATOM      2  O   UNL     1      36.261 -22.913 -16.438  0.00  0.00    -0.250 OA
ATOM      3  C   UNL     1      35.361 -23.620 -16.006  0.00  0.00    +0.321 C 
BRANCH   3   4
ATOM      4  O   UNL     1      35.467 -24.952 -15.705  0.00  0.00    -0.452 OA
BRANCH   4   5
ATOM      5  C   UNL     1      36.684 -25.347 -15.074  0.00  0.00    +0.180 C 
ATOM      6  C   UNL     1      36.806 -26.862 -15.159  0.00  0.00    +0.048 C 
BRANCH   5   7
ATOM      7  C   UNL     1      36.653 -24.877 -13.619  0.00  0.00    +0.153 C 
BRANCH   7   9
ATOM      8  O   UNL     1      37.949 -25.997 -11.886  0.00  0.00    -0.250 OA
ATOM      9  C   UNL     1      37.908 -25.259 -12.861  0.00  0.00    +0.321 C 
BRANCH   9  10
ATOM     10  O   UNL     1      38.980 -24.644 -13.445  0.00  0.00    -0.444 OA
ATOM     11  C   UNL     1      40.020 -25.518 -13.896  0.00  0.00    +0.256 C 
ENDBRANCH   9  10
ENDBRANCH   7   9
ENDBRANCH   5   7
ENDBRANCH   4   5
ENDBRANCH   3   4
ENDBRANCH   1   3
BRANCH   1  12
ATOM     12  C   UNL     1      33.013 -23.378 -16.916  0.00  0.00    +0.180 C 
ATOM     13  C   UNL     1      31.553 -23.348 -16.485  0.00  0.00    +0.048 C 
BRANCH  12  14
ATOM     14  O   UNL     1      33.231 -22.329 -17.858  0.00  0.00    -0.452 OA
BRANCH  14  16
ATOM     15  O   UNL     1      33.896 -23.792 -19.514  0.00  0.00    -0.250 OA
ATOM     16  C   UNL     1      33.906 -22.683 -18.995  0.00  0.00    +0.319 C 
BRANCH  16  17
ATOM     17  C   UNL     1      34.666 -21.480 -19.512  0.00  0.00    +0.139 C 
BRANCH  17  18
ATOM     18  C   UNL     1      33.741 -20.420 -20.114  0.00  0.00    +0.122 C 
ATOM     19  C   UNL     1      34.376 -19.765 -21.333  0.00  0.00    +0.032 C 
BRANCH  18  20
ATOM     20  O   UNL     1      32.527 -21.052 -20.517  0.00  0.00    -0.384 OA
ATOM     21  H   UNL     1      32.273 -20.733 -21.397  0.00  0.00    +0.210 HD
ENDBRANCH  18  20
ENDBRANCH  17  18
ENDBRANCH  16  17
ENDBRANCH  14  16
ENDBRANCH  12  14
ENDBRANCH   1  12
TORSDOF 12
ENDMDL
MODEL 8
REMARK VINA RESULT:      -6.5      1.940      4.064
REMARK  Name = 49867580
REMARK  12 active torsions:
REMARK  status: ('A' for Active; 'I' for Inactive)
REMARK    1  A    between atoms: C_1  and  C_3
REMARK    2  A    between atoms: C_1  and  C_12
REMARK    3  A    between atoms: C_3  and  O_4
REMARK    4  A    between atoms: O_4  and  C_5
REMARK    5  A    between atoms: C_5  and  C_7
REMARK    6  A    between atoms: C_7  and  C_9
REMARK    7  A    between atoms: C_9  and  O_10
REMARK    8  A    between atoms: C_12  and  O_14
REMARK    9  A    between atoms: O_14  and  C_16
REMARK   10  A    between atoms: C_16  and  C_17
REMARK   11  A    between atoms: C_17  and  C_18
REMARK   12  A    between atoms: C_18  and  O_20
REMARK                            x       y       z     vdW  Elec       q    Type
REMARK                         _______ _______ _______ _____ _____    ______ ____
ROOT
ATOM      1  C   UNL     1      32.668 -15.443 -20.782  0.00  0.00    +0.153 C 
ENDROOT
BRANCH   1   3
ATOM      2  O   UNL     1      35.018 -15.633 -20.167  0.00  0.00    -0.250 OA
ATOM      3  C   UNL     1      34.063 -16.031 -20.820  0.00  0.00    +0.321 C 
BRANCH   3   4
ATOM      4  O   UNL     1      34.081 -17.076 -21.705  0.00  0.00    -0.452 OA
BRANCH   4   5
ATOM      5  C   UNL     1      34.778 -18.242 -21.270  0.00  0.00    +0.180 C 
ATOM      6  C   UNL     1      36.096 -18.331 -22.025  0.00  0.00    +0.048 C 
BRANCH   5   7
ATOM      7  C   UNL     1      33.901 -19.464 -21.545  0.00  0.00    +0.153 C 
BRANCH   7   9
ATOM      8  O   UNL     1      32.622 -20.487 -19.742  0.00  0.00    -0.250 OA
ATOM      9  C   UNL     1      33.691 -20.316 -20.311  0.00  0.00    +0.321 C 
BRANCH   9  10
ATOM     10  O   UNL     1      34.890 -20.857 -19.940  0.00  0.00    -0.444 OA
ATOM     11  C   UNL     1      34.811 -22.063 -19.172  0.00  0.00    +0.256 C 
ENDBRANCH   9  10
ENDBRANCH   7   9
ENDBRANCH   5   7
ENDBRANCH   4   5
ENDBRANCH   3   4
ENDBRANCH   1   3
BRANCH   1  12
ATOM     12  C   UNL     1      32.523 -14.224 -21.693  0.00  0.00    +0.180 C 
ATOM     13  C   UNL     1      32.149 -12.983 -20.895  0.00  0.00    +0.048 C 
BRANCH  12  14
ATOM     14  O   UNL     1      33.772 -13.990 -22.342  0.00  0.00    -0.452 OA
BRANCH  14  16
ATOM     15  O   UNL     1      34.060 -12.679 -24.218  0.00  0.00    -0.250 OA
ATOM     16  C   UNL     1      33.703 -13.720 -23.682  0.00  0.00    +0.319 C 
BRANCH  16  17
ATOM     17  C   UNL     1      33.116 -14.918 -24.397  0.00  0.00    +0.139 C 
BRANCH  17  18
ATOM     18  C   UNL     1      34.077 -15.509 -25.430  0.00  0.00    +0.122 C 
ATOM     19  C   UNL     1      34.337 -16.985 -25.157  0.00  0.00    +0.032 C 
BRANCH  18  20
ATOM     20  O   UNL     1      33.489 -15.383 -26.723  0.00  0.00    -0.384 OA
ATOM     21  H   UNL     1      32.535 -15.234 -26.632  0.00  0.00    +0.210 HD
ENDBRANCH  18  20
ENDBRANCH  17  18
ENDBRANCH  16  17
ENDBRANCH  14  16
ENDBRANCH  12  14
ENDBRANCH   1  12
TORSDOF 12
ENDMDL
MODEL 9
REMARK VINA RESULT:      -6.5      2.098      4.677
REMARK  Name = 49867580
REMARK  12 active torsions:
REMARK  status: ('A' for Active; 'I' for Inactive)
REMARK    1  A    between atoms: C_1  and  C_3
REMARK    2  A    between atoms: C_1  and  C_12
REMARK    3  A    between atoms: C_3  and  O_4
REMARK    4  A    between atoms: O_4  and  C_5
REMARK    5  A    between atoms: C_5  and  C_7
REMARK    6  A    between atoms: C_7  and  C_9
REMARK    7  A    between atoms: C_9  and  O_10
REMARK    8  A    between atoms: C_12  and  O_14
REMARK    9  A    between atoms: O_14  and  C_16
REMARK   10  A    between atoms: C_16  and  C_17
REMARK   11  A    between atoms: C_17  and  C_18
REMARK   12  A    between atoms: C_18  and  O_20
REMARK                            x       y       z     vdW  Elec       q    Type
REMARK                         _______ _______ _______ _____ _____    ______ ____
ROOT
ATOM      1  C   UNL     1      34.517 -22.682 -19.385  0.00  0.00    +0.153 C 
ENDROOT
BRANCH   1   3
ATOM      2  O   UNL     1      32.377 -22.279 -18.291  0.00  0.00    -0.250 OA
ATOM      3  C   UNL     1      33.470 -22.829 -18.301  0.00  0.00    +0.321 C 
BRANCH   3   4
ATOM      4  O   UNL     1      33.948 -23.672 -17.333  0.00  0.00    -0.452 OA
BRANCH   4   5
ATOM      5  C   UNL     1      34.106 -23.098 -16.037  0.00  0.00    +0.180 C 
ATOM      6  C   UNL     1      35.592 -22.910 -15.767  0.00  0.00    +0.048 C 
BRANCH   5   7
ATOM      7  C   UNL     1      33.474 -24.036 -15.008  0.00  0.00    +0.153 C 
BRANCH   7   9
ATOM      8  O   UNL     1      32.117 -23.432 -13.077  0.00  0.00    -0.250 OA
ATOM      9  C   UNL     1      32.306 -23.398 -14.285  0.00  0.00    +0.321 C 
BRANCH   9  10
ATOM     10  O   UNL     1      31.503 -22.782 -15.203  0.00  0.00    -0.444 OA
ATOM     11  C   UNL     1      30.345 -23.523 -15.604  0.00  0.00    +0.256 C 
ENDBRANCH   9  10
ENDBRANCH   7   9
ENDBRANCH   5   7
ENDBRANCH   4   5
ENDBRANCH   3   4
ENDBRANCH   1   3
BRANCH   1  12
ATOM     12  C   UNL     1      35.115 -21.276 -19.433  0.00  0.00    +0.180 C 
ATOM     13  C   UNL     1      36.555 -21.274 -18.937  0.00  0.00    +0.048 C 
BRANCH  12  14
ATOM     14  O   UNL     1      35.099 -20.820 -20.785  0.00  0.00    -0.452 OA
BRANCH  14  16
ATOM     15  O   UNL     1      33.088 -19.736 -20.466  0.00  0.00    -0.250 OA
ATOM     16  C   UNL     1      34.125 -19.909 -21.092  0.00  0.00    +0.319 C 
BRANCH  16  17
ATOM     17  C   UNL     1      34.537 -19.147 -22.334  0.00  0.00    +0.139 C 
BRANCH  17  18
ATOM     18  C   UNL     1      35.552 -18.043 -22.030  0.00  0.00    +0.122 C 
ATOM     19  C   UNL     1      35.184 -16.748 -22.742  0.00  0.00    +0.032 C 
BRANCH  18  20
ATOM     20  O   UNL     1      35.557 -17.804 -20.624  0.00  0.00    -0.384 OA
ATOM     21  H   UNL     1      35.083 -18.520 -20.173  0.00  0.00    +0.210 HD
ENDBRANCH  18  20
ENDBRANCH  17  18
ENDBRANCH  16  17
ENDBRANCH  14  16
ENDBRANCH  12  14
ENDBRANCH   1  12
TORSDOF 12
ENDMDL
