MODEL 1
REMARK VINA RESULT:     -12.7      0.000      0.000
REMARK  Name = 66599893
REMARK  9 active torsions:
REMARK  status: ('A' for Active; 'I' for Inactive)
REMARK    1  A    between atoms: C_1  and  C_2
REMARK    2  A    between atoms: C_1  and  C_22
REMARK    3  A    between atoms: C_1  and  C_34
REMARK    4  A    between atoms: C_5  and  C_8
REMARK    5  A    between atoms: C_8  and  O_9
REMARK    6  A    between atoms: O_9  and  C_11
REMARK    7  A    between atoms: C_11  and  C_12
REMARK    8  A    between atoms: N_21  and  C_25
REMARK    9  A    between atoms: C_34  and  N_35
REMARK                            x       y       z     vdW  Elec       q    Type
REMARK                         _______ _______ _______ _____ _____    ______ ____
ROOT
ATOM      1  C   UNL     1      35.137 -18.636 -22.145  0.00  0.00    +0.077 C 
ENDROOT
BRANCH   1   2
ATOM      2  C   UNL     1      34.681 -19.671 -21.128  0.00  0.00    -0.016 C 
ATOM      3  C   UNL     1      35.617 -20.497 -20.506  0.00  0.00    -0.004 C 
ATOM      4  C   UNL     1      33.327 -19.793 -20.816  0.00  0.00    -0.004 C 
ATOM      5  C   UNL     1      33.845 -21.569 -19.262  0.00  0.00    +0.021 C 
ATOM      6  C   UNL     1      35.199 -21.447 -19.574  0.00  0.00    -0.001 C 
ATOM      7  C   UNL     1      32.909 -20.743 -19.884  0.00  0.00    -0.001 C 
BRANCH   5   8
ATOM      8  C   UNL     1      33.398 -22.584 -18.264  0.00  0.00    +0.235 C 
BRANCH   8   9
ATOM      9  O   UNL     1      34.534 -23.144 -17.618  0.00  0.00    -0.440 OA
BRANCH   9  11
ATOM     10  O   UNL     1      33.518 -22.896 -15.567  0.00  0.00    -0.245 OA
ATOM     11  C   UNL     1      34.460 -23.242 -16.262  0.00  0.00    +0.341 C 
BRANCH  11  12
ATOM     12  C   UNL     1      35.703 -23.840 -15.711  0.00  0.00    +0.072 C 
ATOM     13  C   UNL     1      36.917 -23.157 -15.767  0.00  0.00    -0.016 C 
ATOM     14  C   UNL     1      38.010 -25.008 -14.663  0.00  0.00    -0.022 C 
ATOM     15  C   UNL     1      38.071 -23.740 -15.242  0.00  0.00    -0.008 C 
ATOM     16  C   UNL     1      35.642 -25.107 -15.132  0.00  0.00    +0.006 C 
ATOM     17  C   UNL     1      36.795 -25.692 -14.608  0.00  0.00    -0.004 C 
ATOM     18  C   UNL     1      37.011 -21.798 -16.381  0.00  0.00    +0.031 C 
ATOM     19  C   UNL     1      39.242 -25.634 -14.103  0.00  0.00    +0.031 C 
ENDBRANCH  11  12
ENDBRANCH   9  11
ENDBRANCH   8   9
ENDBRANCH   5   8
ENDBRANCH   1   2
BRANCH   1  22
ATOM     20  O   UNL     1      35.206 -16.812 -20.560  0.00  0.00    -0.275 OA
ATOM     21  N   UNL     1      34.012 -16.513 -22.563  0.00  0.00    -0.284 N 
ATOM     22  C   UNL     1      34.807 -17.221 -21.647  0.00  0.00    +0.228 C 
ATOM     23  H   UNL     1      33.771 -16.995 -23.387  0.00  0.00    +0.155 HD
BRANCH  21  25
ATOM     24  N   UNL     1      32.449 -10.297 -23.021  0.00  0.00    -0.242 NA
ATOM     25  C   UNL     1      33.520 -15.210 -22.454  0.00  0.00    +0.050 C 
ATOM     26  C   UNL     1      33.935 -14.232 -23.359  0.00  0.00    +0.015 C 
ATOM     27  C   UNL     1      33.451 -12.917 -23.261  0.00  0.00    +0.004 C 
ATOM     28  C   UNL     1      32.619 -14.890 -21.443  0.00  0.00    +0.015 C 
ATOM     29  C   UNL     1      32.537 -12.597 -22.236  0.00  0.00    +0.019 C 
ATOM     30  C   UNL     1      32.127 -13.590 -21.330  0.00  0.00    +0.003 C 
ATOM     31  C   UNL     1      33.847 -11.913 -24.154  0.00  0.00    +0.021 C 
ATOM     32  C   UNL     1      32.078 -11.280 -22.170  0.00  0.00    +0.099 C 
ATOM     33  C   UNL     1      33.324 -10.640 -23.991  0.00  0.00    +0.099 C 
ENDBRANCH  21  25
ENDBRANCH   1  22
BRANCH   1  34
ATOM     34  C   UNL     1      34.533 -18.866 -23.545  0.00  0.00    -0.072 C 
BRANCH  34  35
ATOM     35  N   UNL     1      35.257 -19.892 -24.289  0.00  0.00    +0.381 N 
ATOM     36  H   UNL     1      34.634 -20.319 -24.974  0.00  0.00    -0.089 HD
ATOM     37  H   UNL     1      35.592 -20.607 -23.643  0.00  0.00    -0.089 HD
ATOM     38  H   UNL     1      36.052 -19.469 -24.768  0.00  0.00    -0.089 HD
ENDBRANCH  34  35
ENDBRANCH   1  34
TORSDOF 9
ENDMDL
MODEL 2
REMARK VINA RESULT:     -12.4      3.476     12.910
REMARK  Name = 66599893
REMARK  9 active torsions:
REMARK  status: ('A' for Active; 'I' for Inactive)
REMARK    1  A    between atoms: C_1  and  C_2
REMARK    2  A    between atoms: C_1  and  C_22
REMARK    3  A    between atoms: C_1  and  C_34
REMARK    4  A    between atoms: C_5  and  C_8
REMARK    5  A    between atoms: C_8  and  O_9
REMARK    6  A    between atoms: O_9  and  C_11
REMARK    7  A    between atoms: C_11  and  C_12
REMARK    8  A    between atoms: N_21  and  C_25
REMARK    9  A    between atoms: C_34  and  N_35
REMARK                            x       y       z     vdW  Elec       q    Type
REMARK                         _______ _______ _______ _____ _____    ______ ____
ROOT
ATOM      1  C   UNL     1      33.924 -15.843 -23.352  0.00  0.00    +0.077 C 
ENDROOT
BRANCH   1   2
ATOM      2  C   UNL     1      33.318 -14.514 -22.932  0.00  0.00    -0.016 C 
ATOM      3  C   UNL     1      33.536 -13.372 -23.704  0.00  0.00    -0.004 C 
ATOM      4  C   UNL     1      32.543 -14.435 -21.774  0.00  0.00    -0.004 C 
ATOM      5  C   UNL     1      32.206 -12.074 -22.161  0.00  0.00    +0.021 C 
ATOM      6  C   UNL     1      32.981 -12.152 -23.317  0.00  0.00    -0.001 C 
ATOM      7  C   UNL     1      31.988 -13.215 -21.388  0.00  0.00    -0.001 C 
BRANCH   5   8
ATOM      8  C   UNL     1      31.611 -10.770 -21.748  0.00  0.00    +0.235 C 
BRANCH   8   9
ATOM      9  O   UNL     1      32.008  -9.757 -22.665  0.00  0.00    -0.440 OA
BRANCH   9  11
ATOM     10  O   UNL     1      32.588  -8.347 -20.941  0.00  0.00    -0.245 OA
ATOM     11  C   UNL     1      32.344  -8.557 -22.119  0.00  0.00    +0.341 C 
BRANCH  11  12
ATOM     12  C   UNL     1      32.376  -7.498 -23.160  0.00  0.00    +0.072 C 
ATOM     13  C   UNL     1      33.553  -7.195 -23.843  0.00  0.00    -0.016 C 
ATOM     14  C   UNL     1      32.384  -5.497 -25.105  0.00  0.00    -0.022 C 
ATOM     15  C   UNL     1      33.557  -6.195 -24.816  0.00  0.00    -0.008 C 
ATOM     16  C   UNL     1      31.203  -6.800 -23.448  0.00  0.00    +0.006 C 
ATOM     17  C   UNL     1      31.207  -5.800 -24.420  0.00  0.00    -0.004 C 
ATOM     18  C   UNL     1      34.823  -7.926 -23.555  0.00  0.00    +0.031 C 
ATOM     19  C   UNL     1      32.387  -4.427 -26.143  0.00  0.00    +0.031 C 
ENDBRANCH  11  12
ENDBRANCH   9  11
ENDBRANCH   8   9
ENDBRANCH   5   8
ENDBRANCH   1   2
BRANCH   1  22
ATOM     20  O   UNL     1      34.926 -15.993 -21.157  0.00  0.00    -0.275 OA
ATOM     21  N   UNL     1      34.370 -17.986 -22.276  0.00  0.00    -0.284 N 
ATOM     22  C   UNL     1      34.464 -16.593 -22.125  0.00  0.00    +0.228 C 
ATOM     23  H   UNL     1      33.982 -18.302 -23.123  0.00  0.00    +0.155 HD
BRANCH  21  25
ATOM     24  N   UNL     1      34.971 -22.803 -18.066  0.00  0.00    -0.242 NA
ATOM     25  C   UNL     1      34.758 -18.980 -21.375  0.00  0.00    +0.050 C 
ATOM     26  C   UNL     1      33.794 -19.804 -20.791  0.00  0.00    +0.015 C 
ATOM     27  C   UNL     1      34.167 -20.807 -19.881  0.00  0.00    +0.004 C 
ATOM     28  C   UNL     1      36.104 -19.147 -21.060  0.00  0.00    +0.015 C 
ATOM     29  C   UNL     1      35.532 -20.973 -19.566  0.00  0.00    +0.019 C 
ATOM     30  C   UNL     1      36.494 -20.138 -20.160  0.00  0.00    +0.003 C 
ATOM     31  C   UNL     1      33.225 -21.649 -19.278  0.00  0.00    +0.021 C 
ATOM     32  C   UNL     1      35.866 -21.981 -18.659  0.00  0.00    +0.099 C 
ATOM     33  C   UNL     1      33.674 -22.616 -18.392  0.00  0.00    +0.099 C 
ENDBRANCH  21  25
ENDBRANCH   1  22
BRANCH   1  34
ATOM     34  C   UNL     1      35.031 -15.689 -24.414  0.00  0.00    -0.072 C 
BRANCH  34  35
ATOM     35  N   UNL     1      35.042 -16.804 -25.357  0.00  0.00    +0.381 N 
ATOM     36  H   UNL     1      35.187 -16.450 -26.302  0.00  0.00    -0.089 HD
ATOM     37  H   UNL     1      34.149 -17.295 -25.312  0.00  0.00    -0.089 HD
ATOM     38  H   UNL     1      35.795 -17.447 -25.114  0.00  0.00    -0.089 HD
ENDBRANCH  34  35
ENDBRANCH   1  34
TORSDOF 9
ENDMDL
MODEL 3
REMARK VINA RESULT:     -12.4      3.772     12.737
REMARK  Name = 66599893
REMARK  9 active torsions:
REMARK  status: ('A' for Active; 'I' for Inactive)
REMARK    1  A    between atoms: C_1  and  C_2
REMARK    2  A    between atoms: C_1  and  C_22
REMARK    3  A    between atoms: C_1  and  C_34
REMARK    4  A    between atoms: C_5  and  C_8
REMARK    5  A    between atoms: C_8  and  O_9
REMARK    6  A    between atoms: O_9  and  C_11
REMARK    7  A    between atoms: C_11  and  C_12
REMARK    8  A    between atoms: N_21  and  C_25
REMARK    9  A    between atoms: C_34  and  N_35
REMARK                            x       y       z     vdW  Elec       q    Type
REMARK                         _______ _______ _______ _____ _____    ______ ____
ROOT
ATOM      1  C   UNL     1      33.194 -14.901 -23.044  0.00  0.00    +0.077 C 
ENDROOT
BRANCH   1   2
ATOM      2  C   UNL     1      32.760 -13.621 -22.347  0.00  0.00    -0.016 C 
ATOM      3  C   UNL     1      32.373 -13.652 -21.007  0.00  0.00    -0.004 C 
ATOM      4  C   UNL     1      32.749 -12.414 -23.048  0.00  0.00    -0.004 C 
ATOM      5  C   UNL     1      31.964 -11.273 -21.069  0.00  0.00    +0.021 C 
ATOM      6  C   UNL     1      31.974 -12.478 -20.369  0.00  0.00    -0.001 C 
ATOM      7  C   UNL     1      32.350 -11.241 -22.409  0.00  0.00    -0.001 C 
BRANCH   5   8
ATOM      8  C   UNL     1      31.539 -10.016 -20.385  0.00  0.00    +0.235 C 
BRANCH   8   9
ATOM      9  O   UNL     1      31.525  -8.949 -21.325  0.00  0.00    -0.440 OA
BRANCH   9  11
ATOM     10  O   UNL     1      32.740  -7.522 -19.988  0.00  0.00    -0.245 OA
ATOM     11  C   UNL     1      32.400  -7.933 -21.087  0.00  0.00    +0.341 C 
BRANCH  11  12
ATOM     12  C   UNL     1      32.906  -7.367 -22.363  0.00  0.00    +0.072 C 
ATOM     13  C   UNL     1      32.177  -6.408 -23.065  0.00  0.00    -0.016 C 
ATOM     14  C   UNL     1      33.902  -6.335 -24.756  0.00  0.00    -0.022 C 
ATOM     15  C   UNL     1      32.674  -5.892 -24.262  0.00  0.00    -0.008 C 
ATOM     16  C   UNL     1      34.134  -7.810 -22.856  0.00  0.00    +0.006 C 
ATOM     17  C   UNL     1      34.632  -7.294 -24.052  0.00  0.00    -0.004 C 
ATOM     18  C   UNL     1      30.860  -5.916 -22.560  0.00  0.00    +0.031 C 
ATOM     19  C   UNL     1      34.435  -5.785 -26.035  0.00  0.00    +0.031 C 
ENDBRANCH  11  12
ENDBRANCH   9  11
ENDBRANCH   8   9
ENDBRANCH   5   8
ENDBRANCH   1   2
BRANCH   1  22
ATOM     20  O   UNL     1      34.847 -15.254 -21.316  0.00  0.00    -0.275 OA
ATOM     21  N   UNL     1      33.794 -17.132 -22.262  0.00  0.00    -0.284 N 
ATOM     22  C   UNL     1      34.045 -15.760 -22.097  0.00  0.00    +0.228 C 
ATOM     23  H   UNL     1      33.124 -17.368 -22.943  0.00  0.00    +0.155 HD
BRANCH  21  25
ATOM     24  N   UNL     1      35.323 -22.424 -18.954  0.00  0.00    -0.242 NA
ATOM     25  C   UNL     1      34.374 -18.204 -21.581  0.00  0.00    +0.050 C 
ATOM     26  C   UNL     1      33.564 -19.189 -21.014  0.00  0.00    +0.015 C 
ATOM     27  C   UNL     1      34.132 -20.272 -20.324  0.00  0.00    +0.004 C 
ATOM     28  C   UNL     1      35.759 -18.288 -21.468  0.00  0.00    +0.015 C 
ATOM     29  C   UNL     1      35.536 -20.354 -20.213  0.00  0.00    +0.019 C 
ATOM     30  C   UNL     1      36.342 -19.357 -20.788  0.00  0.00    +0.003 C 
ATOM     31  C   UNL     1      33.347 -21.276 -19.744  0.00  0.00    +0.021 C 
ATOM     32  C   UNL     1      36.065 -21.445 -19.521  0.00  0.00    +0.099 C 
ATOM     33  C   UNL     1      33.984 -22.313 -19.081  0.00  0.00    +0.099 C 
ENDBRANCH  21  25
ENDBRANCH   1  22
BRANCH   1  34
ATOM     34  C   UNL     1      33.956 -14.639 -24.359  0.00  0.00    -0.072 C 
BRANCH  34  35
ATOM     35  N   UNL     1      33.193 -15.072 -25.526  0.00  0.00    +0.381 N 
ATOM     36  H   UNL     1      33.801 -15.082 -26.345  0.00  0.00    -0.089 HD
ATOM     37  H   UNL     1      32.420 -14.427 -25.685  0.00  0.00    -0.089 HD
ATOM     38  H   UNL     1      32.825 -16.009 -25.363  0.00  0.00    -0.089 HD
ENDBRANCH  34  35
ENDBRANCH   1  34
TORSDOF 9
ENDMDL
MODEL 4
REMARK VINA RESULT:     -12.4      1.754      3.030
REMARK  Name = 66599893
REMARK  9 active torsions:
REMARK  status: ('A' for Active; 'I' for Inactive)
REMARK    1  A    between atoms: C_1  and  C_2
REMARK    2  A    between atoms: C_1  and  C_22
REMARK    3  A    between atoms: C_1  and  C_34
REMARK    4  A    between atoms: C_5  and  C_8
REMARK    5  A    between atoms: C_8  and  O_9
REMARK    6  A    between atoms: O_9  and  C_11
REMARK    7  A    between atoms: C_11  and  C_12
REMARK    8  A    between atoms: N_21  and  C_25
REMARK    9  A    between atoms: C_34  and  N_35
REMARK                            x       y       z     vdW  Elec       q    Type
REMARK                         _______ _______ _______ _____ _____    ______ ____
ROOT
ATOM      1  C   UNL     1      35.258 -17.276 -22.886  0.00  0.00    +0.077 C 
ENDROOT
BRANCH   1   2
ATOM      2  C   UNL     1      35.275 -18.437 -21.905  0.00  0.00    -0.016 C 
ATOM      3  C   UNL     1      36.485 -18.884 -21.373  0.00  0.00    -0.004 C 
ATOM      4  C   UNL     1      34.080 -19.056 -21.536  0.00  0.00    -0.004 C 
ATOM      5  C   UNL     1      35.306 -20.569 -20.105  0.00  0.00    +0.021 C 
ATOM      6  C   UNL     1      36.500 -19.950 -20.474  0.00  0.00    -0.001 C 
ATOM      7  C   UNL     1      34.096 -20.123 -20.637  0.00  0.00    -0.001 C 
BRANCH   5   8
ATOM      8  C   UNL     1      35.322 -21.708 -19.142  0.00  0.00    +0.235 C 
BRANCH   8   9
ATOM      9  O   UNL     1      34.033 -21.853 -18.560  0.00  0.00    -0.440 OA
BRANCH   9  11
ATOM     10  O   UNL     1      33.810 -24.098 -19.015  0.00  0.00    -0.245 OA
ATOM     11  C   UNL     1      33.639 -23.128 -18.293  0.00  0.00    +0.341 C 
BRANCH  11  12
ATOM     12  C   UNL     1      32.953 -23.201 -16.978  0.00  0.00    +0.072 C 
ATOM     13  C   UNL     1      33.672 -23.413 -15.802  0.00  0.00    -0.016 C 
ATOM     14  C   UNL     1      31.617 -23.333 -14.532  0.00  0.00    -0.022 C 
ATOM     15  C   UNL     1      33.004 -23.479 -14.579  0.00  0.00    -0.008 C 
ATOM     16  C   UNL     1      31.567 -23.055 -16.932  0.00  0.00    +0.006 C 
ATOM     17  C   UNL     1      30.899 -23.121 -15.709  0.00  0.00    -0.004 C 
ATOM     18  C   UNL     1      35.157 -23.572 -15.822  0.00  0.00    +0.031 C 
ATOM     19  C   UNL     1      30.902 -23.404 -13.226  0.00  0.00    +0.031 C 
ENDBRANCH  11  12
ENDBRANCH   9  11
ENDBRANCH   8   9
ENDBRANCH   5   8
ENDBRANCH   1   2
BRANCH   1  22
ATOM     20  O   UNL     1      35.009 -15.764 -21.017  0.00  0.00    -0.275 OA
ATOM     21  N   UNL     1      33.976 -15.208 -23.055  0.00  0.00    -0.284 N 
ATOM     22  C   UNL     1      34.750 -16.003 -22.194  0.00  0.00    +0.228 C 
ATOM     23  H   UNL     1      33.858 -15.553 -23.969  0.00  0.00    +0.155 HD
BRANCH  21  25
ATOM     24  N   UNL     1      31.771  -9.182 -22.708  0.00  0.00    -0.242 NA
ATOM     25  C   UNL     1      33.354 -13.988 -22.778  0.00  0.00    +0.050 C 
ATOM     26  C   UNL     1      33.652 -12.864 -23.550  0.00  0.00    +0.015 C 
ATOM     27  C   UNL     1      33.036 -11.631 -23.284  0.00  0.00    +0.004 C 
ATOM     28  C   UNL     1      32.438 -13.896 -21.734  0.00  0.00    +0.015 C 
ATOM     29  C   UNL     1      32.108 -11.542 -22.225  0.00  0.00    +0.019 C 
ATOM     30  C   UNL     1      31.816 -12.680 -21.455  0.00  0.00    +0.003 C 
ATOM     31  C   UNL     1      33.313 -10.485 -24.040  0.00  0.00    +0.021 C 
ATOM     32  C   UNL     1      31.516 -10.299 -21.990  0.00  0.00    +0.099 C 
ATOM     33  C   UNL     1      32.663  -9.305 -23.714  0.00  0.00    +0.099 C 
ENDBRANCH  21  25
ENDBRANCH   1  22
BRANCH   1  34
ATOM     34  C   UNL     1      34.421 -17.569 -24.148  0.00  0.00    -0.072 C 
BRANCH  34  35
ATOM     35  N   UNL     1      34.864 -18.785 -24.825  0.00  0.00    +0.381 N 
ATOM     36  H   UNL     1      34.106 -19.147 -25.404  0.00  0.00    -0.089 HD
ATOM     37  H   UNL     1      35.125 -19.484 -24.130  0.00  0.00    -0.089 HD
ATOM     38  H   UNL     1      35.670 -18.572 -25.413  0.00  0.00    -0.089 HD
ENDBRANCH  34  35
ENDBRANCH   1  34
TORSDOF 9
ENDMDL
MODEL 5
REMARK VINA RESULT:     -12.3      0.603      1.629
REMARK  Name = 66599893
REMARK  9 active torsions:
REMARK  status: ('A' for Active; 'I' for Inactive)
REMARK    1  A    between atoms: C_1  and  C_2
REMARK    2  A    between atoms: C_1  and  C_22
REMARK    3  A    between atoms: C_1  and  C_34
REMARK    4  A    between atoms: C_5  and  C_8
REMARK    5  A    between atoms: C_8  and  O_9
REMARK    6  A    between atoms: O_9  and  C_11
REMARK    7  A    between atoms: C_11  and  C_12
REMARK    8  A    between atoms: N_21  and  C_25
REMARK    9  A    between atoms: C_34  and  N_35
REMARK                            x       y       z     vdW  Elec       q    Type
REMARK                         _______ _______ _______ _____ _____    ______ ____
ROOT
ATOM      1  C   UNL     1      35.231 -18.579 -22.183  0.00  0.00    +0.077 C 
ENDROOT
BRANCH   1   2
ATOM      2  C   UNL     1      34.754 -19.607 -21.169  0.00  0.00    -0.016 C 
ATOM      3  C   UNL     1      33.393 -19.725 -20.882  0.00  0.00    -0.004 C 
ATOM      4  C   UNL     1      35.676 -20.433 -20.526  0.00  0.00    -0.004 C 
ATOM      5  C   UNL     1      33.878 -21.493 -19.310  0.00  0.00    +0.021 C 
ATOM      6  C   UNL     1      32.956 -20.668 -19.952  0.00  0.00    -0.001 C 
ATOM      7  C   UNL     1      35.238 -21.375 -19.596  0.00  0.00    -0.001 C 
BRANCH   5   8
ATOM      8  C   UNL     1      33.411 -22.503 -18.316  0.00  0.00    +0.235 C 
BRANCH   8   9
ATOM      9  O   UNL     1      34.535 -23.088 -17.671  0.00  0.00    -0.440 OA
BRANCH   9  11
ATOM     10  O   UNL     1      33.514 -22.849 -15.622  0.00  0.00    -0.245 OA
ATOM     11  C   UNL     1      34.458 -23.195 -16.317  0.00  0.00    +0.341 C 
BRANCH  11  12
ATOM     12  C   UNL     1      35.697 -23.800 -15.766  0.00  0.00    +0.072 C 
ATOM     13  C   UNL     1      36.913 -23.120 -15.812  0.00  0.00    -0.016 C 
ATOM     14  C   UNL     1      37.997 -24.983 -14.718  0.00  0.00    -0.022 C 
ATOM     15  C   UNL     1      38.063 -23.711 -15.288  0.00  0.00    -0.008 C 
ATOM     16  C   UNL     1      35.629 -25.072 -15.196  0.00  0.00    +0.006 C 
ATOM     17  C   UNL     1      36.779 -25.663 -14.673  0.00  0.00    -0.004 C 
ATOM     18  C   UNL     1      37.013 -21.758 -16.416  0.00  0.00    +0.031 C 
ATOM     19  C   UNL     1      39.225 -25.616 -14.159  0.00  0.00    +0.031 C 
ENDBRANCH  11  12
ENDBRANCH   9  11
ENDBRANCH   8   9
ENDBRANCH   5   8
ENDBRANCH   1   2
BRANCH   1  22
ATOM     20  O   UNL     1      35.174 -16.739 -20.615  0.00  0.00    -0.275 OA
ATOM     21  N   UNL     1      34.110 -16.474 -22.695  0.00  0.00    -0.284 N 
ATOM     22  C   UNL     1      34.852 -17.163 -21.722  0.00  0.00    +0.228 C 
ATOM     23  H   UNL     1      33.929 -16.967 -23.528  0.00  0.00    +0.155 HD
BRANCH  21  25
ATOM     24  N   UNL     1      31.487 -10.788 -21.255  0.00  0.00    -0.242 NA
ATOM     25  C   UNL     1      33.597 -15.177 -22.631  0.00  0.00    +0.050 C 
ATOM     26  C   UNL     1      33.040 -14.706 -21.441  0.00  0.00    +0.015 C 
ATOM     27  C   UNL     1      32.518 -13.405 -21.361  0.00  0.00    +0.004 C 
ATOM     28  C   UNL     1      33.640 -14.356 -23.755  0.00  0.00    +0.015 C 
ATOM     29  C   UNL     1      32.565 -12.576 -22.501  0.00  0.00    +0.019 C 
ATOM     30  C   UNL     1      33.128 -13.061 -23.694  0.00  0.00    +0.003 C 
ATOM     31  C   UNL     1      31.953 -12.904 -20.181  0.00  0.00    +0.021 C 
ATOM     32  C   UNL     1      32.037 -11.289 -22.384  0.00  0.00    +0.099 C 
ATOM     33  C   UNL     1      31.460 -11.608 -20.183  0.00  0.00    +0.099 C 
ENDBRANCH  21  25
ENDBRANCH   1  22
BRANCH   1  34
ATOM     34  C   UNL     1      34.692 -18.842 -23.603  0.00  0.00    -0.072 C 
BRANCH  34  35
ATOM     35  N   UNL     1      35.229 -20.076 -24.170  0.00  0.00    +0.381 N 
ATOM     36  H   UNL     1      35.326 -20.774 -23.433  0.00  0.00    -0.089 HD
ATOM     37  H   UNL     1      36.142 -19.890 -24.584  0.00  0.00    -0.089 HD
ATOM     38  H   UNL     1      34.594 -20.424 -24.888  0.00  0.00    -0.089 HD
ENDBRANCH  34  35
ENDBRANCH   1  34
TORSDOF 9
ENDMDL
MODEL 6
REMARK VINA RESULT:     -11.8      3.905      7.277
REMARK  Name = 66599893
REMARK  9 active torsions:
REMARK  status: ('A' for Active; 'I' for Inactive)
REMARK    1  A    between atoms: C_1  and  C_2
REMARK    2  A    between atoms: C_1  and  C_22
REMARK    3  A    between atoms: C_1  and  C_34
REMARK    4  A    between atoms: C_5  and  C_8
REMARK    5  A    between atoms: C_8  and  O_9
REMARK    6  A    between atoms: O_9  and  C_11
REMARK    7  A    between atoms: C_11  and  C_12
REMARK    8  A    between atoms: N_21  and  C_25
REMARK    9  A    between atoms: C_34  and  N_35
REMARK                            x       y       z     vdW  Elec       q    Type
REMARK                         _______ _______ _______ _____ _____    ______ ____
ROOT
ATOM      1  C   UNL     1      31.417 -11.801 -20.851  0.00  0.00    +0.077 C 
ENDROOT
BRANCH   1   2
ATOM      2  C   UNL     1      32.318 -12.960 -21.249  0.00  0.00    -0.016 C 
ATOM      3  C   UNL     1      32.683 -13.917 -20.302  0.00  0.00    -0.004 C 
ATOM      4  C   UNL     1      32.779 -13.066 -22.562  0.00  0.00    -0.004 C 
ATOM      5  C   UNL     1      33.971 -15.085 -21.979  0.00  0.00    +0.021 C 
ATOM      6  C   UNL     1      33.510 -14.979 -20.668  0.00  0.00    -0.001 C 
ATOM      7  C   UNL     1      33.606 -14.128 -22.926  0.00  0.00    -0.001 C 
BRANCH   5   8
ATOM      8  C   UNL     1      34.854 -16.222 -22.370  0.00  0.00    +0.235 C 
BRANCH   8   9
ATOM      9  O   UNL     1      34.596 -17.335 -21.523  0.00  0.00    -0.440 OA
BRANCH   9  11
ATOM     10  O   UNL     1      34.828 -18.776 -23.302  0.00  0.00    -0.245 OA
ATOM     11  C   UNL     1      34.641 -18.559 -22.115  0.00  0.00    +0.341 C 
BRANCH  11  12
ATOM     12  C   UNL     1      34.429 -19.635 -21.113  0.00  0.00    +0.072 C 
ATOM     13  C   UNL     1      35.503 -20.215 -20.441  0.00  0.00    -0.016 C 
ATOM     14  C   UNL     1      33.976 -21.655 -19.243  0.00  0.00    -0.022 C 
ATOM     15  C   UNL     1      35.277 -21.225 -19.505  0.00  0.00    -0.008 C 
ATOM     16  C   UNL     1      33.128 -20.064 -20.852  0.00  0.00    +0.006 C 
ATOM     17  C   UNL     1      32.901 -21.074 -19.917  0.00  0.00    -0.004 C 
ATOM     18  C   UNL     1      36.907 -19.774 -20.701  0.00  0.00    +0.031 C 
ATOM     19  C   UNL     1      33.732 -22.735 -18.244  0.00  0.00    +0.031 C 
ENDBRANCH  11  12
ENDBRANCH   9  11
ENDBRANCH   8   9
ENDBRANCH   5   8
ENDBRANCH   1   2
BRANCH   1  22
ATOM     20  O   UNL     1      30.478 -10.806 -22.844  0.00  0.00    -0.275 OA
ATOM     21  N   UNL     1      32.398  -9.829 -21.900  0.00  0.00    -0.284 N 
ATOM     22  C   UNL     1      31.353 -10.765 -21.983  0.00  0.00    +0.228 C 
ATOM     23  H   UNL     1      33.023  -9.948 -21.150  0.00  0.00    +0.155 HD
BRANCH  21  25
ATOM     24  N   UNL     1      32.493  -4.506 -25.497  0.00  0.00    -0.242 NA
ATOM     25  C   UNL     1      32.660  -8.751 -22.748  0.00  0.00    +0.050 C 
ATOM     26  C   UNL     1      31.695  -7.760 -22.933  0.00  0.00    +0.015 C 
ATOM     27  C   UNL     1      31.943  -6.670 -23.783  0.00  0.00    +0.004 C 
ATOM     28  C   UNL     1      33.884  -8.666 -23.405  0.00  0.00    +0.015 C 
ATOM     29  C   UNL     1      33.184  -6.588 -24.448  0.00  0.00    +0.019 C 
ATOM     30  C   UNL     1      34.149  -7.591 -24.253  0.00  0.00    +0.003 C 
ATOM     31  C   UNL     1      30.995  -5.661 -23.990  0.00  0.00    +0.021 C 
ATOM     32  C   UNL     1      33.396  -5.490 -25.284  0.00  0.00    +0.099 C 
ATOM     33  C   UNL     1      31.316  -4.617 -24.844  0.00  0.00    +0.099 C 
ENDBRANCH  21  25
ENDBRANCH   1  22
BRANCH   1  34
ATOM     34  C   UNL     1      31.852 -11.128 -19.534  0.00  0.00    -0.072 C 
BRANCH  34  35
ATOM     35  N   UNL     1      30.738 -10.456 -18.872  0.00  0.00    +0.381 N 
ATOM     36  H   UNL     1      31.008  -9.501 -18.636  0.00  0.00    -0.089 HD
ATOM     37  H   UNL     1      30.495 -10.960 -18.019  0.00  0.00    -0.089 HD
ATOM     38  H   UNL     1      29.932 -10.437 -19.497  0.00  0.00    -0.089 HD
ENDBRANCH  34  35
ENDBRANCH   1  34
TORSDOF 9
ENDMDL
MODEL 7
REMARK VINA RESULT:     -11.6      1.432      2.197
REMARK  Name = 66599893
REMARK  9 active torsions:
REMARK  status: ('A' for Active; 'I' for Inactive)
REMARK    1  A    between atoms: C_1  and  C_2
REMARK    2  A    between atoms: C_1  and  C_22
REMARK    3  A    between atoms: C_1  and  C_34
REMARK    4  A    between atoms: C_5  and  C_8
REMARK    5  A    between atoms: C_8  and  O_9
REMARK    6  A    between atoms: O_9  and  C_11
REMARK    7  A    between atoms: C_11  and  C_12
REMARK    8  A    between atoms: N_21  and  C_25
REMARK    9  A    between atoms: C_34  and  N_35
REMARK                            x       y       z     vdW  Elec       q    Type
REMARK                         _______ _______ _______ _____ _____    ______ ____
ROOT
ATOM      1  C   UNL     1      35.409 -17.617 -22.688  0.00  0.00    +0.077 C 
ENDROOT
BRANCH   1   2
ATOM      2  C   UNL     1      35.495 -18.743 -21.670  0.00  0.00    -0.016 C 
ATOM      3  C   UNL     1      36.728 -19.095 -21.121  0.00  0.00    -0.004 C 
ATOM      4  C   UNL     1      34.340 -19.424 -21.284  0.00  0.00    -0.004 C 
ATOM      5  C   UNL     1      35.653 -20.810 -19.803  0.00  0.00    +0.021 C 
ATOM      6  C   UNL     1      36.807 -20.129 -20.188  0.00  0.00    -0.001 C 
ATOM      7  C   UNL     1      34.420 -20.458 -20.351  0.00  0.00    -0.001 C 
BRANCH   5   8
ATOM      8  C   UNL     1      35.737 -21.915 -18.804  0.00  0.00    +0.235 C 
BRANCH   8   9
ATOM      9  O   UNL     1      34.548 -21.938 -18.024  0.00  0.00    -0.440 OA
BRANCH   9  11
ATOM     10  O   UNL     1      33.528 -23.951 -18.475  0.00  0.00    -0.245 OA
ATOM     11  C   UNL     1      34.067 -23.170 -17.706  0.00  0.00    +0.341 C 
BRANCH  11  12
ATOM     12  C   UNL     1      34.280 -23.462 -16.265  0.00  0.00    +0.072 C 
ATOM     13  C   UNL     1      33.209 -23.520 -15.375  0.00  0.00    -0.016 C 
ATOM     14  C   UNL     1      34.735 -24.012 -13.568  0.00  0.00    -0.022 C 
ATOM     15  C   UNL     1      33.435 -23.795 -14.027  0.00  0.00    -0.008 C 
ATOM     16  C   UNL     1      35.580 -23.679 -15.807  0.00  0.00    +0.006 C 
ATOM     17  C   UNL     1      35.808 -23.953 -14.459  0.00  0.00    -0.004 C 
ATOM     18  C   UNL     1      31.807 -23.293 -15.839  0.00  0.00    +0.031 C 
ATOM     19  C   UNL     1      34.980 -24.305 -12.127  0.00  0.00    +0.031 C 
ENDBRANCH  11  12
ENDBRANCH   9  11
ENDBRANCH   8   9
ENDBRANCH   5   8
ENDBRANCH   1   2
BRANCH   1  22
ATOM     20  O   UNL     1      35.030 -16.111 -20.835  0.00  0.00    -0.275 OA
ATOM     21  N   UNL     1      34.142 -15.547 -22.938  0.00  0.00    -0.284 N 
ATOM     22  C   UNL     1      34.854 -16.345 -22.028  0.00  0.00    +0.228 C 
ATOM     23  H   UNL     1      34.088 -15.889 -23.859  0.00  0.00    +0.155 HD
BRANCH  21  25
ATOM     24  N   UNL     1      31.878  -9.536 -22.765  0.00  0.00    -0.242 NA
ATOM     25  C   UNL     1      33.502 -14.328 -22.702  0.00  0.00    +0.050 C 
ATOM     26  C   UNL     1      33.812 -13.216 -23.486  0.00  0.00    +0.015 C 
ATOM     27  C   UNL     1      33.179 -11.983 -23.260  0.00  0.00    +0.004 C 
ATOM     28  C   UNL     1      32.558 -14.225 -21.684  0.00  0.00    +0.015 C 
ATOM     29  C   UNL     1      32.222 -11.883 -22.228  0.00  0.00    +0.019 C 
ATOM     30  C   UNL     1      31.918 -13.009 -21.445  0.00  0.00    +0.003 C 
ATOM     31  C   UNL     1      33.467 -10.850 -24.029  0.00  0.00    +0.021 C 
ATOM     32  C   UNL     1      31.613 -10.642 -22.033  0.00  0.00    +0.099 C 
ATOM     33  C   UNL     1      32.798  -9.669 -23.744  0.00  0.00    +0.099 C 
ENDBRANCH  21  25
ENDBRANCH   1  22
BRANCH   1  34
ATOM     34  C   UNL     1      34.566 -17.989 -23.924  0.00  0.00    -0.072 C 
BRANCH  34  35
ATOM     35  N   UNL     1      34.960 -19.279 -24.483  0.00  0.00    +0.381 N 
ATOM     36  H   UNL     1      34.190 -19.661 -25.032  0.00  0.00    -0.089 HD
ATOM     37  H   UNL     1      35.188 -19.922 -23.725  0.00  0.00    -0.089 HD
ATOM     38  H   UNL     1      35.777 -19.156 -25.081  0.00  0.00    -0.089 HD
ENDBRANCH  34  35
ENDBRANCH   1  34
TORSDOF 9
ENDMDL
MODEL 8
REMARK VINA RESULT:     -11.6      3.739     11.008
REMARK  Name = 66599893
REMARK  9 active torsions:
REMARK  status: ('A' for Active; 'I' for Inactive)
REMARK    1  A    between atoms: C_1  and  C_2
REMARK    2  A    between atoms: C_1  and  C_22
REMARK    3  A    between atoms: C_1  and  C_34
REMARK    4  A    between atoms: C_5  and  C_8
REMARK    5  A    between atoms: C_8  and  O_9
REMARK    6  A    between atoms: O_9  and  C_11
REMARK    7  A    between atoms: C_11  and  C_12
REMARK    8  A    between atoms: N_21  and  C_25
REMARK    9  A    between atoms: C_34  and  N_35
REMARK                            x       y       z     vdW  Elec       q    Type
REMARK                         _______ _______ _______ _____ _____    ______ ____
ROOT
ATOM      1  C   UNL     1      35.834 -22.040 -18.714  0.00  0.00    +0.077 C 
ENDROOT
BRANCH   1   2
ATOM      2  C   UNL     1      35.475 -20.962 -19.725  0.00  0.00    -0.016 C 
ATOM      3  C   UNL     1      36.475 -20.162 -20.278  0.00  0.00    -0.004 C 
ATOM      4  C   UNL     1      34.144 -20.774 -20.100  0.00  0.00    -0.004 C 
ATOM      5  C   UNL     1      34.815 -18.985 -21.579  0.00  0.00    +0.021 C 
ATOM      6  C   UNL     1      36.145 -19.173 -21.204  0.00  0.00    -0.001 C 
ATOM      7  C   UNL     1      33.815 -19.784 -21.027  0.00  0.00    -0.001 C 
BRANCH   5   8
ATOM      8  C   UNL     1      34.462 -17.928 -22.571  0.00  0.00    +0.235 C 
BRANCH   8   9
ATOM      9  O   UNL     1      34.175 -16.715 -21.887  0.00  0.00    -0.440 OA
BRANCH   9  11
ATOM     10  O   UNL     1      35.290 -15.423 -23.432  0.00  0.00    -0.245 OA
ATOM     11  C   UNL     1      34.434 -15.568 -22.572  0.00  0.00    +0.341 C 
BRANCH  11  12
ATOM     12  C   UNL     1      33.526 -14.477 -22.134  0.00  0.00    +0.072 C 
ATOM     13  C   UNL     1      33.032 -13.543 -23.043  0.00  0.00    -0.016 C 
ATOM     14  C   UNL     1      31.823 -12.447 -21.261  0.00  0.00    -0.022 C 
ATOM     15  C   UNL     1      32.181 -12.527 -22.607  0.00  0.00    -0.008 C 
ATOM     16  C   UNL     1      33.169 -14.398 -20.788  0.00  0.00    +0.006 C 
ATOM     17  C   UNL     1      32.318 -13.382 -20.351  0.00  0.00    -0.004 C 
ATOM     18  C   UNL     1      33.398 -13.605 -24.490  0.00  0.00    +0.031 C 
ATOM     19  C   UNL     1      30.915 -11.362 -20.792  0.00  0.00    +0.031 C 
ENDBRANCH  11  12
ENDBRANCH   9  11
ENDBRANCH   8   9
ENDBRANCH   5   8
ENDBRANCH   1   2
BRANCH   1  22
ATOM     20  O   UNL     1      34.000 -23.559 -19.130  0.00  0.00    -0.275 OA
ATOM     21  N   UNL     1      34.216 -22.622 -16.984  0.00  0.00    -0.284 N 
ATOM     22  C   UNL     1      34.582 -22.839 -18.322  0.00  0.00    +0.228 C 
ATOM     23  H   UNL     1      34.788 -22.003 -16.477  0.00  0.00    +0.155 HD
BRANCH  21  25
ATOM     24  N   UNL     1      28.597 -24.653 -14.619  0.00  0.00    -0.242 NA
ATOM     25  C   UNL     1      33.142 -23.173 -16.282  0.00  0.00    +0.050 C 
ATOM     26  C   UNL     1      31.838 -22.988 -16.746  0.00  0.00    +0.015 C 
ATOM     27  C   UNL     1      30.748 -23.534 -16.051  0.00  0.00    +0.004 C 
ATOM     28  C   UNL     1      33.373 -23.906 -15.122  0.00  0.00    +0.015 C 
ATOM     29  C   UNL     1      30.986 -24.277 -14.875  0.00  0.00    +0.019 C 
ATOM     30  C   UNL     1      32.303 -24.457 -14.418  0.00  0.00    +0.003 C 
ATOM     31  C   UNL     1      29.429 -23.366 -16.490  0.00  0.00    +0.021 C 
ATOM     32  C   UNL     1      29.878 -24.806 -14.211  0.00  0.00    +0.099 C 
ATOM     33  C   UNL     1      28.407 -23.938 -15.748  0.00  0.00    +0.099 C 
ENDBRANCH  21  25
ENDBRANCH   1  22
BRANCH   1  34
ATOM     34  C   UNL     1      36.524 -21.475 -17.455  0.00  0.00    -0.072 C 
BRANCH  34  35
ATOM     35  N   UNL     1      37.532 -22.392 -16.929  0.00  0.00    +0.381 N 
ATOM     36  H   UNL     1      38.198 -22.624 -17.666  0.00  0.00    -0.089 HD
ATOM     37  H   UNL     1      37.077 -23.244 -16.602  0.00  0.00    -0.089 HD
ATOM     38  H   UNL     1      38.022 -21.949 -16.153  0.00  0.00    -0.089 HD
ENDBRANCH  34  35
ENDBRANCH   1  34
TORSDOF 9
ENDMDL
MODEL 9
REMARK VINA RESULT:     -11.4      1.571      3.084
REMARK  Name = 66599893
REMARK  9 active torsions:
REMARK  status: ('A' for Active; 'I' for Inactive)
REMARK    1  A    between atoms: C_1  and  C_2
REMARK    2  A    between atoms: C_1  and  C_22
REMARK    3  A    between atoms: C_1  and  C_34
REMARK    4  A    between atoms: C_5  and  C_8
REMARK    5  A    between atoms: C_8  and  O_9
REMARK    6  A    between atoms: O_9  and  C_11
REMARK    7  A    between atoms: C_11  and  C_12
REMARK    8  A    between atoms: N_21  and  C_25
REMARK    9  A    between atoms: C_34  and  N_35
REMARK                            x       y       z     vdW  Elec       q    Type
REMARK                         _______ _______ _______ _____ _____    ______ ____
ROOT
ATOM      1  C   UNL     1      35.147 -18.282 -22.461  0.00  0.00    +0.077 C 
ENDROOT
BRANCH   1   2
ATOM      2  C   UNL     1      34.668 -19.327 -21.466  0.00  0.00    -0.016 C 
ATOM      3  C   UNL     1      33.304 -19.476 -21.213  0.00  0.00    -0.004 C 
ATOM      4  C   UNL     1      35.592 -20.137 -20.806  0.00  0.00    -0.004 C 
ATOM      5  C   UNL     1      33.789 -21.244 -19.640  0.00  0.00    +0.021 C 
ATOM      6  C   UNL     1      32.865 -20.434 -20.299  0.00  0.00    -0.001 C 
ATOM      7  C   UNL     1      35.153 -21.095 -19.892  0.00  0.00    -0.001 C 
BRANCH   5   8
ATOM      8  C   UNL     1      33.319 -22.270 -18.663  0.00  0.00    +0.235 C 
BRANCH   8   9
ATOM      9  O   UNL     1      34.429 -23.039 -18.216  0.00  0.00    -0.440 OA
BRANCH   9  11
ATOM     10  O   UNL     1      35.848 -22.384 -16.527  0.00  0.00    -0.245 OA
ATOM     11  C   UNL     1      34.793 -22.861 -16.917  0.00  0.00    +0.341 C 
BRANCH  11  12
ATOM     12  C   UNL     1      33.724 -23.333 -16.002  0.00  0.00    +0.072 C 
ATOM     13  C   UNL     1      34.022 -24.123 -14.892  0.00  0.00    -0.016 C 
ATOM     14  C   UNL     1      31.677 -24.196 -14.313  0.00  0.00    -0.022 C 
ATOM     15  C   UNL     1      32.999 -24.554 -14.047  0.00  0.00    -0.008 C 
ATOM     16  C   UNL     1      32.402 -22.975 -16.268  0.00  0.00    +0.006 C 
ATOM     17  C   UNL     1      31.379 -23.406 -15.425  0.00  0.00    -0.004 C 
ATOM     18  C   UNL     1      35.428 -24.521 -14.583  0.00  0.00    +0.031 C 
ATOM     19  C   UNL     1      30.582 -24.657 -13.413  0.00  0.00    +0.031 C 
ENDBRANCH  11  12
ENDBRANCH   9  11
ENDBRANCH   8   9
ENDBRANCH   5   8
ENDBRANCH   1   2
BRANCH   1  22
ATOM     20  O   UNL     1      35.095 -16.486 -20.844  0.00  0.00    -0.275 OA
ATOM     21  N   UNL     1      34.073 -16.143 -22.934  0.00  0.00    -0.284 N 
ATOM     22  C   UNL     1      34.785 -16.873 -21.968  0.00  0.00    +0.228 C 
ATOM     23  H   UNL     1      33.899 -16.610 -23.783  0.00  0.00    +0.155 HD
BRANCH  21  25
ATOM     24  N   UNL     1      31.430 -10.486 -21.420  0.00  0.00    -0.242 NA
ATOM     25  C   UNL     1      33.582 -14.839 -22.843  0.00  0.00    +0.050 C 
ATOM     26  C   UNL     1      32.916 -14.426 -21.688  0.00  0.00    +0.015 C 
ATOM     27  C   UNL     1      32.414 -13.119 -21.582  0.00  0.00    +0.004 C 
ATOM     28  C   UNL     1      33.757 -13.955 -23.903  0.00  0.00    +0.015 C 
ATOM     29  C   UNL     1      32.594 -12.225 -22.658  0.00  0.00    +0.019 C 
ATOM     30  C   UNL     1      33.267 -12.653 -23.816  0.00  0.00    +0.003 C 
ATOM     31  C   UNL     1      31.741 -12.674 -20.437  0.00  0.00    +0.021 C 
ATOM     32  C   UNL     1      32.083 -10.934 -22.516  0.00  0.00    +0.099 C 
ATOM     33  C   UNL     1      31.277 -11.368 -20.409  0.00  0.00    +0.099 C 
ENDBRANCH  21  25
ENDBRANCH   1  22
BRANCH   1  34
ATOM     34  C   UNL     1      34.594 -18.510 -23.883  0.00  0.00    -0.072 C 
BRANCH  34  35
ATOM     35  N   UNL     1      35.031 -19.788 -24.438  0.00  0.00    +0.381 N 
ATOM     36  H   UNL     1      34.369 -20.092 -25.152  0.00  0.00    -0.089 HD
ATOM     37  H   UNL     1      35.073 -20.485 -23.695  0.00  0.00    -0.089 HD
ATOM     38  H   UNL     1      35.956 -19.679 -24.855  0.00  0.00    -0.089 HD
ENDBRANCH  34  35
ENDBRANCH   1  34
TORSDOF 9
ENDMDL
