MODEL 1
REMARK VINA RESULT:      -9.1      0.000      0.000
REMARK  Name = 10096344
REMARK  5 active torsions:
REMARK  status: ('A' for Active; 'I' for Inactive)
REMARK    1  A    between atoms: N_4  and  C_23
REMARK    2  A    between atoms: N_7  and  C_27
REMARK    3  A    between atoms: C_8  and  N_19
REMARK    4  A    between atoms: C_23  and  C_24
REMARK    5  A    between atoms: C_27  and  C_30
REMARK                            x       y       z     vdW  Elec       q    Type
REMARK                         _______ _______ _______ _____ _____    ______ ____
ROOT
ATOM      1  O   UNL     1      37.865 -20.291 -18.121  0.00  0.00    -0.272 OA
ATOM      2  O   UNL     1      34.642 -20.606 -21.516  0.00  0.00    -0.251 OA
ATOM      3  N   UNL     1      34.969 -23.739 -15.219  0.00  0.00    -0.274 N 
ATOM      4  N   UNL     1      36.147 -22.224 -16.614  0.00  0.00    -0.246 N 
ATOM      5  N   UNL     1      34.241 -23.046 -17.428  0.00  0.00    -0.360 NA
ATOM      6  N   UNL     1      34.317 -21.851 -19.578  0.00  0.00    -0.218 N 
ATOM      7  N   UNL     1      36.264 -20.433 -19.835  0.00  0.00    -0.196 N 
ATOM      8  C   UNL     1      36.163 -25.074 -13.532  0.00  0.00    -0.045 C 
ATOM      9  C   UNL     1      35.715 -24.985 -14.998  0.00  0.00    +0.073 C 
ATOM     10  C   UNL     1      34.980 -24.898 -12.576  0.00  0.00    -0.018 C 
ATOM     11  C   UNL     1      34.250 -23.589 -12.875  0.00  0.00    +0.019 C 
ATOM     12  C   UNL     1      33.815 -23.524 -14.335  0.00  0.00    +0.094 C 
ATOM     13  C   UNL     1      35.069 -23.046 -16.403  0.00  0.00    +0.244 C 
ATOM     14  C   UNL     1      35.989 -21.670 -17.852  0.00  0.00    +0.222 C 
ATOM     15  C   UNL     1      34.816 -22.189 -18.327  0.00  0.00    +0.197 C 
ATOM     16  C   UNL     1      36.814 -20.747 -18.563  0.00  0.00    +0.260 C 
ATOM     17  C   UNL     1      35.037 -20.943 -20.394  0.00  0.00    +0.319 C 
ATOM     18  C   UNL     1      33.063 -22.432 -20.040  0.00  0.00    +0.124 C 
ENDROOT
BRANCH   8  19
ATOM     19  N   UNL     1      36.811 -26.361 -13.287  0.00  0.00    +0.383 N 
ATOM     20  H   UNL     1      37.811 -26.216 -13.138  0.00  0.00    -0.089 HD
ATOM     21  H   UNL     1      36.672 -26.971 -14.094  0.00  0.00    -0.089 HD
ATOM     22  H   UNL     1      36.404 -26.796 -12.459  0.00  0.00    -0.089 HD
ENDBRANCH   8  19
BRANCH   4  23
ATOM     23  C   UNL     1      37.243 -21.987 -15.701  0.00  0.00    +0.172 C 
BRANCH  23  24
ATOM     24  C   UNL     1      38.163 -23.126 -15.643  0.00  0.00    -0.069 C 
ATOM     25  C   UNL     1      38.918 -24.059 -15.595  0.00  0.00    -0.088 C 
ATOM     26  C   UNL     1      39.836 -25.195 -15.536  0.00  0.00    +0.090 C 
ENDBRANCH  23  24
ENDBRANCH   4  23
BRANCH   7  27
ATOM     27  C   UNL     1      37.018 -19.495 -20.660  0.00  0.00    +0.227 C 
BRANCH  27  30
ATOM     28  N   UNL     1      35.623 -17.535 -20.462  0.00  0.00    -0.346 NA
ATOM     29  N   UNL     1      35.941 -18.577 -22.612  0.00  0.00    -0.350 NA
ATOM     30  C   UNL     1      36.131 -18.463 -21.291  0.00  0.00    +0.134 C 
ATOM     31  C   UNL     1      34.827 -16.606 -21.021  0.00  0.00    +0.131 C 
ATOM     32  C   UNL     1      35.139 -17.631 -23.138  0.00  0.00    +0.110 C 
ATOM     33  C   UNL     1      34.547 -16.614 -22.397  0.00  0.00    +0.124 C 
ATOM     34  C   UNL     1      34.252 -15.603 -20.245  0.00  0.00    +0.029 C 
ATOM     35  C   UNL     1      33.713 -15.638 -22.970  0.00  0.00    -0.013 C 
ATOM     36  C   UNL     1      34.921 -17.752 -24.613  0.00  0.00    +0.063 C 
ATOM     37  C   UNL     1      33.422 -14.629 -20.808  0.00  0.00    +0.002 C 
ATOM     38  C   UNL     1      33.152 -14.646 -22.172  0.00  0.00    -0.004 C 
ENDBRANCH  27  30
ENDBRANCH   7  27
TORSDOF 5
ENDMDL
MODEL 2
REMARK VINA RESULT:      -8.9      0.363      1.698
REMARK  Name = 10096344
REMARK  5 active torsions:
REMARK  status: ('A' for Active; 'I' for Inactive)
REMARK    1  A    between atoms: N_4  and  C_23
REMARK    2  A    between atoms: N_7  and  C_27
REMARK    3  A    between atoms: C_8  and  N_19
REMARK    4  A    between atoms: C_23  and  C_24
REMARK    5  A    between atoms: C_27  and  C_30
REMARK                            x       y       z     vdW  Elec       q    Type
REMARK                         _______ _______ _______ _____ _____    ______ ____
ROOT
ATOM      1  O   UNL     1      37.865 -20.279 -18.152  0.00  0.00    -0.272 OA
ATOM      2  O   UNL     1      34.672 -20.588 -21.575  0.00  0.00    -0.251 OA
ATOM      3  N   UNL     1      34.921 -23.695 -15.262  0.00  0.00    -0.274 N 
ATOM      4  N   UNL     1      36.122 -22.194 -16.652  0.00  0.00    -0.246 N 
ATOM      5  N   UNL     1      34.218 -23.007 -17.480  0.00  0.00    -0.360 NA
ATOM      6  N   UNL     1      34.322 -21.822 -19.635  0.00  0.00    -0.218 N 
ATOM      7  N   UNL     1      36.279 -20.418 -19.880  0.00  0.00    -0.196 N 
ATOM      8  C   UNL     1      36.091 -25.031 -13.558  0.00  0.00    -0.045 C 
ATOM      9  C   UNL     1      35.657 -24.945 -15.028  0.00  0.00    +0.073 C 
ATOM     10  C   UNL     1      34.900 -24.843 -12.614  0.00  0.00    -0.018 C 
ATOM     11  C   UNL     1      34.181 -23.531 -12.925  0.00  0.00    +0.019 C 
ATOM     12  C   UNL     1      33.761 -23.470 -14.390  0.00  0.00    +0.094 C 
ATOM     13  C   UNL     1      35.037 -23.008 -16.448  0.00  0.00    +0.244 C 
ATOM     14  C   UNL     1      35.979 -21.644 -17.894  0.00  0.00    +0.222 C 
ATOM     15  C   UNL     1      34.806 -22.158 -18.378  0.00  0.00    +0.197 C 
ATOM     16  C   UNL     1      36.816 -20.730 -18.602  0.00  0.00    +0.260 C 
ATOM     17  C   UNL     1      35.054 -20.923 -20.448  0.00  0.00    +0.319 C 
ATOM     18  C   UNL     1      33.068 -22.397 -20.106  0.00  0.00    +0.124 C 
ENDROOT
BRANCH   8  19
ATOM     19  N   UNL     1      36.728 -26.321 -13.302  0.00  0.00    +0.383 N 
ATOM     20  H   UNL     1      36.981 -26.386 -12.315  0.00  0.00    -0.089 HD
ATOM     21  H   UNL     1      37.569 -26.404 -13.874  0.00  0.00    -0.089 HD
ATOM     22  H   UNL     1      36.081 -27.073 -13.537  0.00  0.00    -0.089 HD
ENDBRANCH   8  19
BRANCH   4  23
ATOM     23  C   UNL     1      37.210 -21.960 -15.730  0.00  0.00    +0.172 C 
BRANCH  23  24
ATOM     24  C   UNL     1      38.121 -23.105 -15.656  0.00  0.00    -0.069 C 
ATOM     25  C   UNL     1      38.868 -24.044 -15.595  0.00  0.00    -0.088 C 
ATOM     26  C   UNL     1      39.776 -25.188 -15.520  0.00  0.00    +0.090 C 
ENDBRANCH  23  24
ENDBRANCH   4  23
BRANCH   7  27
ATOM     27  C   UNL     1      37.048 -19.488 -20.702  0.00  0.00    +0.227 C 
BRANCH  27  30
ATOM     28  N   UNL     1      36.036 -18.488 -22.652  0.00  0.00    -0.346 NA
ATOM     29  N   UNL     1      35.636 -17.547 -20.469  0.00  0.00    -0.350 NA
ATOM     30  C   UNL     1      36.177 -18.431 -21.317  0.00  0.00    +0.134 C 
ATOM     31  C   UNL     1      35.258 -17.543 -23.210  0.00  0.00    +0.131 C 
ATOM     32  C   UNL     1      34.863 -16.616 -21.061  0.00  0.00    +0.110 C 
ATOM     33  C   UNL     1      34.631 -16.557 -22.432  0.00  0.00    +0.124 C 
ATOM     34  C   UNL     1      35.049 -17.515 -24.587  0.00  0.00    +0.029 C 
ATOM     35  C   UNL     1      33.819 -15.574 -23.026  0.00  0.00    -0.013 C 
ATOM     36  C   UNL     1      34.254 -15.625 -20.122  0.00  0.00    +0.063 C 
ATOM     37  C   UNL     1      34.244 -16.542 -25.185  0.00  0.00    +0.002 C 
ATOM     38  C   UNL     1      33.628 -15.571 -24.404  0.00  0.00    -0.004 C 
ENDBRANCH  27  30
ENDBRANCH   7  27
TORSDOF 5
ENDMDL
MODEL 3
REMARK VINA RESULT:      -8.7      7.470     12.946
REMARK  Name = 10096344
REMARK  5 active torsions:
REMARK  status: ('A' for Active; 'I' for Inactive)
REMARK    1  A    between atoms: N_4  and  C_23
REMARK    2  A    between atoms: N_7  and  C_27
REMARK    3  A    between atoms: C_8  and  N_19
REMARK    4  A    between atoms: C_23  and  C_24
REMARK    5  A    between atoms: C_27  and  C_30
REMARK                            x       y       z     vdW  Elec       q    Type
REMARK                         _______ _______ _______ _____ _____    ______ ____
ROOT
ATOM      1  O   UNL     1      31.446 -13.026 -24.040  0.00  0.00    -0.272 OA
ATOM      2  O   UNL     1      35.053 -13.040 -27.040  0.00  0.00    -0.251 OA
ATOM      3  N   UNL     1      32.783  -8.030 -22.644  0.00  0.00    -0.274 N 
ATOM      4  N   UNL     1      32.307 -10.241 -23.360  0.00  0.00    -0.246 N 
ATOM      5  N   UNL     1      34.058  -9.244 -24.314  0.00  0.00    -0.360 NA
ATOM      6  N   UNL     1      34.687 -11.122 -25.776  0.00  0.00    -0.218 N 
ATOM      7  N   UNL     1      33.247 -13.056 -25.549  0.00  0.00    -0.196 N 
ATOM      8  C   UNL     1      30.999  -6.594 -21.745  0.00  0.00    -0.045 C 
ATOM      9  C   UNL     1      31.718  -7.087 -23.009  0.00  0.00    +0.073 C 
ATOM     10  C   UNL     1      31.990  -6.025 -20.727  0.00  0.00    -0.018 C 
ATOM     11  C   UNL     1      33.070  -7.056 -20.407  0.00  0.00    +0.019 C 
ATOM     12  C   UNL     1      33.770  -7.530 -21.678  0.00  0.00    +0.094 C 
ATOM     13  C   UNL     1      33.083  -9.113 -23.439  0.00  0.00    +0.244 C 
ATOM     14  C   UNL     1      32.827 -11.143 -24.243  0.00  0.00    +0.222 C 
ATOM     15  C   UNL     1      33.897 -10.508 -24.813  0.00  0.00    +0.197 C 
ATOM     16  C   UNL     1      32.410 -12.471 -24.561  0.00  0.00    +0.260 C 
ATOM     17  C   UNL     1      34.385 -12.444 -26.187  0.00  0.00    +0.319 C 
ATOM     18  C   UNL     1      35.816 -10.403 -26.353  0.00  0.00    +0.124 C 
ENDROOT
BRANCH   8  19
ATOM     19  N   UNL     1      30.011  -5.576 -22.099  0.00  0.00    +0.383 N 
ATOM     20  H   UNL     1      30.398  -4.649 -21.919  0.00  0.00    -0.089 HD
ATOM     21  H   UNL     1      29.170  -5.709 -21.537  0.00  0.00    -0.089 HD
ATOM     22  H   UNL     1      29.776  -5.659 -23.088  0.00  0.00    -0.089 HD
ENDBRANCH   8  19
BRANCH   4  23
ATOM     23  C   UNL     1      31.158 -10.441 -22.505  0.00  0.00    +0.172 C 
BRANCH  23  24
ATOM     24  C   UNL     1      31.523 -10.430 -21.087  0.00  0.00    -0.069 C 
ATOM     25  C   UNL     1      31.822 -10.421 -19.923  0.00  0.00    -0.088 C 
ATOM     26  C   UNL     1      32.185 -10.409 -18.507  0.00  0.00    +0.090 C 
ENDBRANCH  23  24
ENDBRANCH   4  23
BRANCH   7  27
ATOM     27  C   UNL     1      32.921 -14.418 -25.959  0.00  0.00    +0.227 C 
BRANCH  27  30
ATOM     28  N   UNL     1      33.709 -15.051 -23.767  0.00  0.00    -0.346 NA
ATOM     29  N   UNL     1      33.811 -16.628 -25.587  0.00  0.00    -0.350 NA
ATOM     30  C   UNL     1      33.524 -15.440 -25.039  0.00  0.00    +0.134 C 
ATOM     31  C   UNL     1      34.248 -15.962 -22.937  0.00  0.00    +0.131 C 
ATOM     32  C   UNL     1      34.349 -17.516 -24.728  0.00  0.00    +0.110 C 
ATOM     33  C   UNL     1      34.596 -17.247 -23.385  0.00  0.00    +0.124 C 
ATOM     34  C   UNL     1      34.480 -15.656 -21.598  0.00  0.00    +0.029 C 
ATOM     35  C   UNL     1      35.159 -18.191 -22.509  0.00  0.00    -0.013 C 
ATOM     36  C   UNL     1      34.674 -18.845 -25.331  0.00  0.00    +0.063 C 
ATOM     37  C   UNL     1      35.040 -16.589 -20.721  0.00  0.00    +0.002 C 
ATOM     38  C   UNL     1      35.380 -17.858 -21.177  0.00  0.00    -0.004 C 
ENDBRANCH  27  30
ENDBRANCH   7  27
TORSDOF 5
ENDMDL
MODEL 4
REMARK VINA RESULT:      -8.3      1.622      3.288
REMARK  Name = 10096344
REMARK  5 active torsions:
REMARK  status: ('A' for Active; 'I' for Inactive)
REMARK    1  A    between atoms: N_4  and  C_23
REMARK    2  A    between atoms: N_7  and  C_27
REMARK    3  A    between atoms: C_8  and  N_19
REMARK    4  A    between atoms: C_23  and  C_24
REMARK    5  A    between atoms: C_27  and  C_30
REMARK                            x       y       z     vdW  Elec       q    Type
REMARK                         _______ _______ _______ _____ _____    ______ ____
ROOT
ATOM      1  O   UNL     1      32.929 -22.779 -18.671  0.00  0.00    -0.272 OA
ATOM      2  O   UNL     1      35.937 -19.680 -20.505  0.00  0.00    -0.251 OA
ATOM      3  N   UNL     1      36.554 -23.875 -14.883  0.00  0.00    -0.274 N 
ATOM      4  N   UNL     1      35.046 -23.289 -16.619  0.00  0.00    -0.246 N 
ATOM      5  N   UNL     1      37.011 -22.234 -16.612  0.00  0.00    -0.360 NA
ATOM      6  N   UNL     1      36.593 -20.854 -18.606  0.00  0.00    -0.218 N 
ATOM      7  N   UNL     1      34.418 -21.222 -19.607  0.00  0.00    -0.196 N 
ATOM      8  C   UNL     1      35.718 -24.750 -12.741  0.00  0.00    -0.045 C 
ATOM      9  C   UNL     1      36.050 -23.494 -13.558  0.00  0.00    +0.073 C 
ATOM     10  C   UNL     1      36.910 -25.709 -12.684  0.00  0.00    -0.018 C 
ATOM     11  C   UNL     1      37.382 -26.050 -14.096  0.00  0.00    +0.019 C 
ATOM     12  C   UNL     1      37.706 -24.786 -14.886  0.00  0.00    +0.094 C 
ATOM     13  C   UNL     1      36.261 -23.130 -16.002  0.00  0.00    +0.244 C 
ATOM     14  C   UNL     1      35.027 -22.439 -17.687  0.00  0.00    +0.222 C 
ATOM     15  C   UNL     1      36.241 -21.806 -17.660  0.00  0.00    +0.197 C 
ATOM     16  C   UNL     1      34.012 -22.202 -18.662  0.00  0.00    +0.260 C 
ATOM     17  C   UNL     1      35.678 -20.520 -19.635  0.00  0.00    +0.319 C 
ATOM     18  C   UNL     1      37.898 -20.208 -18.534  0.00  0.00    +0.124 C 
ENDROOT
BRANCH   8  19
ATOM     19  N   UNL     1      35.318 -24.373 -11.387  0.00  0.00    +0.383 N 
ATOM     20  H   UNL     1      36.028 -24.686 -10.723  0.00  0.00    -0.089 HD
ATOM     21  H   UNL     1      34.425 -24.811 -11.161  0.00  0.00    -0.089 HD
ATOM     22  H   UNL     1      35.224 -23.359 -11.329  0.00  0.00    -0.089 HD
ENDBRANCH   8  19
BRANCH   4  23
ATOM     23  C   UNL     1      33.985 -24.186 -16.217  0.00  0.00    +0.172 C 
BRANCH  23  24
ATOM     24  C   UNL     1      32.955 -23.499 -15.434  0.00  0.00    -0.069 C 
ATOM     25  C   UNL     1      32.110 -22.936 -14.793  0.00  0.00    -0.088 C 
ATOM     26  C   UNL     1      31.080 -22.252 -14.012  0.00  0.00    +0.090 C 
ENDBRANCH  23  24
ENDBRANCH   4  23
BRANCH   7  27
ATOM     27  C   UNL     1      33.463 -20.893 -20.659  0.00  0.00    +0.227 C 
BRANCH  27  30
ATOM     28  N   UNL     1      33.535 -18.480 -20.627  0.00  0.00    -0.346 NA
ATOM     29  N   UNL     1      34.313 -19.683 -22.564  0.00  0.00    -0.350 NA
ATOM     30  C   UNL     1      33.795 -19.593 -21.333  0.00  0.00    +0.134 C 
ATOM     31  C   UNL     1      33.830 -17.311 -21.224  0.00  0.00    +0.131 C 
ATOM     32  C   UNL     1      34.597 -18.496 -23.133  0.00  0.00    +0.110 C 
ATOM     33  C   UNL     1      34.379 -17.267 -22.516  0.00  0.00    +0.124 C 
ATOM     34  C   UNL     1      33.597 -16.102 -20.575  0.00  0.00    +0.029 C 
ATOM     35  C   UNL     1      34.683 -16.040 -23.131  0.00  0.00    -0.013 C 
ATOM     36  C   UNL     1      35.177 -18.587 -24.508  0.00  0.00    +0.063 C 
ATOM     37  C   UNL     1      33.897 -14.878 -21.179  0.00  0.00    +0.002 C 
ATOM     38  C   UNL     1      34.441 -14.847 -22.459  0.00  0.00    -0.004 C 
ENDBRANCH  27  30
ENDBRANCH   7  27
TORSDOF 5
ENDMDL
MODEL 5
REMARK VINA RESULT:      -7.4      5.576      9.295
REMARK  Name = 10096344
REMARK  5 active torsions:
REMARK  status: ('A' for Active; 'I' for Inactive)
REMARK    1  A    between atoms: N_4  and  C_23
REMARK    2  A    between atoms: N_7  and  C_27
REMARK    3  A    between atoms: C_8  and  N_19
REMARK    4  A    between atoms: C_23  and  C_24
REMARK    5  A    between atoms: C_27  and  C_30
REMARK                            x       y       z     vdW  Elec       q    Type
REMARK                         _______ _______ _______ _____ _____    ______ ____
ROOT
ATOM      1  O   UNL     1      34.386 -12.595 -22.992  0.00  0.00    -0.272 OA
ATOM      2  O   UNL     1      32.618 -13.052 -27.314  0.00  0.00    -0.251 OA
ATOM      3  N   UNL     1      34.707 -17.934 -22.690  0.00  0.00    -0.274 N 
ATOM      4  N   UNL     1      34.509 -15.585 -22.964  0.00  0.00    -0.246 N 
ATOM      5  N   UNL     1      33.847 -16.845 -24.681  0.00  0.00    -0.360 NA
ATOM      6  N   UNL     1      33.172 -14.986 -26.147  0.00  0.00    -0.218 N 
ATOM      7  N   UNL     1      33.499 -12.799 -25.158  0.00  0.00    -0.196 N 
ATOM      8  C   UNL     1      36.386 -18.878 -21.159  0.00  0.00    -0.045 C 
ATOM      9  C   UNL     1      36.107 -18.363 -22.578  0.00  0.00    +0.073 C 
ATOM     10  C   UNL     1      35.384 -19.962 -20.753  0.00  0.00    -0.018 C 
ATOM     11  C   UNL     1      33.955 -19.446 -20.906  0.00  0.00    +0.019 C 
ATOM     12  C   UNL     1      33.703 -18.941 -22.324  0.00  0.00    +0.094 C 
ATOM     13  C   UNL     1      34.350 -16.853 -23.463  0.00  0.00    +0.244 C 
ATOM     14  C   UNL     1      34.078 -14.721 -23.929  0.00  0.00    +0.222 C 
ATOM     15  C   UNL     1      33.679 -15.517 -24.968  0.00  0.00    +0.197 C 
ATOM     16  C   UNL     1      34.022 -13.294 -23.934  0.00  0.00    +0.260 C 
ATOM     17  C   UNL     1      33.062 -13.580 -26.288  0.00  0.00    +0.319 C 
ATOM     18  C   UNL     1      32.761 -15.876 -27.225  0.00  0.00    +0.124 C 
ENDROOT
BRANCH   8  19
ATOM     19  N   UNL     1      37.747 -19.404 -21.078  0.00  0.00    +0.383 N 
ATOM     20  H   UNL     1      38.093 -19.307 -20.123  0.00  0.00    -0.089 HD
ATOM     21  H   UNL     1      38.351 -18.882 -21.714  0.00  0.00    -0.089 HD
ATOM     22  H   UNL     1      37.747 -20.389 -21.340  0.00  0.00    -0.089 HD
ENDBRANCH   8  19
BRANCH   4  23
ATOM     23  C   UNL     1      35.031 -15.229 -21.664  0.00  0.00    +0.172 C 
BRANCH  23  24
ATOM     24  C   UNL     1      33.963 -15.016 -20.684  0.00  0.00    -0.069 C 
ATOM     25  C   UNL     1      33.088 -14.841 -19.881  0.00  0.00    -0.088 C 
ATOM     26  C   UNL     1      32.021 -14.630 -18.903  0.00  0.00    +0.090 C 
ENDBRANCH  23  24
ENDBRANCH   4  23
BRANCH   7  27
ATOM     27  C   UNL     1      33.391 -11.349 -25.284  0.00  0.00    +0.227 C 
BRANCH  27  30
ATOM     28  N   UNL     1      32.277 -11.434 -23.144  0.00  0.00    -0.346 NA
ATOM     29  N   UNL     1      33.488  -9.455 -23.796  0.00  0.00    -0.350 NA
ATOM     30  C   UNL     1      33.027 -10.698 -23.982  0.00  0.00    +0.134 C 
ATOM     31  C   UNL     1      31.947 -10.857 -21.975  0.00  0.00    +0.131 C 
ATOM     32  C   UNL     1      33.139  -8.907 -22.616  0.00  0.00    +0.110 C 
ATOM     33  C   UNL     1      32.368  -9.556 -21.656  0.00  0.00    +0.124 C 
ATOM     34  C   UNL     1      31.172 -11.537 -21.039  0.00  0.00    +0.029 C 
ATOM     35  C   UNL     1      32.017  -8.962 -20.431  0.00  0.00    -0.013 C 
ATOM     36  C   UNL     1      33.650  -7.519 -22.399  0.00  0.00    +0.063 C 
ATOM     37  C   UNL     1      30.820 -10.954 -19.819  0.00  0.00    +0.002 C 
ATOM     38  C   UNL     1      31.242  -9.665 -19.514  0.00  0.00    -0.004 C 
ENDBRANCH  27  30
ENDBRANCH   7  27
TORSDOF 5
ENDMDL
MODEL 6
REMARK VINA RESULT:      -7.4      4.774     11.993
REMARK  Name = 10096344
REMARK  5 active torsions:
REMARK  status: ('A' for Active; 'I' for Inactive)
REMARK    1  A    between atoms: N_4  and  C_23
REMARK    2  A    between atoms: N_7  and  C_27
REMARK    3  A    between atoms: C_8  and  N_19
REMARK    4  A    between atoms: C_23  and  C_24
REMARK    5  A    between atoms: C_27  and  C_30
REMARK                            x       y       z     vdW  Elec       q    Type
REMARK                         _______ _______ _______ _____ _____    ______ ____
ROOT
ATOM      1  O   UNL     1      33.643 -14.732 -25.403  0.00  0.00    -0.272 OA
ATOM      2  O   UNL     1      33.538 -16.759 -21.173  0.00  0.00    -0.251 OA
ATOM      3  N   UNL     1      32.416 -10.070 -23.066  0.00  0.00    -0.274 N 
ATOM      4  N   UNL     1      32.957 -12.199 -23.964  0.00  0.00    -0.246 N 
ATOM      5  N   UNL     1      32.668 -12.097 -21.755  0.00  0.00    -0.360 NA
ATOM      6  N   UNL     1      33.095 -14.479 -21.307  0.00  0.00    -0.218 N 
ATOM      7  N   UNL     1      33.596 -15.769 -23.295  0.00  0.00    -0.196 N 
ATOM      8  C   UNL     1      33.102  -8.012 -24.227  0.00  0.00    -0.045 C 
ATOM      9  C   UNL     1      33.511  -9.105 -23.229  0.00  0.00    +0.073 C 
ATOM     10  C   UNL     1      31.774  -7.362 -23.827  0.00  0.00    -0.018 C 
ATOM     11  C   UNL     1      30.691  -8.428 -23.667  0.00  0.00    +0.019 C 
ATOM     12  C   UNL     1      31.121  -9.501 -22.672  0.00  0.00    +0.094 C 
ATOM     13  C   UNL     1      32.666 -11.410 -22.880  0.00  0.00    +0.244 C 
ATOM     14  C   UNL     1      33.156 -13.465 -23.493  0.00  0.00    +0.222 C 
ATOM     15  C   UNL     1      32.973 -13.375 -22.140  0.00  0.00    +0.197 C 
ATOM     16  C   UNL     1      33.482 -14.669 -24.187  0.00  0.00    +0.260 C 
ATOM     17  C   UNL     1      33.417 -15.741 -21.865  0.00  0.00    +0.319 C 
ATOM     18  C   UNL     1      32.891 -14.331 -19.872  0.00  0.00    +0.124 C 
ENDROOT
BRANCH   8  19
ATOM     19  N   UNL     1      34.148  -6.994 -24.308  0.00  0.00    +0.383 N 
ATOM     20  H   UNL     1      34.006  -6.300 -23.573  0.00  0.00    -0.089 HD
ATOM     21  H   UNL     1      34.108  -6.537 -25.219  0.00  0.00    -0.089 HD
ATOM     22  H   UNL     1      35.060  -7.434 -24.187  0.00  0.00    -0.089 HD
ENDBRANCH   8  19
BRANCH   4  23
ATOM     23  C   UNL     1      33.038 -11.774 -25.343  0.00  0.00    +0.172 C 
BRANCH  23  24
ATOM     24  C   UNL     1      34.343 -11.188 -25.660  0.00  0.00    -0.069 C 
ATOM     25  C   UNL     1      35.413 -10.709 -25.920  0.00  0.00    -0.088 C 
ATOM     26  C   UNL     1      36.715 -10.124 -26.238  0.00  0.00    +0.090 C 
ENDBRANCH  23  24
ENDBRANCH   4  23
BRANCH   7  27
ATOM     27  C   UNL     1      33.927 -17.060 -23.888  0.00  0.00    +0.227 C 
BRANCH  27  30
ATOM     28  N   UNL     1      33.705 -18.782 -22.211  0.00  0.00    -0.346 NA
ATOM     29  N   UNL     1      35.887 -17.936 -22.789  0.00  0.00    -0.350 NA
ATOM     30  C   UNL     1      34.553 -17.992 -22.892  0.00  0.00    +0.134 C 
ATOM     31  C   UNL     1      34.259 -19.620 -21.316  0.00  0.00    +0.131 C 
ATOM     32  C   UNL     1      36.407 -18.787 -21.885  0.00  0.00    +0.110 C 
ATOM     33  C   UNL     1      35.647 -19.660 -21.112  0.00  0.00    +0.124 C 
ATOM     34  C   UNL     1      33.465 -20.478 -20.560  0.00  0.00    +0.029 C 
ATOM     35  C   UNL     1      36.215 -20.540 -20.173  0.00  0.00    -0.013 C 
ATOM     36  C   UNL     1      37.897 -18.731 -21.763  0.00  0.00    +0.063 C 
ATOM     37  C   UNL     1      34.022 -21.356 -19.625  0.00  0.00    +0.002 C 
ATOM     38  C   UNL     1      35.398 -21.387 -19.432  0.00  0.00    -0.004 C 
ENDBRANCH  27  30
ENDBRANCH   7  27
TORSDOF 5
ENDMDL
MODEL 7
REMARK VINA RESULT:      -7.2     12.970     17.253
REMARK  Name = 10096344
REMARK  5 active torsions:
REMARK  status: ('A' for Active; 'I' for Inactive)
REMARK    1  A    between atoms: N_4  and  C_23
REMARK    2  A    between atoms: N_7  and  C_27
REMARK    3  A    between atoms: C_8  and  N_19
REMARK    4  A    between atoms: C_23  and  C_24
REMARK    5  A    between atoms: C_27  and  C_30
REMARK                            x       y       z     vdW  Elec       q    Type
REMARK                         _______ _______ _______ _____ _____    ______ ____
ROOT
ATOM      1  O   UNL     1      35.465  -6.182 -26.650  0.00  0.00    -0.272 OA
ATOM      2  O   UNL     1      32.441  -3.030 -28.362  0.00  0.00    -0.251 OA
ATOM      3  N   UNL     1      32.243  -6.794 -22.415  0.00  0.00    -0.274 N 
ATOM      4  N   UNL     1      33.571  -6.422 -24.346  0.00  0.00    -0.246 N 
ATOM      5  N   UNL     1      31.680  -5.249 -24.200  0.00  0.00    -0.360 NA
ATOM      6  N   UNL     1      31.942  -4.032 -26.323  0.00  0.00    -0.218 N 
ATOM      7  N   UNL     1      33.966  -4.600 -27.528  0.00  0.00    -0.196 N 
ATOM      8  C   UNL     1      32.355  -8.938 -21.213  0.00  0.00    -0.045 C 
ATOM      9  C   UNL     1      31.706  -8.160 -22.366  0.00  0.00    +0.073 C 
ATOM     10  C   UNL     1      32.220  -8.185 -19.887  0.00  0.00    -0.018 C 
ATOM     11  C   UNL     1      32.790  -6.774 -20.020  0.00  0.00    +0.019 C 
ATOM     12  C   UNL     1      32.129  -6.022 -21.171  0.00  0.00    +0.094 C 
ATOM     13  C   UNL     1      32.445  -6.147 -23.613  0.00  0.00    +0.244 C 
ATOM     14  C   UNL     1      33.514  -5.648 -25.469  0.00  0.00    +0.222 C 
ATOM     15  C   UNL     1      32.348  -4.940 -25.354  0.00  0.00    +0.197 C 
ATOM     16  C   UNL     1      34.423  -5.539 -26.564  0.00  0.00    +0.260 C 
ATOM     17  C   UNL     1      32.752  -3.825 -27.468  0.00  0.00    +0.319 C 
ATOM     18  C   UNL     1      30.691  -3.304 -26.156  0.00  0.00    +0.124 C 
ENDROOT
BRANCH   8  19
ATOM     19  N   UNL     1      31.744 -10.260 -21.098  0.00  0.00    +0.383 N 
ATOM     20  H   UNL     1      31.325 -10.362 -20.172  0.00  0.00    -0.089 HD
ATOM     21  H   UNL     1      32.457 -10.978 -21.229  0.00  0.00    -0.089 HD
ATOM     22  H   UNL     1      31.021 -10.365 -21.810  0.00  0.00    -0.089 HD
ENDBRANCH   8  19
BRANCH   4  23
ATOM     23  C   UNL     1      34.621  -7.353 -23.998  0.00  0.00    +0.172 C 
BRANCH  23  24
ATOM     24  C   UNL     1      34.283  -8.727 -24.377  0.00  0.00    -0.069 C 
ATOM     25  C   UNL     1      34.005  -9.853 -24.689  0.00  0.00    -0.088 C 
ATOM     26  C   UNL     1      33.668 -11.225 -25.066  0.00  0.00    +0.090 C 
ENDBRANCH  23  24
ENDBRANCH   4  23
BRANCH   7  27
ATOM     27  C   UNL     1      34.813  -4.399 -28.698  0.00  0.00    +0.227 C 
BRANCH  27  30
ATOM     28  N   UNL     1      37.067  -5.264 -28.686  0.00  0.00    -0.346 NA
ATOM     29  N   UNL     1      36.589  -3.129 -27.673  0.00  0.00    -0.350 NA
ATOM     30  C   UNL     1      36.260  -4.252 -28.325  0.00  0.00    +0.134 C 
ATOM     31  C   UNL     1      38.365  -5.138 -28.355  0.00  0.00    +0.131 C 
ATOM     32  C   UNL     1      37.895  -3.036 -27.358  0.00  0.00    +0.110 C 
ATOM     33  C   UNL     1      38.841  -4.008 -27.670  0.00  0.00    +0.124 C 
ATOM     34  C   UNL     1      39.282  -6.133 -28.684  0.00  0.00    +0.029 C 
ATOM     35  C   UNL     1      40.199  -3.888 -27.329  0.00  0.00    -0.013 C 
ATOM     36  C   UNL     1      38.272  -1.786 -26.630  0.00  0.00    +0.063 C 
ATOM     37  C   UNL     1      40.635  -6.021 -28.349  0.00  0.00    +0.002 C 
ATOM     38  C   UNL     1      41.094  -4.897 -27.670  0.00  0.00    -0.004 C 
ENDBRANCH  27  30
ENDBRANCH   7  27
TORSDOF 5
ENDMDL
MODEL 8
REMARK VINA RESULT:      -7.1      7.928     13.183
REMARK  Name = 10096344
REMARK  5 active torsions:
REMARK  status: ('A' for Active; 'I' for Inactive)
REMARK    1  A    between atoms: N_4  and  C_23
REMARK    2  A    between atoms: N_7  and  C_27
REMARK    3  A    between atoms: C_8  and  N_19
REMARK    4  A    between atoms: C_23  and  C_24
REMARK    5  A    between atoms: C_27  and  C_30
REMARK                            x       y       z     vdW  Elec       q    Type
REMARK                         _______ _______ _______ _____ _____    ______ ____
ROOT
ATOM      1  O   UNL     1      32.114 -10.410 -21.825  0.00  0.00    -0.272 OA
ATOM      2  O   UNL     1      34.869  -7.313 -24.024  0.00  0.00    -0.251 OA
ATOM      3  N   UNL     1      33.793 -14.161 -25.261  0.00  0.00    -0.274 N 
ATOM      4  N   UNL     1      33.140 -12.400 -23.810  0.00  0.00    -0.246 N 
ATOM      5  N   UNL     1      34.611 -11.880 -25.404  0.00  0.00    -0.360 NA
ATOM      6  N   UNL     1      34.842  -9.504 -24.804  0.00  0.00    -0.218 N 
ATOM      7  N   UNL     1      33.486  -8.841 -22.910  0.00  0.00    -0.196 N 
ATOM      8  C   UNL     1      33.702 -16.502 -24.509  0.00  0.00    -0.045 C 
ATOM      9  C   UNL     1      34.536 -15.214 -24.557  0.00  0.00    +0.073 C 
ATOM     10  C   UNL     1      33.239 -16.918 -25.908  0.00  0.00    -0.018 C 
ATOM     11  C   UNL     1      32.487 -15.771 -26.578  0.00  0.00    +0.019 C 
ATOM     12  C   UNL     1      33.335 -14.503 -26.614  0.00  0.00    +0.094 C 
ATOM     13  C   UNL     1      33.882 -12.843 -24.876  0.00  0.00    +0.244 C 
ATOM     14  C   UNL     1      33.418 -11.073 -23.655  0.00  0.00    +0.222 C 
ATOM     15  C   UNL     1      34.319 -10.780 -24.643  0.00  0.00    +0.197 C 
ATOM     16  C   UNL     1      32.923 -10.129 -22.705  0.00  0.00    +0.260 C 
ATOM     17  C   UNL     1      34.437  -8.468 -23.927  0.00  0.00    +0.319 C 
ATOM     18  C   UNL     1      35.801  -9.243 -25.871  0.00  0.00    +0.124 C 
ENDROOT
BRANCH   8  19
ATOM     19  N   UNL     1      34.483 -17.578 -23.903  0.00  0.00    +0.383 N 
ATOM     20  H   UNL     1      34.219 -18.470 -24.325  0.00  0.00    -0.089 HD
ATOM     21  H   UNL     1      34.299 -17.610 -22.900  0.00  0.00    -0.089 HD
ATOM     22  H   UNL     1      35.476 -17.409 -24.061  0.00  0.00    -0.089 HD
ENDBRANCH   8  19
BRANCH   4  23
ATOM     23  C   UNL     1      32.234 -13.188 -23.004  0.00  0.00    +0.172 C 
BRANCH  23  24
ATOM     24  C   UNL     1      32.947 -13.993 -22.009  0.00  0.00    -0.069 C 
ATOM     25  C   UNL     1      33.530 -14.654 -21.193  0.00  0.00    -0.088 C 
ATOM     26  C   UNL     1      34.242 -15.459 -20.201  0.00  0.00    +0.090 C 
ENDBRANCH  23  24
ENDBRANCH   4  23
BRANCH   7  27
ATOM     27  C   UNL     1      33.055  -7.787 -21.999  0.00  0.00    +0.227 C 
BRANCH  27  30
ATOM     28  N   UNL     1      32.883  -6.443 -23.996  0.00  0.00    -0.346 NA
ATOM     29  N   UNL     1      31.587  -5.874 -22.045  0.00  0.00    -0.350 NA
ATOM     30  C   UNL     1      32.465  -6.617 -22.731  0.00  0.00    +0.134 C 
ATOM     31  C   UNL     1      32.359  -5.396 -24.659  0.00  0.00    +0.131 C 
ATOM     32  C   UNL     1      31.082  -4.836 -22.738  0.00  0.00    +0.110 C 
ATOM     33  C   UNL     1      31.426  -4.539 -24.053  0.00  0.00    +0.124 C 
ATOM     34  C   UNL     1      32.728  -5.130 -25.975  0.00  0.00    +0.029 C 
ATOM     35  C   UNL     1      30.885  -3.448 -24.756  0.00  0.00    -0.013 C 
ATOM     36  C   UNL     1      30.100  -4.001 -21.980  0.00  0.00    +0.063 C 
ATOM     37  C   UNL     1      32.194  -4.048 -26.680  0.00  0.00    +0.002 C 
ATOM     38  C   UNL     1      31.271  -3.205 -26.070  0.00  0.00    -0.004 C 
ENDBRANCH  27  30
ENDBRANCH   7  27
TORSDOF 5
ENDMDL
MODEL 9
REMARK VINA RESULT:      -7.0      2.965      8.881
REMARK  Name = 10096344
REMARK  5 active torsions:
REMARK  status: ('A' for Active; 'I' for Inactive)
REMARK    1  A    between atoms: N_4  and  C_23
REMARK    2  A    between atoms: N_7  and  C_27
REMARK    3  A    between atoms: C_8  and  N_19
REMARK    4  A    between atoms: C_23  and  C_24
REMARK    5  A    between atoms: C_27  and  C_30
REMARK                            x       y       z     vdW  Elec       q    Type
REMARK                         _______ _______ _______ _____ _____    ______ ____
ROOT
ATOM      1  O   UNL     1      32.434 -22.695 -18.806  0.00  0.00    -0.272 OA
ATOM      2  O   UNL     1      36.120 -23.673 -16.072  0.00  0.00    -0.251 OA
ATOM      3  N   UNL     1      35.402 -18.978 -21.271  0.00  0.00    -0.274 N 
ATOM      4  N   UNL     1      34.208 -20.656 -20.092  0.00  0.00    -0.246 N 
ATOM      5  N   UNL     1      36.319 -20.312 -19.463  0.00  0.00    -0.360 NA
ATOM      6  N   UNL     1      36.360 -22.011 -17.683  0.00  0.00    -0.218 N 
ATOM      7  N   UNL     1      34.266 -23.202 -17.425  0.00  0.00    -0.196 N 
ATOM      8  C   UNL     1      34.786 -18.392 -23.580  0.00  0.00    -0.045 C 
ATOM      9  C   UNL     1      35.606 -19.330 -22.682  0.00  0.00    +0.073 C 
ATOM     10  C   UNL     1      35.086 -16.922 -23.271  0.00  0.00    -0.018 C 
ATOM     11  C   UNL     1      34.862 -16.638 -21.787  0.00  0.00    +0.019 C 
ATOM     12  C   UNL     1      35.686 -17.581 -20.917  0.00  0.00    +0.094 C 
ATOM     13  C   UNL     1      35.363 -19.944 -20.291  0.00  0.00    +0.244 C 
ATOM     14  C   UNL     1      34.450 -21.531 -19.073  0.00  0.00    +0.222 C 
ATOM     15  C   UNL     1      35.748 -21.299 -18.706  0.00  0.00    +0.197 C 
ATOM     16  C   UNL     1      33.597 -22.501 -18.464  0.00  0.00    +0.260 C 
ATOM     17  C   UNL     1      35.627 -23.008 -16.991  0.00  0.00    +0.319 C 
ATOM     18  C   UNL     1      37.745 -21.728 -17.330  0.00  0.00    +0.124 C 
ENDROOT
BRANCH   8  19
ATOM     19  N   UNL     1      35.072 -18.673 -24.985  0.00  0.00    +0.383 N 
ATOM     20  H   UNL     1      34.589 -19.527 -25.267  0.00  0.00    -0.089 HD
ATOM     21  H   UNL     1      36.077 -18.794 -25.111  0.00  0.00    -0.089 HD
ATOM     22  H   UNL     1      34.748 -17.895 -25.561  0.00  0.00    -0.089 HD
ENDBRANCH   8  19
BRANCH   4  23
ATOM     23  C   UNL     1      32.967 -20.510 -20.821  0.00  0.00    +0.172 C 
BRANCH  23  24
ATOM     24  C   UNL     1      32.443 -19.144 -20.742  0.00  0.00    -0.069 C 
ATOM     25  C   UNL     1      32.013 -18.025 -20.676  0.00  0.00    -0.088 C 
ATOM     26  C   UNL     1      31.491 -16.661 -20.597  0.00  0.00    +0.090 C 
ENDBRANCH  23  24
ENDBRANCH   4  23
BRANCH   7  27
ATOM     27  C   UNL     1      33.495 -24.223 -16.724  0.00  0.00    +0.227 C 
BRANCH  27  30
ATOM     28  N   UNL     1      31.166 -23.623 -16.929  0.00  0.00    -0.346 NA
ATOM     29  N   UNL     1      32.324 -23.266 -14.846  0.00  0.00    -0.350 NA
ATOM     30  C   UNL     1      32.239 -23.664 -16.122  0.00  0.00    +0.134 C 
ATOM     31  C   UNL     1      30.037 -23.123 -16.396  0.00  0.00    +0.131 C 
ATOM     32  C   UNL     1      31.177 -22.771 -14.344  0.00  0.00    +0.110 C 
ATOM     33  C   UNL     1      29.992 -22.671 -15.067  0.00  0.00    +0.124 C 
ATOM     34  C   UNL     1      28.870 -23.038 -17.152  0.00  0.00    +0.029 C 
ATOM     35  C   UNL     1      28.806 -22.149 -14.521  0.00  0.00    -0.013 C 
ATOM     36  C   UNL     1      31.262 -22.324 -12.920  0.00  0.00    +0.063 C 
ATOM     37  C   UNL     1      27.687 -22.521 -16.615  0.00  0.00    +0.002 C 
ATOM     38  C   UNL     1      27.655 -22.077 -15.298  0.00  0.00    -0.004 C 
ENDBRANCH  27  30
ENDBRANCH   7  27
TORSDOF 5
ENDMDL
