MODEL 1
REMARK VINA RESULT:      -4.5      0.000      0.000
REMARK  Name = 6494
REMARK  3 active torsions:
REMARK  status: ('A' for Active; 'I' for Inactive)
REMARK    1  A    between atoms: C_1  and  O_3
REMARK    2  A    between atoms: C_1  and  C_5
REMARK    3  A    between atoms: C_1  and  C_7
REMARK                            x       y       z     vdW  Elec       q    Type
REMARK                         _______ _______ _______ _____ _____    ______ ____
ROOT
ATOM      1  C   UNL     1      35.215 -18.446 -21.367  0.00  0.00    +0.142 C 
ATOM      2  C   UNL     1      36.484 -19.191 -20.956  0.00  0.00    +0.043 C 
ENDROOT
BRANCH   1   3
ATOM      3  O   UNL     1      35.192 -17.231 -20.608  0.00  0.00    -0.375 OA
ATOM      4  H   UNL     1      34.442 -16.686 -20.891  0.00  0.00    +0.211 HD
ENDBRANCH   1   3
BRANCH   1   5
ATOM      5  C   UNL     1      35.218 -18.059 -22.859  0.00  0.00    +0.039 C 
ATOM      6  C   UNL     1      34.923 -19.196 -23.830  0.00  0.00    +0.004 C 
ENDBRANCH   1   5
BRANCH   1   7
ATOM      7  C   UNL     1      34.022 -19.242 -21.020  0.00  0.00    -0.053 C 
ATOM      8  C   UNL     1      33.053 -19.892 -20.738  0.00  0.00    -0.012 C 
ENDBRANCH   1   7
TORSDOF 3
ENDMDL
MODEL 2
REMARK VINA RESULT:      -4.5      1.275      2.931
REMARK  Name = 6494
REMARK  3 active torsions:
REMARK  status: ('A' for Active; 'I' for Inactive)
REMARK    1  A    between atoms: C_1  and  O_3
REMARK    2  A    between atoms: C_1  and  C_5
REMARK    3  A    between atoms: C_1  and  C_7
REMARK                            x       y       z     vdW  Elec       q    Type
REMARK                         _______ _______ _______ _____ _____    ______ ____
ROOT
ATOM      1  C   UNL     1      34.480 -18.797 -21.338  0.00  0.00    +0.142 C 
ATOM      2  C   UNL     1      34.427 -17.289 -21.094  0.00  0.00    +0.043 C 
ENDROOT
BRANCH   1   3
ATOM      3  O   UNL     1      35.581 -19.296 -20.568  0.00  0.00    -0.375 OA
ATOM      4  H   UNL     1      36.401 -18.874 -20.865  0.00  0.00    +0.211 HD
ENDBRANCH   1   3
BRANCH   1   5
ATOM      5  C   UNL     1      33.209 -19.517 -20.846  0.00  0.00    +0.039 C 
ATOM      6  C   UNL     1      33.448 -20.764 -20.002  0.00  0.00    +0.004 C 
ENDBRANCH   1   5
BRANCH   1   7
ATOM      7  C   UNL     1      34.739 -19.074 -22.764  0.00  0.00    -0.053 C 
ATOM      8  C   UNL     1      34.947 -19.303 -23.924  0.00  0.00    -0.012 C 
ENDBRANCH   1   7
TORSDOF 3
ENDMDL
MODEL 3
REMARK VINA RESULT:      -4.5      1.232      2.819
REMARK  Name = 6494
REMARK  3 active torsions:
REMARK  status: ('A' for Active; 'I' for Inactive)
REMARK    1  A    between atoms: C_1  and  O_3
REMARK    2  A    between atoms: C_1  and  C_5
REMARK    3  A    between atoms: C_1  and  C_7
REMARK                            x       y       z     vdW  Elec       q    Type
REMARK                         _______ _______ _______ _____ _____    ______ ____
ROOT
ATOM      1  C   UNL     1      34.800 -19.303 -21.172  0.00  0.00    +0.142 C 
ATOM      2  C   UNL     1      34.993 -19.347 -22.688  0.00  0.00    +0.043 C 
ENDROOT
BRANCH   1   3
ATOM      3  O   UNL     1      35.163 -17.981 -20.754  0.00  0.00    -0.375 OA
ATOM      4  H   UNL     1      34.387 -17.403 -20.798  0.00  0.00    +0.211 HD
ENDBRANCH   1   3
BRANCH   1   5
ATOM      5  C   UNL     1      33.332 -19.531 -20.760  0.00  0.00    +0.039 C 
ATOM      6  C   UNL     1      33.075 -20.773 -19.915  0.00  0.00    +0.004 C 
ENDBRANCH   1   5
BRANCH   1   7
ATOM      7  C   UNL     1      35.700 -20.270 -20.515  0.00  0.00    -0.053 C 
ATOM      8  C   UNL     1      36.431 -21.056 -19.978  0.00  0.00    -0.012 C 
ENDBRANCH   1   7
TORSDOF 3
ENDMDL
MODEL 4
REMARK VINA RESULT:      -4.5      1.292      2.951
REMARK  Name = 6494
REMARK  3 active torsions:
REMARK  status: ('A' for Active; 'I' for Inactive)
REMARK    1  A    between atoms: C_1  and  O_3
REMARK    2  A    between atoms: C_1  and  C_5
REMARK    3  A    between atoms: C_1  and  C_7
REMARK                            x       y       z     vdW  Elec       q    Type
REMARK                         _______ _______ _______ _____ _____    ______ ____
ROOT
ATOM      1  C   UNL     1      34.728 -19.272 -21.235  0.00  0.00    +0.142 C 
ATOM      2  C   UNL     1      33.296 -19.579 -20.798  0.00  0.00    +0.043 C 
ENDROOT
BRANCH   1   3
ATOM      3  O   UNL     1      35.034 -17.963 -20.737  0.00  0.00    -0.375 OA
ATOM      4  H   UNL     1      35.603 -18.040 -19.956  0.00  0.00    +0.211 HD
ENDBRANCH   1   3
BRANCH   1   5
ATOM      5  C   UNL     1      35.751 -20.250 -20.625  0.00  0.00    +0.039 C 
ATOM      6  C   UNL     1      35.172 -21.299 -19.684  0.00  0.00    +0.004 C 
ENDBRANCH   1   5
BRANCH   1   7
ATOM      7  C   UNL     1      34.817 -19.248 -22.708  0.00  0.00    -0.053 C 
ATOM      8  C   UNL     1      34.891 -19.233 -23.906  0.00  0.00    -0.012 C 
ENDBRANCH   1   7
TORSDOF 3
ENDMDL
MODEL 5
REMARK VINA RESULT:      -4.4      1.234      1.863
REMARK  Name = 6494
REMARK  3 active torsions:
REMARK  status: ('A' for Active; 'I' for Inactive)
REMARK    1  A    between atoms: C_1  and  O_3
REMARK    2  A    between atoms: C_1  and  C_5
REMARK    3  A    between atoms: C_1  and  C_7
REMARK                            x       y       z     vdW  Elec       q    Type
REMARK                         _______ _______ _______ _____ _____    ______ ____
ROOT
ATOM      1  C   UNL     1      34.824 -18.501 -21.425  0.00  0.00    +0.142 C 
ATOM      2  C   UNL     1      35.189 -18.868 -22.863  0.00  0.00    +0.043 C 
ENDROOT
BRANCH   1   3
ATOM      3  O   UNL     1      36.013 -18.679 -20.645  0.00  0.00    -0.375 OA
ATOM      4  H   UNL     1      36.753 -18.900 -21.230  0.00  0.00    +0.211 HD
ENDBRANCH   1   3
BRANCH   1   5
ATOM      5  C   UNL     1      34.396 -17.026 -21.285  0.00  0.00    +0.039 C 
ATOM      6  C   UNL     1      34.824 -16.111 -22.426  0.00  0.00    +0.004 C 
ENDBRANCH   1   5
BRANCH   1   7
ATOM      7  C   UNL     1      33.783 -19.414 -20.914  0.00  0.00    -0.053 C 
ATOM      8  C   UNL     1      32.939 -20.160 -20.498  0.00  0.00    -0.012 C 
ENDBRANCH   1   7
TORSDOF 3
ENDMDL
MODEL 6
REMARK VINA RESULT:      -4.4      4.148      5.535
REMARK  Name = 6494
REMARK  3 active torsions:
REMARK  status: ('A' for Active; 'I' for Inactive)
REMARK    1  A    between atoms: C_1  and  O_3
REMARK    2  A    between atoms: C_1  and  C_5
REMARK    3  A    between atoms: C_1  and  C_7
REMARK                            x       y       z     vdW  Elec       q    Type
REMARK                         _______ _______ _______ _____ _____    ______ ____
ROOT
ATOM      1  C   UNL     1      33.996 -22.419 -18.885  0.00  0.00    +0.142 C 
ATOM      2  C   UNL     1      35.416 -22.077 -18.434  0.00  0.00    +0.043 C 
ENDROOT
BRANCH   1   3
ATOM      3  O   UNL     1      34.106 -23.561 -19.744  0.00  0.00    -0.375 OA
ATOM      4  H   UNL     1      33.543 -23.436 -20.522  0.00  0.00    +0.211 HD
ENDBRANCH   1   3
BRANCH   1   5
ATOM      5  C   UNL     1      33.084 -22.813 -17.707  0.00  0.00    +0.039 C 
ATOM      6  C   UNL     1      33.804 -23.334 -16.468  0.00  0.00    +0.004 C 
ENDBRANCH   1   5
BRANCH   1   7
ATOM      7  C   UNL     1      33.423 -21.300 -19.658  0.00  0.00    -0.053 C 
ATOM      8  C   UNL     1      32.955 -20.389 -20.285  0.00  0.00    -0.012 C 
ENDBRANCH   1   7
TORSDOF 3
ENDMDL
MODEL 7
REMARK VINA RESULT:      -4.4      1.443      2.270
REMARK  Name = 6494
REMARK  3 active torsions:
REMARK  status: ('A' for Active; 'I' for Inactive)
REMARK    1  A    between atoms: C_1  and  O_3
REMARK    2  A    between atoms: C_1  and  C_5
REMARK    3  A    between atoms: C_1  and  C_7
REMARK                            x       y       z     vdW  Elec       q    Type
REMARK                         _______ _______ _______ _____ _____    ______ ____
ROOT
ATOM      1  C   UNL     1      35.199 -18.284 -21.377  0.00  0.00    +0.142 C 
ATOM      2  C   UNL     1      33.978 -19.178 -21.158  0.00  0.00    +0.043 C 
ENDROOT
BRANCH   1   3
ATOM      3  O   UNL     1      36.213 -18.754 -20.479  0.00  0.00    -0.375 OA
ATOM      4  H   UNL     1      36.314 -19.712 -20.578  0.00  0.00    +0.211 HD
ENDBRANCH   1   3
BRANCH   1   5
ATOM      5  C   UNL     1      35.761 -18.397 -22.808  0.00  0.00    +0.039 C 
ATOM      6  C   UNL     1      34.808 -18.988 -23.840  0.00  0.00    +0.004 C 
ENDBRANCH   1   5
BRANCH   1   7
ATOM      7  C   UNL     1      34.875 -16.886 -21.034  0.00  0.00    -0.053 C 
ATOM      8  C   UNL     1      34.608 -15.749 -20.757  0.00  0.00    -0.012 C 
ENDBRANCH   1   7
TORSDOF 3
ENDMDL
MODEL 8
REMARK VINA RESULT:      -4.4      1.776      2.968
REMARK  Name = 6494
REMARK  3 active torsions:
REMARK  status: ('A' for Active; 'I' for Inactive)
REMARK    1  A    between atoms: C_1  and  O_3
REMARK    2  A    between atoms: C_1  and  C_5
REMARK    3  A    between atoms: C_1  and  C_7
REMARK                            x       y       z     vdW  Elec       q    Type
REMARK                         _______ _______ _______ _____ _____    ______ ____
ROOT
ATOM      1  C   UNL     1      34.536 -19.204 -21.352  0.00  0.00    +0.142 C 
ATOM      2  C   UNL     1      35.723 -19.942 -20.733  0.00  0.00    +0.043 C 
ENDROOT
BRANCH   1   3
ATOM      3  O   UNL     1      34.567 -19.490 -22.756  0.00  0.00    -0.375 OA
ATOM      4  H   UNL     1      35.132 -18.843 -23.205  0.00  0.00    +0.211 HD
ENDBRANCH   1   3
BRANCH   1   5
ATOM      5  C   UNL     1      33.184 -19.704 -20.808  0.00  0.00    +0.039 C 
ATOM      6  C   UNL     1      33.259 -20.906 -19.875  0.00  0.00    +0.004 C 
ENDBRANCH   1   5
BRANCH   1   7
ATOM      7  C   UNL     1      34.688 -17.748 -21.164  0.00  0.00    -0.053 C 
ATOM      8  C   UNL     1      34.814 -16.564 -21.008  0.00  0.00    -0.012 C 
ENDBRANCH   1   7
TORSDOF 3
ENDMDL
MODEL 9
REMARK VINA RESULT:      -4.4      3.872      5.063
REMARK  Name = 6494
REMARK  3 active torsions:
REMARK  status: ('A' for Active; 'I' for Inactive)
REMARK    1  A    between atoms: C_1  and  O_3
REMARK    2  A    between atoms: C_1  and  C_5
REMARK    3  A    between atoms: C_1  and  C_7
REMARK                            x       y       z     vdW  Elec       q    Type
REMARK                         _______ _______ _______ _____ _____    ______ ____
ROOT
ATOM      1  C   UNL     1      34.051 -22.480 -18.802  0.00  0.00    +0.142 C 
ATOM      2  C   UNL     1      33.572 -23.039 -17.463  0.00  0.00    +0.043 C 
ENDROOT
BRANCH   1   3
ATOM      3  O   UNL     1      34.062 -23.579 -19.721  0.00  0.00    -0.375 OA
ATOM      4  H   UNL     1      34.811 -23.486 -20.329  0.00  0.00    +0.211 HD
ENDBRANCH   1   3
BRANCH   1   5
ATOM      5  C   UNL     1      33.094 -21.413 -19.369  0.00  0.00    +0.039 C 
ATOM      6  C   UNL     1      33.711 -20.451 -20.378  0.00  0.00    +0.004 C 
ENDBRANCH   1   5
BRANCH   1   7
ATOM      7  C   UNL     1      35.425 -21.958 -18.675  0.00  0.00    -0.053 C 
ATOM      8  C   UNL     1      36.545 -21.536 -18.573  0.00  0.00    -0.012 C 
ENDBRANCH   1   7
TORSDOF 3
ENDMDL
