MODEL 1
REMARK VINA RESULT:     -11.2      0.000      0.000
REMARK  Name = 71616860
REMARK  5 active torsions:
REMARK  status: ('A' for Active; 'I' for Inactive)
REMARK    1  A    between atoms: C_10  and  C_17
REMARK    2  A    between atoms: C_15  and  O_21
REMARK    3  A    between atoms: C_16  and  C_18
REMARK    4  A    between atoms: O_21  and  C_22
REMARK    5  A    between atoms: C_22  and  C_25
REMARK                            x       y       z     vdW  Elec       q    Type
REMARK                         _______ _______ _______ _____ _____    ______ ____
ROOT
ATOM      1  O   UNL     1      37.264 -24.450 -13.736  0.00  0.00    -0.193 OA
ATOM      2  N   UNL     1      36.201 -23.441 -15.528  0.00  0.00    -0.205 N 
ATOM      3  N   UNL     1      34.999 -24.557 -13.775  0.00  0.00    -0.284 NA
ATOM      4  C   UNL     1      37.385 -21.662 -16.788  0.00  0.00    +0.049 C 
ATOM      5  C   UNL     1      36.253 -21.664 -17.777  0.00  0.00    -0.019 C 
ATOM      6  C   UNL     1      37.477 -23.029 -16.123  0.00  0.00    +0.114 C 
ATOM      7  C   UNL     1      35.088 -22.407 -17.494  0.00  0.00    +0.011 C 
ATOM      8  C   UNL     1      35.013 -23.165 -16.213  0.00  0.00    +0.068 C 
ATOM      9  C   UNL     1      36.347 -20.907 -18.954  0.00  0.00    +0.004 C 
ATOM     10  C   UNL     1      35.305 -20.911 -19.877  0.00  0.00    +0.041 C 
ATOM     11  C   UNL     1      34.057 -22.410 -18.448  0.00  0.00    +0.002 C 
ATOM     12  C   UNL     1      33.837 -23.544 -15.691  0.00  0.00    +0.088 C 
ATOM     13  C   UNL     1      34.165 -21.667 -19.627  0.00  0.00    +0.008 C 
ATOM     14  C   UNL     1      36.211 -24.166 -14.312  0.00  0.00    +0.275 C 
ATOM     15  C   UNL     1      33.924 -24.263 -14.420  0.00  0.00    +0.291 C 
ENDROOT
BRANCH  10  17
ATOM     16  C   UNL     1      35.495 -19.499 -22.086  0.00  0.00    -0.087 C 
ATOM     17  C   UNL     1      35.408 -20.144 -21.078  0.00  0.00    -0.064 C 
BRANCH  16  18
ATOM     18  C   UNL     1      35.600 -18.723 -23.295  0.00  0.00    +0.065 C 
ATOM     19  C   UNL     1      34.569 -17.663 -23.560  0.00  0.00    +0.014 C 
ATOM     20  C   UNL     1      34.569 -18.925 -24.370  0.00  0.00    +0.014 C 
ENDBRANCH  16  18
ENDBRANCH  10  17
BRANCH  15  21
ATOM     21  O   UNL     1      32.717 -24.625 -13.931  0.00  0.00    -0.448 OA
BRANCH  21  22
ATOM     22  C   UNL     1      31.940 -23.534 -13.459  0.00  0.00    +0.240 C 
BRANCH  22  25
ATOM     23  O   UNL     1      30.359 -22.716 -15.058  0.00  0.00    -0.347 OA
ATOM     24  O   UNL     1      28.935 -25.136 -15.074  0.00  0.00    -0.348 OA
ATOM     25  C   UNL     1      30.524 -23.666 -13.998  0.00  0.00    +0.188 C 
ATOM     26  C   UNL     1      30.258 -25.071 -14.534  0.00  0.00    +0.175 C 
ATOM     27  C   UNL     1      29.039 -22.786 -15.603  0.00  0.00    +0.174 C 
ATOM     28  C   UNL     1      28.775 -24.185 -16.130  0.00  0.00    +0.174 C 
ENDBRANCH  22  25
ENDBRANCH  21  22
ENDBRANCH  15  21
TORSDOF 5
ENDMDL
MODEL 2
REMARK VINA RESULT:     -10.7      7.507     11.746
REMARK  Name = 71616860
REMARK  5 active torsions:
REMARK  status: ('A' for Active; 'I' for Inactive)
REMARK    1  A    between atoms: C_10  and  C_17
REMARK    2  A    between atoms: C_15  and  O_21
REMARK    3  A    between atoms: C_16  and  C_18
REMARK    4  A    between atoms: O_21  and  C_22
REMARK    5  A    between atoms: C_22  and  C_25
REMARK                            x       y       z     vdW  Elec       q    Type
REMARK                         _______ _______ _______ _____ _____    ______ ____
ROOT
ATOM      1  O   UNL     1      33.670 -14.898 -27.131  0.00  0.00    -0.193 OA
ATOM      2  N   UNL     1      34.044 -15.748 -25.011  0.00  0.00    -0.205 N 
ATOM      3  N   UNL     1      33.114 -13.566 -25.382  0.00  0.00    -0.284 NA
ATOM      4  C   UNL     1      34.197 -18.205 -24.704  0.00  0.00    +0.049 C 
ATOM      5  C   UNL     1      34.594 -17.962 -23.275  0.00  0.00    -0.019 C 
ATOM      6  C   UNL     1      34.588 -17.000 -25.549  0.00  0.00    +0.114 C 
ATOM      7  C   UNL     1      34.516 -16.657 -22.746  0.00  0.00    +0.011 C 
ATOM      8  C   UNL     1      34.031 -15.555 -23.625  0.00  0.00    +0.068 C 
ATOM      9  C   UNL     1      35.008 -19.033 -22.469  0.00  0.00    +0.004 C 
ATOM     10  C   UNL     1      35.385 -18.813 -21.147  0.00  0.00    +0.041 C 
ATOM     11  C   UNL     1      34.917 -16.456 -21.416  0.00  0.00    +0.002 C 
ATOM     12  C   UNL     1      33.549 -14.412 -23.114  0.00  0.00    +0.088 C 
ATOM     13  C   UNL     1      35.345 -17.525 -20.624  0.00  0.00    +0.008 C 
ATOM     14  C   UNL     1      33.611 -14.743 -25.909  0.00  0.00    +0.275 C 
ATOM     15  C   UNL     1      33.094 -13.433 -24.102  0.00  0.00    +0.291 C 
ENDROOT
BRANCH  10  17
ATOM     16  C   UNL     1      36.174 -20.823 -19.647  0.00  0.00    -0.087 C 
ATOM     17  C   UNL     1      35.814 -19.906 -20.333  0.00  0.00    -0.064 C 
BRANCH  16  18
ATOM     18  C   UNL     1      36.603 -21.924 -18.824  0.00  0.00    +0.065 C 
ATOM     19  C   UNL     1      35.731 -22.346 -17.677  0.00  0.00    +0.014 C 
ATOM     20  C   UNL     1      37.028 -21.641 -17.411  0.00  0.00    +0.014 C 
ENDBRANCH  16  18
ENDBRANCH  10  17
BRANCH  15  21
ATOM     21  O   UNL     1      32.616 -12.298 -23.543  0.00  0.00    -0.448 OA
BRANCH  21  22
ATOM     22  C   UNL     1      31.873 -12.514 -22.353  0.00  0.00    +0.240 C 
BRANCH  22  25
ATOM     23  O   UNL     1      31.850 -11.163 -20.378  0.00  0.00    -0.347 OA
ATOM     24  O   UNL     1      31.829  -8.779 -21.859  0.00  0.00    -0.348 OA
ATOM     25  C   UNL     1      31.482 -11.169 -21.763  0.00  0.00    +0.188 C 
ATOM     26  C   UNL     1      32.187 -10.018 -22.477  0.00  0.00    +0.175 C 
ATOM     27  C   UNL     1      31.498  -9.922 -19.762  0.00  0.00    +0.174 C 
ATOM     28  C   UNL     1      32.197  -8.779 -20.478  0.00  0.00    +0.174 C 
ENDBRANCH  22  25
ENDBRANCH  21  22
ENDBRANCH  15  21
TORSDOF 5
ENDMDL
MODEL 3
REMARK VINA RESULT:     -10.7      8.028     12.556
REMARK  Name = 71616860
REMARK  5 active torsions:
REMARK  status: ('A' for Active; 'I' for Inactive)
REMARK    1  A    between atoms: C_10  and  C_17
REMARK    2  A    between atoms: C_15  and  O_21
REMARK    3  A    between atoms: C_16  and  C_18
REMARK    4  A    between atoms: O_21  and  C_22
REMARK    5  A    between atoms: C_22  and  C_25
REMARK                            x       y       z     vdW  Elec       q    Type
REMARK                         _______ _______ _______ _____ _____    ______ ____
ROOT
ATOM      1  O   UNL     1      33.674 -14.638 -27.269  0.00  0.00    -0.193 OA
ATOM      2  N   UNL     1      34.039 -15.525 -25.163  0.00  0.00    -0.205 N 
ATOM      3  N   UNL     1      33.273 -13.275 -25.502  0.00  0.00    -0.284 NA
ATOM      4  C   UNL     1      34.008 -17.988 -24.867  0.00  0.00    +0.049 C 
ATOM      5  C   UNL     1      34.463 -17.784 -23.449  0.00  0.00    -0.019 C 
ATOM      6  C   UNL     1      34.469 -16.813 -25.719  0.00  0.00    +0.114 C 
ATOM      7  C   UNL     1      34.502 -16.479 -22.915  0.00  0.00    +0.011 C 
ATOM      8  C   UNL     1      34.080 -15.338 -23.777  0.00  0.00    +0.068 C 
ATOM      9  C   UNL     1      34.815 -18.888 -22.658  0.00  0.00    +0.004 C 
ATOM     10  C   UNL     1      35.244 -18.704 -21.347  0.00  0.00    +0.041 C 
ATOM     11  C   UNL     1      34.955 -16.316 -21.596  0.00  0.00    +0.002 C 
ATOM     12  C   UNL     1      33.704 -14.163 -23.249  0.00  0.00    +0.088 C 
ATOM     13  C   UNL     1      35.320 -17.420 -20.819  0.00  0.00    +0.008 C 
ATOM     14  C   UNL     1      33.661 -14.485 -26.046  0.00  0.00    +0.275 C 
ATOM     15  C   UNL     1      33.299 -13.147 -24.221  0.00  0.00    +0.291 C 
ENDROOT
BRANCH  10  17
ATOM     16  C   UNL     1      35.918 -20.777 -19.876  0.00  0.00    -0.087 C 
ATOM     17  C   UNL     1      35.610 -19.831 -20.548  0.00  0.00    -0.064 C 
BRANCH  16  18
ATOM     18  C   UNL     1      36.290 -21.911 -19.070  0.00  0.00    +0.065 C 
ATOM     19  C   UNL     1      35.452 -22.242 -17.868  0.00  0.00    +0.014 C 
ATOM     20  C   UNL     1      36.824 -21.664 -17.687  0.00  0.00    +0.014 C 
ENDBRANCH  16  18
ENDBRANCH  10  17
BRANCH  15  21
ATOM     21  O   UNL     1      32.927 -11.982 -23.646  0.00  0.00    -0.448 OA
BRANCH  21  22
ATOM     22  C   UNL     1      33.646 -10.853 -24.120  0.00  0.00    +0.240 C 
BRANCH  22  25
ATOM     23  O   UNL     1      32.559  -9.882 -22.223  0.00  0.00    -0.347 OA
ATOM     24  O   UNL     1      33.412  -7.295 -22.901  0.00  0.00    -0.348 OA
ATOM     25  C   UNL     1      33.021  -9.591 -23.548  0.00  0.00    +0.188 C 
ATOM     26  C   UNL     1      34.027  -8.444 -23.490  0.00  0.00    +0.175 C 
ATOM     27  C   UNL     1      31.950  -8.731 -21.632  0.00  0.00    +0.174 C 
ATOM     28  C   UNL     1      32.951  -7.591 -21.581  0.00  0.00    +0.174 C 
ENDBRANCH  22  25
ENDBRANCH  21  22
ENDBRANCH  15  21
TORSDOF 5
ENDMDL
MODEL 4
REMARK VINA RESULT:     -10.5      7.357     11.080
REMARK  Name = 71616860
REMARK  5 active torsions:
REMARK  status: ('A' for Active; 'I' for Inactive)
REMARK    1  A    between atoms: C_10  and  C_17
REMARK    2  A    between atoms: C_15  and  O_21
REMARK    3  A    between atoms: C_16  and  C_18
REMARK    4  A    between atoms: O_21  and  C_22
REMARK    5  A    between atoms: C_22  and  C_25
REMARK                            x       y       z     vdW  Elec       q    Type
REMARK                         _______ _______ _______ _____ _____    ______ ____
ROOT
ATOM      1  O   UNL     1      34.490 -16.960 -25.729  0.00  0.00    -0.193 OA
ATOM      2  N   UNL     1      33.820 -15.193 -24.393  0.00  0.00    -0.205 N 
ATOM      3  N   UNL     1      34.450 -17.327 -23.492  0.00  0.00    -0.284 NA
ATOM      4  C   UNL     1      33.995 -12.880 -25.272  0.00  0.00    +0.049 C 
ATOM      5  C   UNL     1      33.274 -12.400 -24.043  0.00  0.00    -0.019 C 
ATOM      6  C   UNL     1      33.605 -14.324 -25.556  0.00  0.00    +0.114 C 
ATOM      7  C   UNL     1      33.033 -13.302 -22.986  0.00  0.00    +0.011 C 
ATOM      8  C   UNL     1      33.511 -14.708 -23.118  0.00  0.00    +0.068 C 
ATOM      9  C   UNL     1      32.875 -11.059 -23.941  0.00  0.00    +0.004 C 
ATOM     10  C   UNL     1      32.200 -10.612 -22.809  0.00  0.00    +0.041 C 
ATOM     11  C   UNL     1      32.336 -12.832 -21.861  0.00  0.00    +0.002 C 
ATOM     12  C   UNL     1      33.689 -15.491 -22.043  0.00  0.00    +0.088 C 
ATOM     13  C   UNL     1      31.925 -11.499 -21.774  0.00  0.00    +0.008 C 
ATOM     14  C   UNL     1      34.267 -16.520 -24.599  0.00  0.00    +0.275 C 
ATOM     15  C   UNL     1      34.180 -16.838 -22.332  0.00  0.00    +0.291 C 
ENDROOT
BRANCH  10  17
ATOM     16  C   UNL     1      31.439  -8.101 -22.634  0.00  0.00    -0.087 C 
ATOM     17  C   UNL     1      31.787  -9.247 -22.714  0.00  0.00    -0.064 C 
BRANCH  16  18
ATOM     18  C   UNL     1      31.020  -6.727 -22.538  0.00  0.00    +0.065 C 
ATOM     19  C   UNL     1      31.811  -5.682 -23.271  0.00  0.00    +0.014 C 
ATOM     20  C   UNL     1      31.884  -5.763 -21.775  0.00  0.00    +0.014 C 
ENDBRANCH  16  18
ENDBRANCH  10  17
BRANCH  15  21
ATOM     21  O   UNL     1      34.346 -17.592 -21.222  0.00  0.00    -0.448 OA
BRANCH  21  22
ATOM     22  C   UNL     1      35.379 -18.559 -21.334  0.00  0.00    +0.240 C 
BRANCH  22  25
ATOM     23  O   UNL     1      35.501 -20.441 -19.861  0.00  0.00    -0.347 OA
ATOM     24  O   UNL     1      32.834 -21.160 -20.358  0.00  0.00    -0.348 OA
ATOM     25  C   UNL     1      34.811 -19.931 -21.008  0.00  0.00    +0.188 C 
ATOM     26  C   UNL     1      33.316 -19.859 -20.706  0.00  0.00    +0.175 C 
ATOM     27  C   UNL     1      35.015 -21.739 -19.509  0.00  0.00    +0.174 C 
ATOM     28  C   UNL     1      33.527 -21.666 -19.214  0.00  0.00    +0.174 C 
ENDBRANCH  22  25
ENDBRANCH  21  22
ENDBRANCH  15  21
TORSDOF 5
ENDMDL
MODEL 5
REMARK VINA RESULT:     -10.2      5.207      9.649
REMARK  Name = 71616860
REMARK  5 active torsions:
REMARK  status: ('A' for Active; 'I' for Inactive)
REMARK    1  A    between atoms: C_10  and  C_17
REMARK    2  A    between atoms: C_15  and  O_21
REMARK    3  A    between atoms: C_16  and  C_18
REMARK    4  A    between atoms: O_21  and  C_22
REMARK    5  A    between atoms: C_22  and  C_25
REMARK                            x       y       z     vdW  Elec       q    Type
REMARK                         _______ _______ _______ _____ _____    ______ ____
ROOT
ATOM      1  O   UNL     1      38.301 -18.592 -22.017  0.00  0.00    -0.193 OA
ATOM      2  N   UNL     1      36.387 -19.587 -21.177  0.00  0.00    -0.205 N 
ATOM      3  N   UNL     1      36.407 -18.365 -23.244  0.00  0.00    -0.284 NA
ATOM      4  C   UNL     1      36.607 -21.457 -19.562  0.00  0.00    +0.049 C 
ATOM      5  C   UNL     1      35.116 -21.419 -19.375  0.00  0.00    -0.019 C 
ATOM      6  C   UNL     1      37.098 -20.081 -19.993  0.00  0.00    +0.114 C 
ATOM      7  C   UNL     1      34.333 -20.608 -20.222  0.00  0.00    +0.011 C 
ATOM      8  C   UNL     1      35.012 -19.816 -21.287  0.00  0.00    +0.068 C 
ATOM      9  C   UNL     1      34.512 -22.209 -18.386  0.00  0.00    +0.004 C 
ATOM     10  C   UNL     1      33.133 -22.172 -18.203  0.00  0.00    +0.041 C 
ATOM     11  C   UNL     1      32.945 -20.573 -20.008  0.00  0.00    +0.002 C 
ATOM     12  C   UNL     1      34.341 -19.361 -22.356  0.00  0.00    +0.088 C 
ATOM     13  C   UNL     1      32.352 -21.350 -19.008  0.00  0.00    +0.008 C 
ATOM     14  C   UNL     1      37.098 -18.834 -22.142  0.00  0.00    +0.275 C 
ATOM     15  C   UNL     1      35.147 -18.616 -23.324  0.00  0.00    +0.291 C 
ENDROOT
BRANCH  10  17
ATOM     16  C   UNL     1      32.010 -23.643 -16.336  0.00  0.00    -0.087 C 
ATOM     17  C   UNL     1      32.522 -22.972 -17.189  0.00  0.00    -0.064 C 
BRANCH  16  18
ATOM     18  C   UNL     1      31.395 -24.447 -15.311  0.00  0.00    +0.065 C 
ATOM     19  C   UNL     1      29.900 -24.594 -15.314  0.00  0.00    +0.014 C 
ATOM     20  C   UNL     1      30.568 -23.761 -14.260  0.00  0.00    +0.014 C 
ENDBRANCH  16  18
ENDBRANCH  10  17
BRANCH  15  21
ATOM     21  O   UNL     1      34.432 -18.178 -24.385  0.00  0.00    -0.448 OA
BRANCH  21  22
ATOM     22  C   UNL     1      34.836 -16.903 -24.861  0.00  0.00    +0.240 C 
BRANCH  22  25
ATOM     23  O   UNL     1      34.972 -15.133 -23.256  0.00  0.00    -0.347 OA
ATOM     24  O   UNL     1      32.741 -13.815 -24.335  0.00  0.00    -0.348 OA
ATOM     25  C   UNL     1      34.060 -15.828 -24.115  0.00  0.00    +0.188 C 
ATOM     26  C   UNL     1      33.417 -14.833 -25.078  0.00  0.00    +0.175 C 
ATOM     27  C   UNL     1      34.298 -14.111 -22.518  0.00  0.00    +0.174 C 
ATOM     28  C   UNL     1      33.654 -13.126 -23.478  0.00  0.00    +0.174 C 
ENDBRANCH  22  25
ENDBRANCH  21  22
ENDBRANCH  15  21
TORSDOF 5
ENDMDL
MODEL 6
REMARK VINA RESULT:     -10.0      8.581     12.952
REMARK  Name = 71616860
REMARK  5 active torsions:
REMARK  status: ('A' for Active; 'I' for Inactive)
REMARK    1  A    between atoms: C_10  and  C_17
REMARK    2  A    between atoms: C_15  and  O_21
REMARK    3  A    between atoms: C_16  and  C_18
REMARK    4  A    between atoms: O_21  and  C_22
REMARK    5  A    between atoms: C_22  and  C_25
REMARK                            x       y       z     vdW  Elec       q    Type
REMARK                         _______ _______ _______ _____ _____    ______ ____
ROOT
ATOM      1  O   UNL     1      33.570 -13.195 -26.831  0.00  0.00    -0.193 OA
ATOM      2  N   UNL     1      33.880 -14.401 -24.880  0.00  0.00    -0.205 N 
ATOM      3  N   UNL     1      33.033 -12.154 -24.888  0.00  0.00    -0.284 NA
ATOM      4  C   UNL     1      33.943 -16.879 -24.988  0.00  0.00    +0.049 C 
ATOM      5  C   UNL     1      34.325 -16.894 -23.534  0.00  0.00    -0.019 C 
ATOM      6  C   UNL     1      34.389 -15.564 -25.614  0.00  0.00    +0.114 C 
ATOM      7  C   UNL     1      34.284 -15.693 -22.795  0.00  0.00    +0.011 C 
ATOM      8  C   UNL     1      33.852 -14.442 -23.482  0.00  0.00    +0.068 C 
ATOM      9  C   UNL     1      34.688 -18.099 -22.916  0.00  0.00    +0.004 C 
ATOM     10  C   UNL     1      35.051 -18.117 -21.572  0.00  0.00    +0.041 C 
ATOM     11  C   UNL     1      34.670 -15.732 -21.446  0.00  0.00    +0.002 C 
ATOM     12  C   UNL     1      33.402 -13.384 -22.791  0.00  0.00    +0.088 C 
ATOM     13  C   UNL     1      35.048 -16.934 -20.840  0.00  0.00    +0.008 C 
ATOM     14  C   UNL     1      33.497 -13.245 -25.600  0.00  0.00    +0.275 C 
ATOM     15  C   UNL     1      32.998 -12.237 -23.605  0.00  0.00    +0.291 C 
ENDROOT
BRANCH  10  17
ATOM     16  C   UNL     1      35.747 -20.377 -20.423  0.00  0.00    -0.087 C 
ATOM     17  C   UNL     1      35.429 -19.346 -20.948  0.00  0.00    -0.064 C 
BRANCH  16  18
ATOM     18  C   UNL     1      36.130 -21.614 -19.791  0.00  0.00    +0.065 C 
ATOM     19  C   UNL     1      35.251 -22.168 -18.707  0.00  0.00    +0.014 C 
ATOM     20  C   UNL     1      36.586 -21.578 -18.360  0.00  0.00    +0.014 C 
ENDBRANCH  16  18
ENDBRANCH  10  17
BRANCH  15  21
ATOM     21  O   UNL     1      32.550 -11.195 -22.868  0.00  0.00    -0.448 OA
BRANCH  21  22
ATOM     22  C   UNL     1      32.832  -9.926 -23.440  0.00  0.00    +0.240 C 
BRANCH  22  25
ATOM     23  O   UNL     1      32.967  -8.182 -21.807  0.00  0.00    -0.347 OA
ATOM     24  O   UNL     1      30.750  -6.835 -22.881  0.00  0.00    -0.348 OA
ATOM     25  C   UNL     1      32.057  -8.859 -22.683  0.00  0.00    +0.188 C 
ATOM     26  C   UNL     1      31.426  -7.846 -23.635  0.00  0.00    +0.175 C 
ATOM     27  C   UNL     1      32.293  -7.168 -21.058  0.00  0.00    +0.174 C 
ATOM     28  C   UNL     1      31.661  -6.165 -22.007  0.00  0.00    +0.174 C 
ENDBRANCH  22  25
ENDBRANCH  21  22
ENDBRANCH  15  21
TORSDOF 5
ENDMDL
MODEL 7
REMARK VINA RESULT:      -9.7      6.185      9.667
REMARK  Name = 71616860
REMARK  5 active torsions:
REMARK  status: ('A' for Active; 'I' for Inactive)
REMARK    1  A    between atoms: C_10  and  C_17
REMARK    2  A    between atoms: C_15  and  O_21
REMARK    3  A    between atoms: C_16  and  C_18
REMARK    4  A    between atoms: O_21  and  C_22
REMARK    5  A    between atoms: C_22  and  C_25
REMARK                            x       y       z     vdW  Elec       q    Type
REMARK                         _______ _______ _______ _____ _____    ______ ____
ROOT
ATOM      1  O   UNL     1      34.917 -18.820 -25.093  0.00  0.00    -0.193 OA
ATOM      2  N   UNL     1      34.350 -16.916 -23.905  0.00  0.00    -0.205 N 
ATOM      3  N   UNL     1      35.353 -18.835 -22.868  0.00  0.00    -0.284 NA
ATOM      4  C   UNL     1      34.119 -14.762 -25.113  0.00  0.00    +0.049 C 
ATOM      5  C   UNL     1      33.609 -14.147 -23.839  0.00  0.00    -0.019 C 
ATOM      6  C   UNL     1      33.826 -16.256 -25.106  0.00  0.00    +0.114 C 
ATOM      7  C   UNL     1      33.671 -14.887 -22.640  0.00  0.00    +0.011 C 
ATOM      8  C   UNL     1      34.251 -16.261 -22.673  0.00  0.00    +0.068 C 
ATOM      9  C   UNL     1      33.107 -12.838 -23.843  0.00  0.00    +0.004 C 
ATOM     10  C   UNL     1      32.626 -12.267 -22.668  0.00  0.00    +0.041 C 
ATOM     11  C   UNL     1      33.165 -14.298 -21.471  0.00  0.00    +0.002 C 
ATOM     12  C   UNL     1      34.713 -16.853 -21.561  0.00  0.00    +0.088 C 
ATOM     13  C   UNL     1      32.649 -12.998 -21.486  0.00  0.00    +0.008 C 
ATOM     14  C   UNL     1      34.877 -18.225 -24.013  0.00  0.00    +0.275 C 
ATOM     15  C   UNL     1      35.269 -18.192 -21.756  0.00  0.00    +0.291 C 
ENDROOT
BRANCH  10  17
ATOM     16  C   UNL     1      31.672  -9.817 -22.686  0.00  0.00    -0.087 C 
ATOM     17  C   UNL     1      32.107 -10.936 -22.679  0.00  0.00    -0.064 C 
BRANCH  16  18
ATOM     18  C   UNL     1      31.151  -8.474 -22.693  0.00  0.00    +0.065 C 
ATOM     19  C   UNL     1      31.191  -7.696 -23.977  0.00  0.00    +0.014 C 
ATOM     20  C   UNL     1      32.114  -7.331 -22.852  0.00  0.00    +0.014 C 
ENDBRANCH  16  18
ENDBRANCH  10  17
BRANCH  15  21
ATOM     21  O   UNL     1      35.723 -18.749 -20.612  0.00  0.00    -0.448 OA
BRANCH  21  22
ATOM     22  C   UNL     1      35.865 -20.161 -20.678  0.00  0.00    +0.240 C 
BRANCH  22  25
ATOM     23  O   UNL     1      33.867 -21.309 -20.033  0.00  0.00    -0.347 OA
ATOM     24  O   UNL     1      35.123 -22.517 -17.833  0.00  0.00    -0.348 OA
ATOM     25  C   UNL     1      35.102 -20.790 -19.523  0.00  0.00    +0.188 C 
ATOM     26  C   UNL     1      35.897 -21.923 -18.879  0.00  0.00    +0.175 C 
ATOM     27  C   UNL     1      33.097 -21.908 -18.988  0.00  0.00    +0.174 C 
ATOM     28  C   UNL     1      33.892 -23.031 -18.345  0.00  0.00    +0.174 C 
ENDBRANCH  22  25
ENDBRANCH  21  22
ENDBRANCH  15  21
TORSDOF 5
ENDMDL
MODEL 8
REMARK VINA RESULT:      -9.6      8.576     12.588
REMARK  Name = 71616860
REMARK  5 active torsions:
REMARK  status: ('A' for Active; 'I' for Inactive)
REMARK    1  A    between atoms: C_10  and  C_17
REMARK    2  A    between atoms: C_15  and  O_21
REMARK    3  A    between atoms: C_16  and  C_18
REMARK    4  A    between atoms: O_21  and  C_22
REMARK    5  A    between atoms: C_22  and  C_25
REMARK                            x       y       z     vdW  Elec       q    Type
REMARK                         _______ _______ _______ _____ _____    ______ ____
ROOT
ATOM      1  O   UNL     1      32.150 -15.106 -19.806  0.00  0.00    -0.193 OA
ATOM      2  N   UNL     1      32.395 -13.346 -21.288  0.00  0.00    -0.205 N 
ATOM      3  N   UNL     1      32.988 -15.603 -21.853  0.00  0.00    -0.284 NA
ATOM      4  C   UNL     1      31.039 -11.294 -20.963  0.00  0.00    +0.049 C 
ATOM      5  C   UNL     1      31.824 -10.647 -22.070  0.00  0.00    -0.019 C 
ATOM      6  C   UNL     1      31.886 -12.378 -20.310  0.00  0.00    +0.114 C 
ATOM      7  C   UNL     1      32.711 -11.429 -22.839  0.00  0.00    +0.011 C 
ATOM      8  C   UNL     1      32.835 -12.883 -22.533  0.00  0.00    +0.068 C 
ATOM      9  C   UNL     1      31.650  -9.284 -22.351  0.00  0.00    +0.004 C 
ATOM     10  C   UNL     1      32.380  -8.677 -23.369  0.00  0.00    +0.041 C 
ATOM     11  C   UNL     1      33.449 -10.793 -23.850  0.00  0.00    +0.002 C 
ATOM     12  C   UNL     1      33.316 -13.750 -23.437  0.00  0.00    +0.088 C 
ATOM     13  C   UNL     1      33.283  -9.430 -24.112  0.00  0.00    +0.008 C 
ATOM     14  C   UNL     1      32.492 -14.709 -20.922  0.00  0.00    +0.275 C 
ATOM     15  C   UNL     1      33.359 -15.145 -22.998  0.00  0.00    +0.291 C 
ENDROOT
BRANCH  10  17
ATOM     16  C   UNL     1      32.060  -6.118 -23.877  0.00  0.00    -0.087 C 
ATOM     17  C   UNL     1      32.206  -7.287 -23.646  0.00  0.00    -0.064 C 
BRANCH  16  18
ATOM     18  C   UNL     1      31.887  -4.715 -24.154  0.00  0.00    +0.065 C 
ATOM     19  C   UNL     1      30.788  -4.298 -25.089  0.00  0.00    +0.014 C 
ATOM     20  C   UNL     1      32.220  -4.207 -25.528  0.00  0.00    +0.014 C 
ENDBRANCH  16  18
ENDBRANCH  10  17
BRANCH  15  21
ATOM     21  O   UNL     1      33.848 -15.983 -23.939  0.00  0.00    -0.448 OA
BRANCH  21  22
ATOM     22  C   UNL     1      35.257 -16.150 -23.881  0.00  0.00    +0.240 C 
BRANCH  22  25
ATOM     23  O   UNL     1      35.644 -17.346 -21.845  0.00  0.00    -0.347 OA
ATOM     24  O   UNL     1      34.800 -19.777 -22.967  0.00  0.00    -0.348 OA
ATOM     25  C   UNL     1      35.570 -17.505 -23.267  0.00  0.00    +0.188 C 
ATOM     26  C   UNL     1      34.492 -18.534 -23.604  0.00  0.00    +0.175 C 
ATOM     27  C   UNL     1      35.946 -18.590 -21.209  0.00  0.00    +0.174 C 
ATOM     28  C   UNL     1      34.875 -19.613 -21.549  0.00  0.00    +0.174 C 
ENDBRANCH  22  25
ENDBRANCH  21  22
ENDBRANCH  15  21
TORSDOF 5
ENDMDL
MODEL 9
REMARK VINA RESULT:      -9.1     11.370     15.310
REMARK  Name = 71616860
REMARK  5 active torsions:
REMARK  status: ('A' for Active; 'I' for Inactive)
REMARK    1  A    between atoms: C_10  and  C_17
REMARK    2  A    between atoms: C_15  and  O_21
REMARK    3  A    between atoms: C_16  and  C_18
REMARK    4  A    between atoms: O_21  and  C_22
REMARK    5  A    between atoms: C_22  and  C_25
REMARK                            x       y       z     vdW  Elec       q    Type
REMARK                         _______ _______ _______ _____ _____    ______ ____
ROOT
ATOM      1  O   UNL     1      32.280 -10.036 -18.379  0.00  0.00    -0.193 OA
ATOM      2  N   UNL     1      32.100  -8.991 -20.437  0.00  0.00    -0.205 N 
ATOM      3  N   UNL     1      31.913 -11.370 -20.175  0.00  0.00    -0.284 NA
ATOM      4  C   UNL     1      31.481  -6.590 -20.523  0.00  0.00    +0.049 C 
ATOM      5  C   UNL     1      31.738  -6.618 -22.004  0.00  0.00    -0.019 C 
ATOM      6  C   UNL     1      32.319  -7.666 -19.845  0.00  0.00    +0.114 C 
ATOM      7  C   UNL     1      31.977  -7.852 -22.642  0.00  0.00    +0.011 C 
ATOM      8  C   UNL     1      31.960  -9.099 -21.824  0.00  0.00    +0.068 C 
ATOM      9  C   UNL     1      31.707  -5.427 -22.744  0.00  0.00    +0.004 C 
ATOM     10  C   UNL     1      31.951  -5.445 -24.114  0.00  0.00    +0.041 C 
ATOM     11  C   UNL     1      32.238  -7.845 -24.022  0.00  0.00    +0.002 C 
ATOM     12  C   UNL     1      31.772 -10.302 -22.386  0.00  0.00    +0.088 C 
ATOM     13  C   UNL     1      32.223  -6.652 -24.751  0.00  0.00    +0.008 C 
ATOM     14  C   UNL     1      32.107 -10.130 -19.596  0.00  0.00    +0.275 C 
ATOM     15  C   UNL     1      31.762 -11.428 -21.452  0.00  0.00    +0.291 C 
ENDROOT
BRANCH  10  17
ATOM     16  C   UNL     1      31.907  -3.205 -25.491  0.00  0.00    -0.087 C 
ATOM     17  C   UNL     1      31.927  -4.229 -24.863  0.00  0.00    -0.064 C 
BRANCH  16  18
ATOM     18  C   UNL     1      31.883  -1.977 -26.242  0.00  0.00    +0.065 C 
ATOM     19  C   UNL     1      30.806  -1.786 -27.271  0.00  0.00    +0.014 C 
ATOM     20  C   UNL     1      32.222  -2.023 -27.705  0.00  0.00    +0.014 C 
ENDBRANCH  16  18
ENDBRANCH  10  17
BRANCH  15  21
ATOM     21  O   UNL     1      31.569 -12.620 -22.060  0.00  0.00    -0.448 OA
BRANCH  21  22
ATOM     22  C   UNL     1      32.512 -12.902 -23.084  0.00  0.00    +0.240 C 
BRANCH  22  25
ATOM     23  O   UNL     1      33.047 -14.569 -21.453  0.00  0.00    -0.347 OA
ATOM     24  O   UNL     1      35.169 -15.572 -22.992  0.00  0.00    -0.348 OA
ATOM     25  C   UNL     1      33.608 -13.789 -22.515  0.00  0.00    +0.188 C 
ATOM     26  C   UNL     1      34.179 -14.724 -23.580  0.00  0.00    +0.175 C 
ATOM     27  C   UNL     1      34.036 -15.421 -20.869  0.00  0.00    +0.174 C 
ATOM     28  C   UNL     1      34.605 -16.346 -21.931  0.00  0.00    +0.174 C 
ENDBRANCH  22  25
ENDBRANCH  21  22
ENDBRANCH  15  21
TORSDOF 5
ENDMDL
