MODEL 1
REMARK VINA RESULT:      -6.4      0.000      0.000
REMARK  Name = 12793
REMARK  4 active torsions:
REMARK  status: ('A' for Active; 'I' for Inactive)
REMARK    1  A    between atoms: O_1  and  C_2
REMARK    2  A    between atoms: O_1  and  P_8
REMARK    3  A    between atoms: P_8  and  O_10
REMARK    4  A    between atoms: P_8  and  O_12
REMARK                            x       y       z     vdW  Elec       q    Type
REMARK                         _______ _______ _______ _____ _____    ______ ____
ROOT
ATOM      1  O   UNL     1      34.245 -18.278 -22.138  0.00  0.00    -0.403 OA
ENDROOT
BRANCH   1   2
ATOM      2  C   UNL     1      34.300 -19.327 -21.273  0.00  0.00    +0.149 C 
ATOM      3  C   UNL     1      35.531 -19.898 -20.946  0.00  0.00    +0.037 C 
ATOM      4  C   UNL     1      33.127 -19.833 -20.714  0.00  0.00    +0.037 C 
ATOM      5  C   UNL     1      35.587 -20.973 -20.060  0.00  0.00    +0.003 C 
ATOM      6  C   UNL     1      33.183 -20.909 -19.828  0.00  0.00    +0.003 C 
ATOM      7  C   UNL     1      34.414 -21.479 -19.501  0.00  0.00    +0.000 C 
ENDBRANCH   1   2
BRANCH   1   8
ATOM      8  P   UNL     1      34.712 -16.765 -21.802  0.00  0.00    +0.528 P 
ATOM      9  O   UNL     1      35.240 -16.552 -20.413  0.00  0.00    -0.216 OA
BRANCH   8  10
ATOM     10  O   UNL     1      35.727 -16.389 -23.003  0.00  0.00    -0.293 OA
ATOM     11  H   UNL     1      36.023 -17.201 -23.443  0.00  0.00    +0.223 HD
ENDBRANCH   8  10
BRANCH   8  12
ATOM     12  O   UNL     1      33.394 -15.897 -22.156  0.00  0.00    -0.293 OA
ATOM     13  H   UNL     1      33.418 -15.640 -23.091  0.00  0.00    +0.223 HD
ENDBRANCH   8  12
ENDBRANCH   1   8
TORSDOF 4
ENDMDL
MODEL 2
REMARK VINA RESULT:      -6.4      0.553      1.557
REMARK  Name = 12793
REMARK  4 active torsions:
REMARK  status: ('A' for Active; 'I' for Inactive)
REMARK    1  A    between atoms: O_1  and  C_2
REMARK    2  A    between atoms: O_1  and  P_8
REMARK    3  A    between atoms: P_8  and  O_10
REMARK    4  A    between atoms: P_8  and  O_12
REMARK                            x       y       z     vdW  Elec       q    Type
REMARK                         _______ _______ _______ _____ _____    ______ ____
ROOT
ATOM      1  O   UNL     1      34.111 -18.653 -21.897  0.00  0.00    -0.403 OA
ENDROOT
BRANCH   1   2
ATOM      2  C   UNL     1      34.262 -19.693 -21.032  0.00  0.00    +0.149 C 
ATOM      3  C   UNL     1      33.144 -20.250 -20.410  0.00  0.00    +0.037 C 
ATOM      4  C   UNL     1      35.533 -20.201 -20.767  0.00  0.00    +0.037 C 
ATOM      5  C   UNL     1      33.298 -21.316 -19.523  0.00  0.00    +0.003 C 
ATOM      6  C   UNL     1      35.688 -21.267 -19.879  0.00  0.00    +0.003 C 
ATOM      7  C   UNL     1      34.570 -21.823 -19.258  0.00  0.00    +0.000 C 
ENDBRANCH   1   2
BRANCH   1   8
ATOM      8  P   UNL     1      34.898 -17.241 -21.805  0.00  0.00    +0.528 P 
ATOM      9  O   UNL     1      35.311 -16.827 -20.421  0.00  0.00    -0.216 OA
BRANCH   8  10
ATOM     10  O   UNL     1      36.097 -17.385 -22.880  0.00  0.00    -0.293 OA
ATOM     11  H   UNL     1      36.295 -18.324 -23.019  0.00  0.00    +0.223 HD
ENDBRANCH   8  10
BRANCH   8  12
ATOM     12  O   UNL     1      33.879 -16.216 -22.532  0.00  0.00    -0.293 OA
ATOM     13  H   UNL     1      34.244 -15.318 -22.496  0.00  0.00    +0.223 HD
ENDBRANCH   8  12
ENDBRANCH   1   8
TORSDOF 4
ENDMDL
MODEL 3
REMARK VINA RESULT:      -6.4     10.109     11.084
REMARK  Name = 12793
REMARK  4 active torsions:
REMARK  status: ('A' for Active; 'I' for Inactive)
REMARK    1  A    between atoms: O_1  and  C_2
REMARK    2  A    between atoms: O_1  and  P_8
REMARK    3  A    between atoms: P_8  and  O_10
REMARK    4  A    between atoms: P_8  and  O_12
REMARK                            x       y       z     vdW  Elec       q    Type
REMARK                         _______ _______ _______ _____ _____    ______ ____
ROOT
ATOM      1  O   UNL     1      38.926 -26.630 -14.242  0.00  0.00    -0.403 OA
ENDROOT
BRANCH   1   2
ATOM      2  C   UNL     1      37.793 -25.950 -13.917  0.00  0.00    +0.149 C 
ATOM      3  C   UNL     1      36.973 -25.439 -14.923  0.00  0.00    +0.037 C 
ATOM      4  C   UNL     1      37.452 -25.764 -12.577  0.00  0.00    +0.037 C 
ATOM      5  C   UNL     1      35.812 -24.741 -14.590  0.00  0.00    +0.003 C 
ATOM      6  C   UNL     1      36.290 -25.066 -12.244  0.00  0.00    +0.003 C 
ATOM      7  C   UNL     1      35.471 -24.555 -13.250  0.00  0.00    +0.000 C 
ENDBRANCH   1   2
BRANCH   1   8
ATOM      8  P   UNL     1      40.372 -25.956 -14.518  0.00  0.00    +0.528 P 
ATOM      9  O   UNL     1      40.587 -24.615 -13.878  0.00  0.00    -0.216 OA
BRANCH   8  10
ATOM     10  O   UNL     1      41.430 -27.107 -14.104  0.00  0.00    -0.293 OA
ATOM     11  H   UNL     1      42.304 -26.709 -13.968  0.00  0.00    +0.223 HD
ENDBRANCH   8  10
BRANCH   8  12
ATOM     12  O   UNL     1      40.460 -25.948 -16.133  0.00  0.00    -0.293 OA
ATOM     13  H   UNL     1      41.388 -25.872 -16.407  0.00  0.00    +0.223 HD
ENDBRANCH   8  12
ENDBRANCH   1   8
TORSDOF 4
ENDMDL
MODEL 4
REMARK VINA RESULT:      -6.2     10.611     11.479
REMARK  Name = 12793
REMARK  4 active torsions:
REMARK  status: ('A' for Active; 'I' for Inactive)
REMARK    1  A    between atoms: O_1  and  C_2
REMARK    2  A    between atoms: O_1  and  P_8
REMARK    3  A    between atoms: P_8  and  O_10
REMARK    4  A    between atoms: P_8  and  O_12
REMARK                            x       y       z     vdW  Elec       q    Type
REMARK                         _______ _______ _______ _____ _____    ______ ____
ROOT
ATOM      1  O   UNL     1      36.539 -25.496 -11.593  0.00  0.00    -0.403 OA
ENDROOT
BRANCH   1   2
ATOM      2  C   UNL     1      37.357 -25.647 -12.670  0.00  0.00    +0.149 C 
ATOM      3  C   UNL     1      36.867 -26.218 -13.845  0.00  0.00    +0.037 C 
ATOM      4  C   UNL     1      38.687 -25.232 -12.599  0.00  0.00    +0.037 C 
ATOM      5  C   UNL     1      37.706 -26.373 -14.949  0.00  0.00    +0.003 C 
ATOM      6  C   UNL     1      39.526 -25.387 -13.703  0.00  0.00    +0.003 C 
ATOM      7  C   UNL     1      39.035 -25.958 -14.877  0.00  0.00    +0.000 C 
ENDBRANCH   1   2
BRANCH   1   8
ATOM      8  P   UNL     1      36.022 -24.080 -11.004  0.00  0.00    +0.528 P 
ATOM      9  O   UNL     1      37.085 -23.034 -10.828  0.00  0.00    -0.216 OA
BRANCH   8  10
ATOM     10  O   UNL     1      34.794 -23.673 -11.974  0.00  0.00    -0.293 OA
ATOM     11  H   UNL     1      35.067 -22.943 -12.553  0.00  0.00    +0.223 HD
ENDBRANCH   8  10
BRANCH   8  12
ATOM     12  O   UNL     1      35.276 -24.512  -9.636  0.00  0.00    -0.293 OA
ATOM     13  H   UNL     1      34.727 -23.777  -9.321  0.00  0.00    +0.223 HD
ENDBRANCH   8  12
ENDBRANCH   1   8
TORSDOF 4
ENDMDL
MODEL 5
REMARK VINA RESULT:      -6.1      7.342      8.353
REMARK  Name = 12793
REMARK  4 active torsions:
REMARK  status: ('A' for Active; 'I' for Inactive)
REMARK    1  A    between atoms: O_1  and  C_2
REMARK    2  A    between atoms: O_1  and  P_8
REMARK    3  A    between atoms: P_8  and  O_10
REMARK    4  A    between atoms: P_8  and  O_12
REMARK                            x       y       z     vdW  Elec       q    Type
REMARK                         _______ _______ _______ _____ _____    ______ ____
ROOT
ATOM      1  O   UNL     1      29.849 -22.515 -17.037  0.00  0.00    -0.403 OA
ENDROOT
BRANCH   1   2
ATOM      2  C   UNL     1      31.045 -22.794 -16.450  0.00  0.00    +0.149 C 
ATOM      3  C   UNL     1      31.147 -22.836 -15.059  0.00  0.00    +0.037 C 
ATOM      4  C   UNL     1      32.169 -23.038 -17.239  0.00  0.00    +0.037 C 
ATOM      5  C   UNL     1      32.373 -23.121 -14.458  0.00  0.00    +0.003 C 
ATOM      6  C   UNL     1      33.395 -23.324 -16.637  0.00  0.00    +0.003 C 
ATOM      7  C   UNL     1      33.496 -23.365 -15.247  0.00  0.00    +0.000 C 
ENDBRANCH   1   2
BRANCH   1   8
ATOM      8  P   UNL     1      28.426 -23.158 -16.609  0.00  0.00    +0.528 P 
ATOM      9  O   UNL     1      28.503 -24.515 -15.972  0.00  0.00    -0.216 OA
BRANCH   8  10
ATOM     10  O   UNL     1      27.724 -22.005 -15.719  0.00  0.00    -0.293 OA
ATOM     11  H   UNL     1      26.806 -21.885 -16.011  0.00  0.00    +0.223 HD
ENDBRANCH   8  10
BRANCH   8  12
ATOM     12  O   UNL     1      27.584 -23.114 -17.989  0.00  0.00    -0.293 OA
ATOM     13  H   UNL     1      27.916 -23.797 -18.592  0.00  0.00    +0.223 HD
ENDBRANCH   8  12
ENDBRANCH   1   8
TORSDOF 4
ENDMDL
MODEL 6
REMARK VINA RESULT:      -6.1      7.454      8.405
REMARK  Name = 12793
REMARK  4 active torsions:
REMARK  status: ('A' for Active; 'I' for Inactive)
REMARK    1  A    between atoms: O_1  and  C_2
REMARK    2  A    between atoms: O_1  and  P_8
REMARK    3  A    between atoms: P_8  and  O_10
REMARK    4  A    between atoms: P_8  and  O_12
REMARK                            x       y       z     vdW  Elec       q    Type
REMARK                         _______ _______ _______ _____ _____    ______ ____
ROOT
ATOM      1  O   UNL     1      29.712 -22.392 -16.988  0.00  0.00    -0.403 OA
ENDROOT
BRANCH   1   2
ATOM      2  C   UNL     1      30.844 -22.725 -16.309  0.00  0.00    +0.149 C 
ATOM      3  C   UNL     1      32.003 -23.063 -17.007  0.00  0.00    +0.037 C 
ATOM      4  C   UNL     1      30.843 -22.728 -14.914  0.00  0.00    +0.037 C 
ATOM      5  C   UNL     1      33.162 -23.405 -16.311  0.00  0.00    +0.003 C 
ATOM      6  C   UNL     1      32.003 -23.071 -14.217  0.00  0.00    +0.003 C 
ATOM      7  C   UNL     1      33.162 -23.409 -14.916  0.00  0.00    +0.000 C 
ENDBRANCH   1   2
BRANCH   1   8
ATOM      8  P   UNL     1      28.221 -22.912 -16.631  0.00  0.00    +0.528 P 
ATOM      9  O   UNL     1      27.478 -22.084 -15.623  0.00  0.00    -0.216 OA
BRANCH   8  10
ATOM     10  O   UNL     1      27.503 -23.073 -18.071  0.00  0.00    -0.293 OA
ATOM     11  H   UNL     1      26.617 -22.680 -18.036  0.00  0.00    +0.223 HD
ENDBRANCH   8  10
BRANCH   8  12
ATOM     12  O   UNL     1      28.476 -24.445 -16.180  0.00  0.00    -0.293 OA
ATOM     13  H   UNL     1      29.416 -24.570 -15.976  0.00  0.00    +0.223 HD
ENDBRANCH   8  12
ENDBRANCH   1   8
TORSDOF 4
ENDMDL
MODEL 7
REMARK VINA RESULT:      -6.0      2.659      3.572
REMARK  Name = 12793
REMARK  4 active torsions:
REMARK  status: ('A' for Active; 'I' for Inactive)
REMARK    1  A    between atoms: O_1  and  C_2
REMARK    2  A    between atoms: O_1  and  P_8
REMARK    3  A    between atoms: P_8  and  O_10
REMARK    4  A    between atoms: P_8  and  O_12
REMARK                            x       y       z     vdW  Elec       q    Type
REMARK                         _______ _______ _______ _____ _____    ______ ____
ROOT
ATOM      1  O   UNL     1      34.983 -15.281 -23.284  0.00  0.00    -0.403 OA
ENDROOT
BRANCH   1   2
ATOM      2  C   UNL     1      34.969 -16.604 -22.969  0.00  0.00    +0.149 C 
ATOM      3  C   UNL     1      34.954 -17.563 -23.982  0.00  0.00    +0.037 C 
ATOM      4  C   UNL     1      34.969 -17.002 -21.632  0.00  0.00    +0.037 C 
ATOM      5  C   UNL     1      34.939 -18.920 -23.658  0.00  0.00    +0.003 C 
ATOM      6  C   UNL     1      34.954 -18.360 -21.308  0.00  0.00    +0.003 C 
ATOM      7  C   UNL     1      34.939 -19.318 -22.322  0.00  0.00    +0.000 C 
ENDBRANCH   1   2
BRANCH   1   8
ATOM      8  P   UNL     1      33.670 -14.353 -23.476  0.00  0.00    +0.528 P 
ATOM      9  O   UNL     1      32.612 -14.515 -22.422  0.00  0.00    -0.216 OA
BRANCH   8  10
ATOM     10  O   UNL     1      34.264 -12.859 -23.648  0.00  0.00    -0.293 OA
ATOM     11  H   UNL     1      34.673 -12.772 -24.524  0.00  0.00    +0.223 HD
ENDBRANCH   8  10
BRANCH   8  12
ATOM     12  O   UNL     1      33.184 -14.725 -24.973  0.00  0.00    -0.293 OA
ATOM     13  H   UNL     1      33.519 -14.061 -25.596  0.00  0.00    +0.223 HD
ENDBRANCH   8  12
ENDBRANCH   1   8
TORSDOF 4
ENDMDL
MODEL 8
REMARK VINA RESULT:      -6.0      2.635      3.577
REMARK  Name = 12793
REMARK  4 active torsions:
REMARK  status: ('A' for Active; 'I' for Inactive)
REMARK    1  A    between atoms: O_1  and  C_2
REMARK    2  A    between atoms: O_1  and  P_8
REMARK    3  A    between atoms: P_8  and  O_10
REMARK    4  A    between atoms: P_8  and  O_12
REMARK                            x       y       z     vdW  Elec       q    Type
REMARK                         _______ _______ _______ _____ _____    ______ ____
ROOT
ATOM      1  O   UNL     1      34.996 -15.291 -23.255  0.00  0.00    -0.403 OA
ENDROOT
BRANCH   1   2
ATOM      2  C   UNL     1      34.983 -16.614 -22.936  0.00  0.00    +0.149 C 
ATOM      3  C   UNL     1      34.975 -17.009 -21.598  0.00  0.00    +0.037 C 
ATOM      4  C   UNL     1      34.980 -17.575 -23.947  0.00  0.00    +0.037 C 
ATOM      5  C   UNL     1      34.963 -18.365 -21.271  0.00  0.00    +0.003 C 
ATOM      6  C   UNL     1      34.968 -18.932 -23.620  0.00  0.00    +0.003 C 
ATOM      7  C   UNL     1      34.960 -19.326 -22.282  0.00  0.00    +0.000 C 
ENDBRANCH   1   2
BRANCH   1   8
ATOM      8  P   UNL     1      33.682 -14.367 -23.459  0.00  0.00    +0.528 P 
ATOM      9  O   UNL     1      32.621 -14.523 -22.408  0.00  0.00    -0.216 OA
BRANCH   8  10
ATOM     10  O   UNL     1      34.273 -12.874 -23.641  0.00  0.00    -0.293 OA
ATOM     11  H   UNL     1      34.321 -12.658 -24.586  0.00  0.00    +0.223 HD
ENDBRANCH   8  10
BRANCH   8  12
ATOM     12  O   UNL     1      33.202 -14.753 -24.955  0.00  0.00    -0.293 OA
ATOM     13  H   UNL     1      33.359 -15.697 -25.111  0.00  0.00    +0.223 HD
ENDBRANCH   8  12
ENDBRANCH   1   8
TORSDOF 4
ENDMDL
MODEL 9
REMARK VINA RESULT:      -6.0      4.628      5.527
REMARK  Name = 12793
REMARK  4 active torsions:
REMARK  status: ('A' for Active; 'I' for Inactive)
REMARK    1  A    between atoms: O_1  and  C_2
REMARK    2  A    between atoms: O_1  and  P_8
REMARK    3  A    between atoms: P_8  and  O_10
REMARK    4  A    between atoms: P_8  and  O_12
REMARK                            x       y       z     vdW  Elec       q    Type
REMARK                         _______ _______ _______ _____ _____    ______ ____
ROOT
ATOM      1  O   UNL     1      32.954 -21.867 -18.725  0.00  0.00    -0.403 OA
ENDROOT
BRANCH   1   2
ATOM      2  C   UNL     1      33.633 -21.091 -19.613  0.00  0.00    +0.149 C 
ATOM      3  C   UNL     1      35.021 -21.194 -19.710  0.00  0.00    +0.037 C 
ATOM      4  C   UNL     1      32.942 -20.192 -20.425  0.00  0.00    +0.037 C 
ATOM      5  C   UNL     1      35.718 -20.398 -20.619  0.00  0.00    +0.003 C 
ATOM      6  C   UNL     1      33.639 -19.395 -21.334  0.00  0.00    +0.003 C 
ATOM      7  C   UNL     1      35.027 -19.499 -21.431  0.00  0.00    +0.000 C 
ENDBRANCH   1   2
BRANCH   1   8
ATOM      8  P   UNL     1      33.590 -23.088 -17.875  0.00  0.00    +0.528 P 
ATOM      9  O   UNL     1      34.883 -22.778 -17.177  0.00  0.00    -0.216 OA
BRANCH   8  10
ATOM     10  O   UNL     1      32.380 -23.579 -16.921  0.00  0.00    -0.293 OA
ATOM     11  H   UNL     1      32.048 -24.435 -17.234  0.00  0.00    +0.223 HD
ENDBRANCH   8  10
BRANCH   8  12
ATOM     12  O   UNL     1      33.691 -24.273 -18.971  0.00  0.00    -0.293 OA
ATOM     13  H   UNL     1      33.159 -25.030 -18.679  0.00  0.00    +0.223 HD
ENDBRANCH   8  12
ENDBRANCH   1   8
TORSDOF 4
ENDMDL
