MODEL 1
REMARK VINA RESULT:      -9.4      0.000      0.000
REMARK  Name = 71494949
REMARK  9 active torsions:
REMARK  status: ('A' for Active; 'I' for Inactive)
REMARK    1  A    between atoms: N_1  and  C_14
REMARK    2  A    between atoms: C_5  and  O_26
REMARK    3  A    between atoms: C_6  and  C_25
REMARK    4  A    between atoms: C_9  and  S_15
REMARK    5  A    between atoms: S_15  and  N_17
REMARK    6  A    between atoms: S_15  and  C_19
REMARK    7  A    between atoms: O_26  and  C_27
REMARK    8  A    between atoms: C_27  and  C_29
REMARK    9  A    between atoms: C_29  and  O_31
REMARK                            x       y       z     vdW  Elec       q    Type
REMARK                         _______ _______ _______ _____ _____    ______ ____
ROOT
ATOM      1  N   UNL     1      33.423 -13.852 -25.430  0.00  0.00    -0.247 N 
ATOM      2  N   UNL     1      34.413 -15.204 -23.787  0.00  0.00    -0.300 NA
ATOM      3  N   UNL     1      33.666 -16.143 -25.878  0.00  0.00    -0.170 NA
ATOM      4  C   UNL     1      33.855 -15.130 -25.011  0.00  0.00    +0.152 C 
ATOM      5  C   UNL     1      34.814 -16.439 -23.419  0.00  0.00    +0.294 C 
ATOM      6  C   UNL     1      34.678 -17.558 -24.214  0.00  0.00    +0.158 C 
ATOM      7  C   UNL     1      34.091 -17.349 -25.445  0.00  0.00    +0.121 C 
ATOM      8  H   UNL     1      33.023 -13.845 -26.329  0.00  0.00    +0.165 HD
ENDROOT
BRANCH   1  14
ATOM      9  C   UNL     1      33.512 -10.080 -23.592  0.00  0.00    +0.048 C 
ATOM     10  C   UNL     1      34.248 -10.307 -24.755  0.00  0.00    +0.009 C 
ATOM     11  C   UNL     1      32.747 -11.107 -23.040  0.00  0.00    +0.009 C 
ATOM     12  C   UNL     1      34.218 -11.561 -25.366  0.00  0.00    +0.016 C 
ATOM     13  C   UNL     1      32.717 -12.360 -23.650  0.00  0.00    +0.016 C 
ATOM     14  C   UNL     1      33.452 -12.587 -24.813  0.00  0.00    +0.058 C 
BRANCH   9  15
ATOM     15  S   UNL     1      33.551  -8.511 -22.828  0.00  0.00    +0.007 S 
ATOM     16  O   UNL     1      32.895  -8.625 -21.532  0.00  0.00    -0.152 OA
BRANCH  15  17
ATOM     17  C   UNL     1      32.376  -7.443 -23.810  0.00  0.00    +0.075 C 
ATOM     18  C   UNL     1      31.473  -6.628 -22.935  0.00  0.00    +0.014 C 
ATOM     19  C   UNL     1      30.945  -7.851 -23.633  0.00  0.00    +0.014 C 
ENDBRANCH  15  17
BRANCH  15  20
ATOM     20  N   UNL     1      34.953  -7.912 -23.090  0.00  0.00    -0.179 NA
ATOM     21  H   UNL     1      35.041  -6.981 -23.397  0.00  0.00    +0.156 HD
ENDBRANCH  15  20
ENDBRANCH   9  15
ENDBRANCH   1  14
BRANCH   6  25
ATOM     22  F   UNL     1      36.433 -18.936 -23.395  0.00  0.00    -0.166 F 
ATOM     23  F   UNL     1      34.419 -19.425 -22.739  0.00  0.00    -0.166 F 
ATOM     24  F   UNL     1      35.029 -19.858 -24.776  0.00  0.00    -0.166 F 
ATOM     25  C   UNL     1      35.126 -18.910 -23.792  0.00  0.00    +0.425 C 
ENDBRANCH   6  25
BRANCH   5  26
ATOM     26  O   UNL     1      35.388 -16.550 -22.181  0.00  0.00    -0.452 OA
BRANCH  26  27
ATOM     27  C   UNL     1      34.555 -16.248 -21.063  0.00  0.00    +0.195 C 
ATOM     28  C   UNL     1      33.279 -17.075 -21.176  0.00  0.00    +0.050 C 
BRANCH  27  29
ATOM     29  C   UNL     1      34.278 -14.740 -20.994  0.00  0.00    +0.150 C 
ATOM     30  C   UNL     1      32.871 -14.433 -20.492  0.00  0.00    +0.036 C 
BRANCH  29  31
ATOM     31  O   UNL     1      35.218 -14.122 -20.118  0.00  0.00    -0.381 OA
ATOM     32  H   UNL     1      34.891 -13.246 -19.858  0.00  0.00    +0.210 HD
ENDBRANCH  29  31
ENDBRANCH  27  29
ENDBRANCH  26  27
ENDBRANCH   5  26
TORSDOF 9
ENDMDL
MODEL 2
REMARK VINA RESULT:      -9.1      4.791      8.410
REMARK  Name = 71494949
REMARK  9 active torsions:
REMARK  status: ('A' for Active; 'I' for Inactive)
REMARK    1  A    between atoms: N_1  and  C_14
REMARK    2  A    between atoms: C_5  and  O_26
REMARK    3  A    between atoms: C_6  and  C_25
REMARK    4  A    between atoms: C_9  and  S_15
REMARK    5  A    between atoms: S_15  and  N_17
REMARK    6  A    between atoms: S_15  and  C_19
REMARK    7  A    between atoms: O_26  and  C_27
REMARK    8  A    between atoms: C_27  and  C_29
REMARK    9  A    between atoms: C_29  and  O_31
REMARK                            x       y       z     vdW  Elec       q    Type
REMARK                         _______ _______ _______ _____ _____    ______ ____
ROOT
ATOM      1  N   UNL     1      32.340 -13.427 -20.111  0.00  0.00    -0.247 N 
ATOM      2  N   UNL     1      32.578 -12.176 -22.082  0.00  0.00    -0.300 NA
ATOM      3  N   UNL     1      31.501 -11.235 -20.142  0.00  0.00    -0.170 NA
ATOM      4  C   UNL     1      32.129 -12.219 -20.813  0.00  0.00    +0.152 C 
ATOM      5  C   UNL     1      32.360 -11.008 -22.723  0.00  0.00    +0.294 C 
ATOM      6  C   UNL     1      31.729  -9.924 -22.147  0.00  0.00    +0.158 C 
ATOM      7  C   UNL     1      31.317 -10.097 -20.842  0.00  0.00    +0.121 C 
ATOM      8  H   UNL     1      31.998 -13.413 -19.189  0.00  0.00    +0.165 HD
ENDROOT
BRANCH   1  14
ATOM      9  C   UNL     1      34.147 -17.059 -21.189  0.00  0.00    +0.048 C 
ATOM     10  C   UNL     1      34.931 -15.925 -20.977  0.00  0.00    +0.009 C 
ATOM     11  C   UNL     1      32.761 -16.985 -21.044  0.00  0.00    +0.009 C 
ATOM     12  C   UNL     1      34.331 -14.718 -20.619  0.00  0.00    +0.016 C 
ATOM     13  C   UNL     1      32.161 -15.778 -20.685  0.00  0.00    +0.016 C 
ATOM     14  C   UNL     1      32.946 -14.645 -20.473  0.00  0.00    +0.058 C 
BRANCH   9  15
ATOM     15  S   UNL     1      34.899 -18.569 -21.639  0.00  0.00    +0.007 S 
ATOM     16  O   UNL     1      36.119 -18.715 -20.855  0.00  0.00    -0.152 OA
BRANCH  15  17
ATOM     17  C   UNL     1      35.532 -18.318 -23.376  0.00  0.00    +0.075 C 
ATOM     18  C   UNL     1      34.554 -17.585 -24.244  0.00  0.00    +0.014 C 
ATOM     19  C   UNL     1      34.730 -19.072 -24.394  0.00  0.00    +0.014 C 
ENDBRANCH  15  17
BRANCH  15  20
ATOM     20  N   UNL     1      33.770 -19.617 -21.770  0.00  0.00    -0.179 NA
ATOM     21  H   UNL     1      33.429 -19.866 -22.659  0.00  0.00    +0.156 HD
ENDBRANCH  15  20
ENDBRANCH   9  15
ENDBRANCH   1  14
BRANCH   6  25
ATOM     22  F   UNL     1      31.288  -7.591 -22.026  0.00  0.00    -0.166 F 
ATOM     23  F   UNL     1      32.539  -8.267 -23.671  0.00  0.00    -0.166 F 
ATOM     24  F   UNL     1      30.407  -8.668 -23.697  0.00  0.00    -0.166 F 
ATOM     25  C   UNL     1      31.497  -8.647 -22.869  0.00  0.00    +0.425 C 
ENDBRANCH   6  25
BRANCH   5  26
ATOM     26  O   UNL     1      32.805 -10.928 -24.014  0.00  0.00    -0.452 OA
BRANCH  26  27
ATOM     27  C   UNL     1      33.844 -11.832 -24.388  0.00  0.00    +0.195 C 
ATOM     28  C   UNL     1      34.682 -11.175 -25.479  0.00  0.00    +0.050 C 
BRANCH  27  29
ATOM     29  C   UNL     1      33.251 -13.178 -24.828  0.00  0.00    +0.150 C 
ATOM     30  C   UNL     1      33.399 -13.413 -26.327  0.00  0.00    +0.036 C 
BRANCH  29  31
ATOM     31  O   UNL     1      33.907 -14.237 -24.134  0.00  0.00    -0.381 OA
ATOM     32  H   UNL     1      34.686 -13.886 -23.671  0.00  0.00    +0.210 HD
ENDBRANCH  29  31
ENDBRANCH  27  29
ENDBRANCH  26  27
ENDBRANCH   5  26
TORSDOF 9
ENDMDL
MODEL 3
REMARK VINA RESULT:      -9.1      5.047      8.744
REMARK  Name = 71494949
REMARK  9 active torsions:
REMARK  status: ('A' for Active; 'I' for Inactive)
REMARK    1  A    between atoms: N_1  and  C_14
REMARK    2  A    between atoms: C_5  and  O_26
REMARK    3  A    between atoms: C_6  and  C_25
REMARK    4  A    between atoms: C_9  and  S_15
REMARK    5  A    between atoms: S_15  and  N_17
REMARK    6  A    between atoms: S_15  and  C_19
REMARK    7  A    between atoms: O_26  and  C_27
REMARK    8  A    between atoms: C_27  and  C_29
REMARK    9  A    between atoms: C_29  and  O_31
REMARK                            x       y       z     vdW  Elec       q    Type
REMARK                         _______ _______ _______ _____ _____    ______ ____
ROOT
ATOM      1  N   UNL     1      32.422 -12.993 -20.570  0.00  0.00    -0.247 N 
ATOM      2  N   UNL     1      32.655 -11.310 -22.188  0.00  0.00    -0.300 NA
ATOM      3  N   UNL     1      31.558 -10.865 -20.088  0.00  0.00    -0.170 NA
ATOM      4  C   UNL     1      32.200 -11.656 -20.968  0.00  0.00    +0.152 C 
ATOM      5  C   UNL     1      32.427 -10.026 -22.536  0.00  0.00    +0.294 C 
ATOM      6  C   UNL     1      31.781  -9.115 -21.726  0.00  0.00    +0.158 C 
ATOM      7  C   UNL     1      31.364  -9.595 -20.501  0.00  0.00    +0.121 C 
ATOM      8  H   UNL     1      32.074 -13.201 -19.672  0.00  0.00    +0.165 HD
ENDROOT
BRANCH   1  14
ATOM      9  C   UNL     1      34.271 -16.251 -22.463  0.00  0.00    +0.048 C 
ATOM     10  C   UNL     1      33.351 -15.468 -23.161  0.00  0.00    +0.009 C 
ATOM     11  C   UNL     1      34.575 -15.951 -21.135  0.00  0.00    +0.009 C 
ATOM     12  C   UNL     1      32.737 -14.385 -22.532  0.00  0.00    +0.016 C 
ATOM     13  C   UNL     1      33.961 -14.868 -20.506  0.00  0.00    +0.016 C 
ATOM     14  C   UNL     1      33.042 -14.086 -21.204  0.00  0.00    +0.058 C 
BRANCH   9  15
ATOM     15  S   UNL     1      35.039 -17.606 -23.251  0.00  0.00    +0.007 S 
ATOM     16  O   UNL     1      34.632 -17.602 -24.651  0.00  0.00    -0.152 OA
BRANCH  15  17
ATOM     17  C   UNL     1      34.202 -19.127 -22.566  0.00  0.00    +0.075 C 
ATOM     18  C   UNL     1      33.829 -18.976 -21.122  0.00  0.00    +0.014 C 
ATOM     19  C   UNL     1      35.021 -19.807 -21.511  0.00  0.00    +0.014 C 
ENDBRANCH  15  17
BRANCH  15  20
ATOM     20  N   UNL     1      36.491 -17.674 -22.725  0.00  0.00    -0.179 NA
ATOM     21  H   UNL     1      37.144 -16.986 -22.990  0.00  0.00    +0.156 HD
ENDBRANCH  15  20
ENDBRANCH   9  15
ENDBRANCH   1  14
BRANCH   6  25
ATOM     22  F   UNL     1      30.642  -7.591 -23.151  0.00  0.00    -0.166 F 
ATOM     23  F   UNL     1      31.041  -6.921 -21.122  0.00  0.00    -0.166 F 
ATOM     24  F   UNL     1      32.663  -7.052 -22.557  0.00  0.00    -0.166 F 
ATOM     25  C   UNL     1      31.539  -7.706 -22.127  0.00  0.00    +0.425 C 
ENDBRANCH   6  25
BRANCH   5  26
ATOM     26  O   UNL     1      32.877  -9.639 -23.769  0.00  0.00    -0.452 OA
BRANCH  26  27
ATOM     27  C   UNL     1      34.256  -9.878 -24.048  0.00  0.00    +0.195 C 
ATOM     28  C   UNL     1      34.942  -8.534 -24.264  0.00  0.00    +0.050 C 
BRANCH  27  29
ATOM     29  C   UNL     1      34.403 -10.818 -25.254  0.00  0.00    +0.150 C 
ATOM     30  C   UNL     1      35.659 -10.523 -26.067  0.00  0.00    +0.036 C 
BRANCH  29  31
ATOM     31  O   UNL     1      34.461 -12.168 -24.800  0.00  0.00    -0.381 OA
ATOM     32  H   UNL     1      35.282 -12.307 -24.301  0.00  0.00    +0.210 HD
ENDBRANCH  29  31
ENDBRANCH  27  29
ENDBRANCH  26  27
ENDBRANCH   5  26
TORSDOF 9
ENDMDL
MODEL 4
REMARK VINA RESULT:      -9.0      7.901     10.656
REMARK  Name = 71494949
REMARK  9 active torsions:
REMARK  status: ('A' for Active; 'I' for Inactive)
REMARK    1  A    between atoms: N_1  and  C_14
REMARK    2  A    between atoms: C_5  and  O_26
REMARK    3  A    between atoms: C_6  and  C_25
REMARK    4  A    between atoms: C_9  and  S_15
REMARK    5  A    between atoms: S_15  and  N_17
REMARK    6  A    between atoms: S_15  and  C_19
REMARK    7  A    between atoms: O_26  and  C_27
REMARK    8  A    between atoms: C_27  and  C_29
REMARK    9  A    between atoms: C_29  and  O_31
REMARK                            x       y       z     vdW  Elec       q    Type
REMARK                         _______ _______ _______ _____ _____    ______ ____
ROOT
ATOM      1  N   UNL     1      32.703 -22.294 -18.649  0.00  0.00    -0.247 N 
ATOM      2  N   UNL     1      34.103 -22.449 -16.772  0.00  0.00    -0.300 NA
ATOM      3  N   UNL     1      32.018 -23.656 -16.864  0.00  0.00    -0.170 NA
ATOM      4  C   UNL     1      32.953 -22.826 -17.365  0.00  0.00    +0.152 C 
ATOM      5  C   UNL     1      34.310 -22.976 -15.547  0.00  0.00    +0.294 C 
ATOM      6  C   UNL     1      33.431 -23.837 -14.924  0.00  0.00    +0.158 C 
ATOM      7  C   UNL     1      32.290 -24.145 -15.637  0.00  0.00    +0.121 C 
ATOM      8  H   UNL     1      31.853 -22.597 -19.044  0.00  0.00    +0.165 HD
ENDROOT
BRANCH   1  14
ATOM      9  C   UNL     1      34.870 -19.677 -21.113  0.00  0.00    +0.048 C 
ATOM     10  C   UNL     1      33.479 -19.588 -21.053  0.00  0.00    +0.009 C 
ATOM     11  C   UNL     1      35.540 -20.637 -20.355  0.00  0.00    +0.009 C 
ATOM     12  C   UNL     1      32.759 -20.458 -20.234  0.00  0.00    +0.016 C 
ATOM     13  C   UNL     1      34.820 -21.506 -19.535  0.00  0.00    +0.016 C 
ATOM     14  C   UNL     1      33.430 -21.417 -19.475  0.00  0.00    +0.058 C 
BRANCH   9  15
ATOM     15  S   UNL     1      35.770 -18.589 -22.139  0.00  0.00    +0.007 S 
ATOM     16  O   UNL     1      37.178 -18.689 -21.776  0.00  0.00    -0.152 OA
BRANCH  15  17
ATOM     17  C   UNL     1      35.304 -16.869 -21.581  0.00  0.00    +0.075 C 
ATOM     18  C   UNL     1      33.865 -16.548 -21.852  0.00  0.00    +0.014 C 
ATOM     19  C   UNL     1      34.945 -15.972 -22.727  0.00  0.00    +0.014 C 
ENDBRANCH  15  17
BRANCH  15  20
ATOM     20  N   UNL     1      35.186 -18.721 -23.565  0.00  0.00    -0.179 NA
ATOM     21  H   UNL     1      34.976 -19.611 -23.930  0.00  0.00    +0.156 HD
ENDBRANCH  15  20
ENDBRANCH   9  15
ENDBRANCH   1  14
BRANCH   6  25
ATOM     22  F   UNL     1      32.589 -25.061 -13.068  0.00  0.00    -0.166 F 
ATOM     23  F   UNL     1      34.697 -25.317 -13.535  0.00  0.00    -0.166 F 
ATOM     24  F   UNL     1      34.006 -23.470 -12.630  0.00  0.00    -0.166 F 
ATOM     25  C   UNL     1      33.676 -24.406 -13.574  0.00  0.00    +0.425 C 
ENDBRANCH   6  25
BRANCH   5  26
ATOM     26  O   UNL     1      35.470 -22.615 -14.917  0.00  0.00    -0.452 OA
BRANCH  26  27
ATOM     27  C   UNL     1      36.585 -23.489 -15.083  0.00  0.00    +0.195 C 
ATOM     28  C   UNL     1      37.320 -23.589 -13.751  0.00  0.00    +0.050 C 
BRANCH  27  29
ATOM     29  C   UNL     1      37.489 -22.994 -16.221  0.00  0.00    +0.150 C 
ATOM     30  C   UNL     1      37.424 -21.481 -16.395  0.00  0.00    +0.036 C 
BRANCH  29  31
ATOM     31  O   UNL     1      38.839 -23.364 -15.952  0.00  0.00    -0.381 OA
ATOM     32  H   UNL     1      39.199 -23.851 -16.710  0.00  0.00    +0.210 HD
ENDBRANCH  29  31
ENDBRANCH  27  29
ENDBRANCH  26  27
ENDBRANCH   5  26
TORSDOF 9
ENDMDL
MODEL 5
REMARK VINA RESULT:      -8.9      8.634     11.346
REMARK  Name = 71494949
REMARK  9 active torsions:
REMARK  status: ('A' for Active; 'I' for Inactive)
REMARK    1  A    between atoms: N_1  and  C_14
REMARK    2  A    between atoms: C_5  and  O_26
REMARK    3  A    between atoms: C_6  and  C_25
REMARK    4  A    between atoms: C_9  and  S_15
REMARK    5  A    between atoms: S_15  and  N_17
REMARK    6  A    between atoms: S_15  and  C_19
REMARK    7  A    between atoms: O_26  and  C_27
REMARK    8  A    between atoms: C_27  and  C_29
REMARK    9  A    between atoms: C_29  and  O_31
REMARK                            x       y       z     vdW  Elec       q    Type
REMARK                         _______ _______ _______ _____ _____    ______ ____
ROOT
ATOM      1  N   UNL     1      37.171 -22.292 -17.599  0.00  0.00    -0.247 N 
ATOM      2  N   UNL     1      35.461 -22.528 -16.010  0.00  0.00    -0.300 NA
ATOM      3  N   UNL     1      37.636 -23.498 -15.640  0.00  0.00    -0.170 NA
ATOM      4  C   UNL     1      36.735 -22.798 -16.355  0.00  0.00    +0.152 C 
ATOM      5  C   UNL     1      35.077 -23.025 -14.816  0.00  0.00    +0.294 C 
ATOM      6  C   UNL     1      35.904 -23.758 -13.989  0.00  0.00    +0.158 C 
ATOM      7  C   UNL     1      37.185 -23.965 -14.457  0.00  0.00    +0.121 C 
ATOM      8  H   UNL     1      38.107 -22.512 -17.809  0.00  0.00    +0.165 HD
ENDROOT
BRANCH   1  14
ATOM      9  C   UNL     1      35.261 -20.031 -20.575  0.00  0.00    +0.048 C 
ATOM     10  C   UNL     1      36.596 -19.780 -20.257  0.00  0.00    +0.009 C 
ATOM     11  C   UNL     1      34.561 -21.033 -19.903  0.00  0.00    +0.009 C 
ATOM     12  C   UNL     1      37.231 -20.532 -19.268  0.00  0.00    +0.016 C 
ATOM     13  C   UNL     1      35.196 -21.785 -18.914  0.00  0.00    +0.016 C 
ATOM     14  C   UNL     1      36.530 -21.534 -18.597  0.00  0.00    +0.058 C 
BRANCH   9  15
ATOM     15  S   UNL     1      34.467 -19.090 -21.812  0.00  0.00    +0.007 S 
ATOM     16  O   UNL     1      34.777 -19.690 -23.103  0.00  0.00    -0.152 OA
BRANCH  15  17
ATOM     17  C   UNL     1      35.377 -17.461 -21.868  0.00  0.00    +0.075 C 
ATOM     18  C   UNL     1      34.712 -16.403 -21.040  0.00  0.00    +0.014 C 
ATOM     19  C   UNL     1      34.582 -16.381 -22.538  0.00  0.00    +0.014 C 
ENDBRANCH  15  17
BRANCH  15  20
ATOM     20  N   UNL     1      33.056 -18.743 -21.284  0.00  0.00    -0.179 NA
ATOM     21  H   UNL     1      32.746 -19.114 -20.426  0.00  0.00    +0.156 HD
ENDBRANCH  15  20
ENDBRANCH   9  15
ENDBRANCH   1  14
BRANCH   6  25
ATOM     22  F   UNL     1      35.234 -23.321 -11.751  0.00  0.00    -0.166 F 
ATOM     23  F   UNL     1      34.302 -25.020 -12.737  0.00  0.00    -0.166 F 
ATOM     24  F   UNL     1      36.371 -25.143 -12.094  0.00  0.00    -0.166 F 
ATOM     25  C   UNL     1      35.463 -24.298 -12.678  0.00  0.00    +0.425 C 
ENDBRANCH   6  25
BRANCH   5  26
ATOM     26  O   UNL     1      33.788 -22.768 -14.433  0.00  0.00    -0.452 OA
BRANCH  26  27
ATOM     27  C   UNL     1      32.787 -23.656 -14.928  0.00  0.00    +0.195 C 
ATOM     28  C   UNL     1      32.455 -23.256 -16.360  0.00  0.00    +0.050 C 
BRANCH  27  29
ATOM     29  C   UNL     1      31.557 -23.641 -14.009  0.00  0.00    +0.150 C 
ATOM     30  C   UNL     1      31.011 -25.041 -13.750  0.00  0.00    +0.036 C 
BRANCH  29  31
ATOM     31  O   UNL     1      31.904 -23.049 -12.759  0.00  0.00    -0.381 OA
ATOM     32  H   UNL     1      32.836 -22.780 -12.776  0.00  0.00    +0.210 HD
ENDBRANCH  29  31
ENDBRANCH  27  29
ENDBRANCH  26  27
ENDBRANCH   5  26
TORSDOF 9
ENDMDL
MODEL 6
REMARK VINA RESULT:      -8.9      2.594      4.038
REMARK  Name = 71494949
REMARK  9 active torsions:
REMARK  status: ('A' for Active; 'I' for Inactive)
REMARK    1  A    between atoms: N_1  and  C_14
REMARK    2  A    between atoms: C_5  and  O_26
REMARK    3  A    between atoms: C_6  and  C_25
REMARK    4  A    between atoms: C_9  and  S_15
REMARK    5  A    between atoms: S_15  and  N_17
REMARK    6  A    between atoms: S_15  and  C_19
REMARK    7  A    between atoms: O_26  and  C_27
REMARK    8  A    between atoms: C_27  and  C_29
REMARK    9  A    between atoms: C_29  and  O_31
REMARK                            x       y       z     vdW  Elec       q    Type
REMARK                         _______ _______ _______ _____ _____    ______ ____
ROOT
ATOM      1  N   UNL     1      31.937 -12.259 -20.455  0.00  0.00    -0.247 N 
ATOM      2  N   UNL     1      33.122 -13.419 -22.115  0.00  0.00    -0.300 NA
ATOM      3  N   UNL     1      32.492 -14.505 -20.057  0.00  0.00    -0.170 NA
ATOM      4  C   UNL     1      32.547 -13.454 -20.897  0.00  0.00    +0.152 C 
ATOM      5  C   UNL     1      33.695 -14.577 -22.506  0.00  0.00    +0.294 C 
ATOM      6  C   UNL     1      33.707 -15.724 -21.740  0.00  0.00    +0.158 C 
ATOM      7  C   UNL     1      33.084 -15.628 -20.512  0.00  0.00    +0.121 C 
ATOM      8  H   UNL     1      31.529 -12.331 -19.562  0.00  0.00    +0.165 HD
ENDROOT
BRANCH   1  14
ATOM      9  C   UNL     1      31.520  -8.466 -22.202  0.00  0.00    +0.048 C 
ATOM     10  C   UNL     1      32.000  -8.585 -20.897  0.00  0.00    +0.009 C 
ATOM     11  C   UNL     1      31.178  -9.608 -22.925  0.00  0.00    +0.009 C 
ATOM     12  C   UNL     1      32.139  -9.845 -20.317  0.00  0.00    +0.016 C 
ATOM     13  C   UNL     1      31.317 -10.869 -22.345  0.00  0.00    +0.016 C 
ATOM     14  C   UNL     1      31.797 -10.987 -21.041  0.00  0.00    +0.058 C 
BRANCH   9  15
ATOM     15  S   UNL     1      31.346  -6.887 -22.927  0.00  0.00    +0.007 S 
ATOM     16  O   UNL     1      30.782  -7.064 -24.259  0.00  0.00    -0.152 OA
BRANCH  15  17
ATOM     17  C   UNL     1      33.082  -6.297 -23.271  0.00  0.00    +0.075 C 
ATOM     18  C   UNL     1      33.417  -6.316 -24.732  0.00  0.00    +0.014 C 
ATOM     19  C   UNL     1      33.960  -7.381 -23.819  0.00  0.00    +0.014 C 
ENDBRANCH  15  17
BRANCH  15  20
ATOM     20  N   UNL     1      30.809  -5.940 -21.829  0.00  0.00    -0.179 NA
ATOM     21  H   UNL     1      30.843  -4.965 -21.960  0.00  0.00    +0.156 HD
ENDBRANCH  15  20
ENDBRANCH   9  15
ENDBRANCH   1  14
BRANCH   6  25
ATOM     22  F   UNL     1      35.701 -16.888 -22.306  0.00  0.00    -0.166 F 
ATOM     23  F   UNL     1      34.132 -18.045 -21.343  0.00  0.00    -0.166 F 
ATOM     24  F   UNL     1      33.906 -17.426 -23.410  0.00  0.00    -0.166 F 
ATOM     25  C   UNL     1      34.343 -16.989 -22.188  0.00  0.00    +0.425 C 
ENDBRANCH   6  25
BRANCH   5  26
ATOM     26  O   UNL     1      34.288 -14.578 -23.740  0.00  0.00    -0.452 OA
BRANCH  26  27
ATOM     27  C   UNL     1      33.445 -14.282 -24.853  0.00  0.00    +0.195 C 
ATOM     28  C   UNL     1      33.430 -15.493 -25.779  0.00  0.00    +0.050 C 
BRANCH  27  29
ATOM     29  C   UNL     1      33.918 -13.004 -25.558  0.00  0.00    +0.150 C 
ATOM     30  C   UNL     1      33.326 -12.862 -26.957  0.00  0.00    +0.036 C 
BRANCH  29  31
ATOM     31  O   UNL     1      33.540 -11.866 -24.786  0.00  0.00    -0.381 OA
ATOM     32  H   UNL     1      32.586 -11.895 -24.614  0.00  0.00    +0.210 HD
ENDBRANCH  29  31
ENDBRANCH  27  29
ENDBRANCH  26  27
ENDBRANCH   5  26
TORSDOF 9
ENDMDL
MODEL 7
REMARK VINA RESULT:      -8.9      0.892      1.920
REMARK  Name = 71494949
REMARK  9 active torsions:
REMARK  status: ('A' for Active; 'I' for Inactive)
REMARK    1  A    between atoms: N_1  and  C_14
REMARK    2  A    between atoms: C_5  and  O_26
REMARK    3  A    between atoms: C_6  and  C_25
REMARK    4  A    between atoms: C_9  and  S_15
REMARK    5  A    between atoms: S_15  and  N_17
REMARK    6  A    between atoms: S_15  and  C_19
REMARK    7  A    between atoms: O_26  and  C_27
REMARK    8  A    between atoms: C_27  and  C_29
REMARK    9  A    between atoms: C_29  and  O_31
REMARK                            x       y       z     vdW  Elec       q    Type
REMARK                         _______ _______ _______ _____ _____    ______ ____
ROOT
ATOM      1  N   UNL     1      33.292 -13.563 -25.506  0.00  0.00    -0.247 N 
ATOM      2  N   UNL     1      34.272 -15.033 -23.962  0.00  0.00    -0.300 NA
ATOM      3  N   UNL     1      33.526 -15.818 -26.116  0.00  0.00    -0.170 NA
ATOM      4  C   UNL     1      33.717 -14.870 -25.179  0.00  0.00    +0.152 C 
ATOM      5  C   UNL     1      34.668 -16.293 -23.682  0.00  0.00    +0.294 C 
ATOM      6  C   UNL     1      34.528 -17.352 -24.555  0.00  0.00    +0.158 C 
ATOM      7  C   UNL     1      33.945 -17.053 -25.769  0.00  0.00    +0.121 C 
ATOM      8  H   UNL     1      32.894 -13.491 -26.404  0.00  0.00    +0.165 HD
ENDROOT
BRANCH   1  14
ATOM      9  C   UNL     1      33.390  -9.933 -23.402  0.00  0.00    +0.048 C 
ATOM     10  C   UNL     1      32.540 -10.958 -22.987  0.00  0.00    +0.009 C 
ATOM     11  C   UNL     1      34.207 -10.115 -24.518  0.00  0.00    +0.009 C 
ATOM     12  C   UNL     1      32.508 -12.165 -23.685  0.00  0.00    +0.016 C 
ATOM     13  C   UNL     1      34.175 -11.321 -25.217  0.00  0.00    +0.016 C 
ATOM     14  C   UNL     1      33.325 -12.346 -24.801  0.00  0.00    +0.058 C 
BRANCH   9  15
ATOM     15  S   UNL     1      33.430  -8.423 -22.527  0.00  0.00    +0.007 S 
ATOM     16  O   UNL     1      32.861  -8.654 -21.205  0.00  0.00    -0.152 OA
BRANCH  15  17
ATOM     17  C   UNL     1      32.164  -7.328 -23.354  0.00  0.00    +0.075 C 
ATOM     18  C   UNL     1      32.781  -6.376 -24.334  0.00  0.00    +0.014 C 
ATOM     19  C   UNL     1      32.327  -5.884 -22.987  0.00  0.00    +0.014 C 
ENDBRANCH  15  17
BRANCH  15  20
ATOM     20  N   UNL     1      34.793  -7.759 -22.828  0.00  0.00    -0.179 NA
ATOM     21  H   UNL     1      35.032  -7.520 -23.753  0.00  0.00    +0.156 HD
ENDBRANCH  15  20
ENDBRANCH   9  15
ENDBRANCH   1  14
BRANCH   6  25
ATOM     22  F   UNL     1      34.164 -19.344 -23.310  0.00  0.00    -0.166 F 
ATOM     23  F   UNL     1      34.993 -19.576 -25.306  0.00  0.00    -0.166 F 
ATOM     24  F   UNL     1      36.233 -18.799 -23.704  0.00  0.00    -0.166 F 
ATOM     25  C   UNL     1      34.969 -18.732 -24.229  0.00  0.00    +0.425 C 
ENDBRANCH   6  25
BRANCH   5  26
ATOM     26  O   UNL     1      35.237 -16.494 -22.454  0.00  0.00    -0.452 OA
BRANCH  26  27
ATOM     27  C   UNL     1      34.346 -16.584 -21.344  0.00  0.00    +0.195 C 
ATOM     28  C   UNL     1      34.492 -15.319 -20.506  0.00  0.00    +0.050 C 
BRANCH  27  29
ATOM     29  C   UNL     1      34.620 -17.862 -20.539  0.00  0.00    +0.150 C 
ATOM     30  C   UNL     1      33.621 -18.970 -20.853  0.00  0.00    +0.036 C 
BRANCH  29  31
ATOM     31  O   UNL     1      35.933 -18.337 -20.831  0.00  0.00    -0.381 OA
ATOM     32  H   UNL     1      36.465 -17.612 -21.196  0.00  0.00    +0.210 HD
ENDBRANCH  29  31
ENDBRANCH  27  29
ENDBRANCH  26  27
ENDBRANCH   5  26
TORSDOF 9
ENDMDL
MODEL 8
REMARK VINA RESULT:      -8.8      3.010      5.021
REMARK  Name = 71494949
REMARK  9 active torsions:
REMARK  status: ('A' for Active; 'I' for Inactive)
REMARK    1  A    between atoms: N_1  and  C_14
REMARK    2  A    between atoms: C_5  and  O_26
REMARK    3  A    between atoms: C_6  and  C_25
REMARK    4  A    between atoms: C_9  and  S_15
REMARK    5  A    between atoms: S_15  and  N_17
REMARK    6  A    between atoms: S_15  and  C_19
REMARK    7  A    between atoms: O_26  and  C_27
REMARK    8  A    between atoms: C_27  and  C_29
REMARK    9  A    between atoms: C_29  and  O_31
REMARK                            x       y       z     vdW  Elec       q    Type
REMARK                         _______ _______ _______ _____ _____    ______ ____
ROOT
ATOM      1  N   UNL     1      31.578 -10.473 -21.296  0.00  0.00    -0.247 N 
ATOM      2  N   UNL     1      32.774 -11.677 -22.917  0.00  0.00    -0.300 NA
ATOM      3  N   UNL     1      31.996 -12.749 -20.903  0.00  0.00    -0.170 NA
ATOM      4  C   UNL     1      32.144 -11.694 -21.726  0.00  0.00    +0.152 C 
ATOM      5  C   UNL     1      33.302 -12.859 -23.297  0.00  0.00    +0.294 C 
ATOM      6  C   UNL     1      33.219 -14.013 -22.545  0.00  0.00    +0.158 C 
ATOM      7  C   UNL     1      32.548 -13.897 -21.345  0.00  0.00    +0.121 C 
ATOM      8  H   UNL     1      31.127 -10.532 -20.423  0.00  0.00    +0.165 HD
ENDROOT
BRANCH   1  14
ATOM      9  C   UNL     1      31.438  -6.646 -23.015  0.00  0.00    +0.048 C 
ATOM     10  C   UNL     1      30.831  -7.724 -23.660  0.00  0.00    +0.009 C 
ATOM     11  C   UNL     1      32.092  -6.841 -21.798  0.00  0.00    +0.009 C 
ATOM     12  C   UNL     1      30.877  -8.996 -23.089  0.00  0.00    +0.016 C 
ATOM     13  C   UNL     1      32.138  -8.113 -21.227  0.00  0.00    +0.016 C 
ATOM     14  C   UNL     1      31.531  -9.189 -21.872  0.00  0.00    +0.058 C 
BRANCH   9  15
ATOM     15  S   UNL     1      31.380  -5.056 -23.731  0.00  0.00    +0.007 S 
ATOM     16  O   UNL     1      30.381  -5.075 -24.792  0.00  0.00    -0.152 OA
BRANCH  15  17
ATOM     17  C   UNL     1      32.988  -4.862 -24.660  0.00  0.00    +0.075 C 
ATOM     18  C   UNL     1      32.870  -5.261 -26.100  0.00  0.00    +0.014 C 
ATOM     19  C   UNL     1      33.548  -6.175 -25.117  0.00  0.00    +0.014 C 
ENDBRANCH  15  17
BRANCH  15  20
ATOM     20  N   UNL     1      31.459  -4.033 -22.574  0.00  0.00    -0.179 NA
ATOM     21  H   UNL     1      31.851  -3.143 -22.729  0.00  0.00    +0.156 HD
ENDBRANCH  15  20
ENDBRANCH   9  15
ENDBRANCH   1  14
BRANCH   6  25
ATOM     22  F   UNL     1      33.535 -16.330 -22.118  0.00  0.00    -0.166 F 
ATOM     23  F   UNL     1      33.363 -15.734 -24.202  0.00  0.00    -0.166 F 
ATOM     24  F   UNL     1      35.172 -15.282 -23.093  0.00  0.00    -0.166 F 
ATOM     25  C   UNL     1      33.808 -15.306 -22.980  0.00  0.00    +0.425 C 
ENDBRANCH   6  25
BRANCH   5  26
ATOM     26  O   UNL     1      33.948 -12.879 -24.503  0.00  0.00    -0.452 OA
BRANCH  26  27
ATOM     27  C   UNL     1      33.818 -11.714 -25.316  0.00  0.00    +0.195 C 
ATOM     28  C   UNL     1      33.726 -12.151 -26.773  0.00  0.00    +0.050 C 
BRANCH  27  29
ATOM     29  C   UNL     1      34.986 -10.750 -25.061  0.00  0.00    +0.150 C 
ATOM     30  C   UNL     1      35.657 -10.298 -26.353  0.00  0.00    +0.036 C 
BRANCH  29  31
ATOM     31  O   UNL     1      34.510  -9.598 -24.368  0.00  0.00    -0.381 OA
ATOM     32  H   UNL     1      35.030  -8.822 -24.636  0.00  0.00    +0.210 HD
ENDBRANCH  29  31
ENDBRANCH  27  29
ENDBRANCH  26  27
ENDBRANCH   5  26
TORSDOF 9
ENDMDL
MODEL 9
REMARK VINA RESULT:      -8.4      7.588     10.356
REMARK  Name = 71494949
REMARK  9 active torsions:
REMARK  status: ('A' for Active; 'I' for Inactive)
REMARK    1  A    between atoms: N_1  and  C_14
REMARK    2  A    between atoms: C_5  and  O_26
REMARK    3  A    between atoms: C_6  and  C_25
REMARK    4  A    between atoms: C_9  and  S_15
REMARK    5  A    between atoms: S_15  and  N_17
REMARK    6  A    between atoms: S_15  and  C_19
REMARK    7  A    between atoms: O_26  and  C_27
REMARK    8  A    between atoms: C_27  and  C_29
REMARK    9  A    between atoms: C_29  and  O_31
REMARK                            x       y       z     vdW  Elec       q    Type
REMARK                         _______ _______ _______ _____ _____    ______ ____
ROOT
ATOM      1  N   UNL     1      32.343 -21.583 -18.738  0.00  0.00    -0.247 N 
ATOM      2  N   UNL     1      34.072 -22.566 -17.493  0.00  0.00    -0.300 NA
ATOM      3  N   UNL     1      31.765 -22.888 -16.874  0.00  0.00    -0.170 NA
ATOM      4  C   UNL     1      32.746 -22.385 -17.647  0.00  0.00    +0.152 C 
ATOM      5  C   UNL     1      34.422 -23.337 -16.443  0.00  0.00    +0.294 C 
ATOM      6  C   UNL     1      33.515 -23.911 -15.576  0.00  0.00    +0.158 C 
ATOM      7  C   UNL     1      32.187 -23.650 -15.844  0.00  0.00    +0.121 C 
ATOM      8  H   UNL     1      31.367 -21.480 -18.812  0.00  0.00    +0.165 HD
ENDROOT
BRANCH   1  14
ATOM      9  C   UNL     1      34.488 -19.556 -21.721  0.00  0.00    +0.048 C 
ATOM     10  C   UNL     1      33.127 -19.304 -21.547  0.00  0.00    +0.009 C 
ATOM     11  C   UNL     1      35.136 -20.482 -20.904  0.00  0.00    +0.009 C 
ATOM     12  C   UNL     1      32.414 -19.978 -20.555  0.00  0.00    +0.016 C 
ATOM     13  C   UNL     1      34.423 -21.155 -19.912  0.00  0.00    +0.016 C 
ATOM     14  C   UNL     1      33.063 -20.903 -19.738  0.00  0.00    +0.058 C 
BRANCH   9  15
ATOM     15  S   UNL     1      35.379 -18.712 -22.963  0.00  0.00    +0.007 S 
ATOM     16  O   UNL     1      36.615 -18.216 -22.372  0.00  0.00    -0.152 OA
BRANCH  15  17
ATOM     17  C   UNL     1      34.411 -17.154 -23.308  0.00  0.00    +0.075 C 
ATOM     18  C   UNL     1      34.584 -16.670 -24.716  0.00  0.00    +0.014 C 
ATOM     19  C   UNL     1      35.297 -15.978 -23.588  0.00  0.00    +0.014 C 
ENDBRANCH  15  17
BRANCH  15  20
ATOM     20  N   UNL     1      35.262 -19.552 -24.256  0.00  0.00    -0.179 NA
ATOM     21  H   UNL     1      35.944 -19.469 -24.961  0.00  0.00    +0.156 HD
ENDBRANCH  15  20
ENDBRANCH   9  15
ENDBRANCH   1  14
BRANCH   6  25
ATOM     22  F   UNL     1      32.886 -25.493 -13.917  0.00  0.00    -0.166 F 
ATOM     23  F   UNL     1      34.898 -25.667 -14.722  0.00  0.00    -0.166 F 
ATOM     24  F   UNL     1      34.413 -24.048 -13.363  0.00  0.00    -0.166 F 
ATOM     25  C   UNL     1      33.919 -24.757 -14.425  0.00  0.00    +0.425 C 
ENDBRANCH   6  25
BRANCH   5  26
ATOM     26  O   UNL     1      35.763 -23.543 -16.257  0.00  0.00    -0.452 OA
BRANCH  26  27
ATOM     27  C   UNL     1      36.542 -22.399 -15.910  0.00  0.00    +0.195 C 
ATOM     28  C   UNL     1      36.951 -21.689 -17.195  0.00  0.00    +0.050 C 
BRANCH  27  29
ATOM     29  C   UNL     1      37.746 -22.812 -15.053  0.00  0.00    +0.150 C 
ATOM     30  C   UNL     1      37.340 -23.662 -13.854  0.00  0.00    +0.036 C 
BRANCH  29  31
ATOM     31  O   UNL     1      38.665 -23.558 -15.849  0.00  0.00    -0.381 OA
ATOM     32  H   UNL     1      39.424 -22.998 -16.077  0.00  0.00    +0.210 HD
ENDBRANCH  29  31
ENDBRANCH  27  29
ENDBRANCH  26  27
ENDBRANCH   5  26
TORSDOF 9
ENDMDL
