MODEL 1
REMARK VINA RESULT:      -6.1      0.000      0.000
REMARK  Name = 2879
REMARK  1 active torsions:
REMARK  status: ('A' for Active; 'I' for Inactive)
REMARK    1  A    between atoms: C_6  and  O_8
REMARK                            x       y       z     vdW  Elec       q    Type
REMARK                         _______ _______ _______ _____ _____    ______ ____
ROOT
ATOM      1  C   UNL     1      35.175 -19.567 -20.956  0.00  0.00    -0.022 C 
ATOM      2  C   UNL     1      35.749 -20.610 -20.229  0.00  0.00    -0.001 C 
ATOM      3  C   UNL     1      33.787 -19.428 -20.997  0.00  0.00    -0.001 C 
ATOM      4  C   UNL     1      34.936 -21.514 -19.544  0.00  0.00    +0.036 C 
ATOM      5  C   UNL     1      32.974 -20.331 -20.312  0.00  0.00    +0.036 C 
ATOM      6  C   UNL     1      33.549 -21.374 -19.586  0.00  0.00    +0.134 C 
ATOM      7  C   UNL     1      36.044 -18.602 -21.688  0.00  0.00    +0.031 C 
ENDROOT
BRANCH   6   8
ATOM      8  O   UNL     1      32.756 -22.255 -18.918  0.00  0.00    -0.506 OA
ATOM      9  H   UNL     1      33.110 -22.763 -18.214  0.00  0.00    +0.292 HD
ENDBRANCH   6   8
TORSDOF 1
ENDMDL
MODEL 2
REMARK VINA RESULT:      -6.1      0.005      1.708
REMARK  Name = 2879
REMARK  1 active torsions:
REMARK  status: ('A' for Active; 'I' for Inactive)
REMARK    1  A    between atoms: C_6  and  O_8
REMARK                            x       y       z     vdW  Elec       q    Type
REMARK                         _______ _______ _______ _____ _____    ______ ____
ROOT
ATOM      1  C   UNL     1      35.175 -19.568 -20.956  0.00  0.00    -0.022 C 
ATOM      2  C   UNL     1      33.787 -19.430 -20.996  0.00  0.00    -0.001 C 
ATOM      3  C   UNL     1      35.751 -20.611 -20.231  0.00  0.00    -0.001 C 
ATOM      4  C   UNL     1      32.976 -20.335 -20.311  0.00  0.00    +0.036 C 
ATOM      5  C   UNL     1      34.940 -21.515 -19.545  0.00  0.00    +0.036 C 
ATOM      6  C   UNL     1      33.553 -21.377 -19.585  0.00  0.00    +0.134 C 
ATOM      7  C   UNL     1      36.041 -18.601 -21.689  0.00  0.00    +0.031 C 
ENDROOT
BRANCH   6   8
ATOM      8  O   UNL     1      32.762 -22.260 -18.917  0.00  0.00    -0.506 OA
ATOM      9  H   UNL     1      32.014 -21.953 -18.443  0.00  0.00    +0.292 HD
ENDBRANCH   6   8
TORSDOF 1
ENDMDL
MODEL 3
REMARK VINA RESULT:      -5.8      1.065      1.302
REMARK  Name = 2879
REMARK  1 active torsions:
REMARK  status: ('A' for Active; 'I' for Inactive)
REMARK    1  A    between atoms: C_6  and  O_8
REMARK                            x       y       z     vdW  Elec       q    Type
REMARK                         _______ _______ _______ _____ _____    ______ ____
ROOT
ATOM      1  C   UNL     1      34.492 -19.756 -20.847  0.00  0.00    -0.022 C 
ATOM      2  C   UNL     1      35.723 -20.309 -20.493  0.00  0.00    -0.001 C 
ATOM      3  C   UNL     1      33.311 -20.308 -20.348  0.00  0.00    -0.001 C 
ATOM      4  C   UNL     1      35.773 -21.413 -19.642  0.00  0.00    +0.036 C 
ATOM      5  C   UNL     1      33.362 -21.412 -19.497  0.00  0.00    +0.036 C 
ATOM      6  C   UNL     1      34.593 -21.964 -19.144  0.00  0.00    +0.134 C 
ATOM      7  C   UNL     1      34.438 -18.576 -21.756  0.00  0.00    +0.031 C 
ENDROOT
BRANCH   6   8
ATOM      8  O   UNL     1      34.642 -23.041 -18.314  0.00  0.00    -0.506 OA
ATOM      9  H   UNL     1      33.996 -23.145 -17.643  0.00  0.00    +0.292 HD
ENDBRANCH   6   8
TORSDOF 1
ENDMDL
MODEL 4
REMARK VINA RESULT:      -5.7      2.053      3.704
REMARK  Name = 2879
REMARK  1 active torsions:
REMARK  status: ('A' for Active; 'I' for Inactive)
REMARK    1  A    between atoms: C_6  and  O_8
REMARK                            x       y       z     vdW  Elec       q    Type
REMARK                         _______ _______ _______ _____ _____    ______ ____
ROOT
ATOM      1  C   UNL     1      34.026 -21.541 -19.355  0.00  0.00    -0.022 C 
ATOM      2  C   UNL     1      33.205 -20.652 -20.050  0.00  0.00    -0.001 C 
ATOM      3  C   UNL     1      35.412 -21.462 -19.493  0.00  0.00    -0.001 C 
ATOM      4  C   UNL     1      33.769 -19.685 -20.883  0.00  0.00    +0.036 C 
ATOM      5  C   UNL     1      35.977 -20.495 -20.325  0.00  0.00    +0.036 C 
ATOM      6  C   UNL     1      35.155 -19.607 -21.020  0.00  0.00    +0.134 C 
ATOM      7  C   UNL     1      33.422 -22.574 -18.466  0.00  0.00    +0.031 C 
ENDROOT
BRANCH   6   8
ATOM      8  O   UNL     1      35.706 -18.664 -21.832  0.00  0.00    -0.506 OA
ATOM      9  H   UNL     1      36.632 -18.517 -21.817  0.00  0.00    +0.292 HD
ENDBRANCH   6   8
TORSDOF 1
ENDMDL
MODEL 5
REMARK VINA RESULT:      -5.7      2.054      3.296
REMARK  Name = 2879
REMARK  1 active torsions:
REMARK  status: ('A' for Active; 'I' for Inactive)
REMARK    1  A    between atoms: C_6  and  O_8
REMARK                            x       y       z     vdW  Elec       q    Type
REMARK                         _______ _______ _______ _____ _____    ______ ____
ROOT
ATOM      1  C   UNL     1      34.029 -21.544 -19.355  0.00  0.00    -0.022 C 
ATOM      2  C   UNL     1      35.416 -21.466 -19.489  0.00  0.00    -0.001 C 
ATOM      3  C   UNL     1      33.210 -20.658 -20.056  0.00  0.00    -0.001 C 
ATOM      4  C   UNL     1      35.983 -20.501 -20.322  0.00  0.00    +0.036 C 
ATOM      5  C   UNL     1      33.778 -19.694 -20.889  0.00  0.00    +0.036 C 
ATOM      6  C   UNL     1      35.164 -19.616 -21.022  0.00  0.00    +0.134 C 
ATOM      7  C   UNL     1      33.422 -22.575 -18.465  0.00  0.00    +0.031 C 
ENDROOT
BRANCH   6   8
ATOM      8  O   UNL     1      35.718 -18.675 -21.834  0.00  0.00    -0.506 OA
ATOM      9  H   UNL     1      36.614 -18.426 -21.719  0.00  0.00    +0.292 HD
ENDBRANCH   6   8
TORSDOF 1
ENDMDL
MODEL 6
REMARK VINA RESULT:      -5.6      4.038      5.306
REMARK  Name = 2879
REMARK  1 active torsions:
REMARK  status: ('A' for Active; 'I' for Inactive)
REMARK    1  A    between atoms: C_6  and  O_8
REMARK                            x       y       z     vdW  Elec       q    Type
REMARK                         _______ _______ _______ _____ _____    ______ ____
ROOT
ATOM      1  C   UNL     1      35.077 -18.549 -22.387  0.00  0.00    -0.022 C 
ATOM      2  C   UNL     1      34.751 -19.242 -23.553  0.00  0.00    -0.001 C 
ATOM      3  C   UNL     1      35.209 -17.160 -22.416  0.00  0.00    -0.001 C 
ATOM      4  C   UNL     1      34.557 -18.547 -24.747  0.00  0.00    +0.036 C 
ATOM      5  C   UNL     1      35.015 -16.465 -23.609  0.00  0.00    +0.036 C 
ATOM      6  C   UNL     1      34.689 -17.159 -24.775  0.00  0.00    +0.134 C 
ATOM      7  C   UNL     1      35.284 -19.292 -21.111  0.00  0.00    +0.031 C 
ENDROOT
BRANCH   6   8
ATOM      8  O   UNL     1      34.500 -16.480 -25.939  0.00  0.00    -0.506 OA
ATOM      9  H   UNL     1      33.708 -15.999 -26.077  0.00  0.00    +0.292 HD
ENDBRANCH   6   8
TORSDOF 1
ENDMDL
MODEL 7
REMARK VINA RESULT:      -5.6      4.041      5.354
REMARK  Name = 2879
REMARK  1 active torsions:
REMARK  status: ('A' for Active; 'I' for Inactive)
REMARK    1  A    between atoms: C_6  and  O_8
REMARK                            x       y       z     vdW  Elec       q    Type
REMARK                         _______ _______ _______ _____ _____    ______ ____
ROOT
ATOM      1  C   UNL     1      35.157 -18.548 -22.422  0.00  0.00    -0.022 C 
ATOM      2  C   UNL     1      35.237 -17.155 -22.440  0.00  0.00    -0.001 C 
ATOM      3  C   UNL     1      34.841 -19.242 -23.590  0.00  0.00    -0.001 C 
ATOM      4  C   UNL     1      35.002 -16.457 -23.625  0.00  0.00    +0.036 C 
ATOM      5  C   UNL     1      34.606 -18.545 -24.775  0.00  0.00    +0.036 C 
ATOM      6  C   UNL     1      34.687 -17.152 -24.792  0.00  0.00    +0.134 C 
ATOM      7  C   UNL     1      35.408 -19.293 -21.155  0.00  0.00    +0.031 C 
ENDROOT
BRANCH   6   8
ATOM      8  O   UNL     1      34.458 -16.472 -25.948  0.00  0.00    -0.506 OA
ATOM      9  H   UNL     1      34.273 -16.940 -26.738  0.00  0.00    +0.292 HD
ENDBRANCH   6   8
TORSDOF 1
ENDMDL
MODEL 8
REMARK VINA RESULT:      -5.5      3.415      4.628
REMARK  Name = 2879
REMARK  1 active torsions:
REMARK  status: ('A' for Active; 'I' for Inactive)
REMARK    1  A    between atoms: C_6  and  O_8
REMARK                            x       y       z     vdW  Elec       q    Type
REMARK                         _______ _______ _______ _____ _____    ______ ____
ROOT
ATOM      1  C   UNL     1      34.196 -19.073 -21.455  0.00  0.00    -0.022 C 
ATOM      2  C   UNL     1      34.772 -19.391 -22.685  0.00  0.00    -0.001 C 
ATOM      3  C   UNL     1      34.133 -17.743 -21.038  0.00  0.00    -0.001 C 
ATOM      4  C   UNL     1      35.285 -18.379 -23.498  0.00  0.00    +0.036 C 
ATOM      5  C   UNL     1      34.646 -16.732 -21.850  0.00  0.00    +0.036 C 
ATOM      6  C   UNL     1      35.222 -17.050 -23.080  0.00  0.00    +0.134 C 
ATOM      7  C   UNL     1      33.647 -20.153 -20.586  0.00  0.00    +0.031 C 
ENDROOT
BRANCH   6   8
ATOM      8  O   UNL     1      35.722 -16.064 -23.873  0.00  0.00    -0.506 OA
ATOM      9  H   UNL     1      36.099 -16.277 -24.704  0.00  0.00    +0.292 HD
ENDBRANCH   6   8
TORSDOF 1
ENDMDL
MODEL 9
REMARK VINA RESULT:      -5.4      1.203      2.135
REMARK  Name = 2879
REMARK  1 active torsions:
REMARK  status: ('A' for Active; 'I' for Inactive)
REMARK    1  A    between atoms: C_6  and  O_8
REMARK                            x       y       z     vdW  Elec       q    Type
REMARK                         _______ _______ _______ _____ _____    ______ ____
ROOT
ATOM      1  C   UNL     1      35.176 -18.840 -21.081  0.00  0.00    -0.022 C 
ATOM      2  C   UNL     1      33.969 -19.488 -20.820  0.00  0.00    -0.001 C 
ATOM      3  C   UNL     1      36.381 -19.432 -20.701  0.00  0.00    -0.001 C 
ATOM      4  C   UNL     1      33.966 -20.728 -20.180  0.00  0.00    +0.036 C 
ATOM      5  C   UNL     1      36.379 -20.671 -20.062  0.00  0.00    +0.036 C 
ATOM      6  C   UNL     1      35.171 -21.319 -19.801  0.00  0.00    +0.134 C 
ATOM      7  C   UNL     1      35.179 -17.515 -21.765  0.00  0.00    +0.031 C 
ENDROOT
BRANCH   6   8
ATOM      8  O   UNL     1      35.169 -22.528 -19.177  0.00  0.00    -0.506 OA
ATOM      9  H   UNL     1      34.586 -23.203 -19.466  0.00  0.00    +0.292 HD
ENDBRANCH   6   8
TORSDOF 1
ENDMDL
