MODEL 1
REMARK VINA RESULT:      -9.1      0.000      0.000
REMARK  Name = 441074
REMARK  5 active torsions:
REMARK  status: ('A' for Active; 'I' for Inactive)
REMARK    1  A    between atoms: C_1  and  C_3
REMARK    2  A    between atoms: C_1  and  C_16
REMARK    3  A    between atoms: C_1  and  O_25
REMARK    4  A    between atoms: C_10  and  O_12
REMARK    5  A    between atoms: C_18  and  C_23
REMARK                            x       y       z     vdW  Elec       q    Type
REMARK                         _______ _______ _______ _____ _____    ______ ____
ROOT
ATOM      1  C   UNL     1      36.097 -22.840 -15.502  0.00  0.00    +0.114 C 
ENDROOT
BRANCH   1   3
ATOM      2  N   UNL     1      32.985 -22.631 -18.431  0.00  0.00    -0.248 NA
ATOM      3  C   UNL     1      34.974 -22.775 -16.507  0.00  0.00    +0.001 C 
ATOM      4  C   UNL     1      33.645 -22.988 -16.141  0.00  0.00    -0.002 C 
ATOM      5  C   UNL     1      35.316 -22.491 -17.816  0.00  0.00    +0.018 C 
ATOM      6  C   UNL     1      32.665 -22.905 -17.153  0.00  0.00    +0.060 C 
ATOM      7  C   UNL     1      33.275 -23.277 -14.816  0.00  0.00    +0.091 C 
ATOM      8  C   UNL     1      34.289 -22.431 -18.735  0.00  0.00    +0.098 C 
ATOM      9  C   UNL     1      31.336 -23.117 -16.795  0.00  0.00    +0.074 C 
ATOM     10  C   UNL     1      31.938 -23.484 -14.487  0.00  0.00    +0.117 C 
ATOM     11  C   UNL     1      30.967 -23.404 -15.479  0.00  0.00    +0.013 C 
BRANCH  10  12
ATOM     12  O   UNL     1      31.585 -23.763 -13.204  0.00  0.00    -0.476 OA
ATOM     13  C   UNL     1      30.456 -24.616 -13.013  0.00  0.00    +0.252 C 
ENDBRANCH  10  12
ENDBRANCH   1   3
BRANCH   1  16
ATOM     14  N   UNL     1      36.024 -25.222 -14.725  0.00  0.00    +0.390 N 
ATOM     15  C   UNL     1      38.534 -25.285 -14.051  0.00  0.00    -0.002 C 
ATOM     16  C   UNL     1      36.784 -24.206 -15.502  0.00  0.00    -0.026 C 
ATOM     17  C   UNL     1      38.245 -24.113 -15.009  0.00  0.00    -0.018 C 
ATOM     18  C   UNL     1      37.635 -25.144 -12.800  0.00  0.00    +0.001 C 
ATOM     19  C   UNL     1      38.116 -26.582 -14.767  0.00  0.00    -0.023 C 
ATOM     20  C   UNL     1      36.170 -24.976 -13.269  0.00  0.00    -0.073 C 
ATOM     21  C   UNL     1      36.600 -26.554 -15.028  0.00  0.00    -0.077 C 
ATOM     22  H   UNL     1      35.037 -25.174 -14.978  0.00  0.00    -0.079 HD
BRANCH  18  23
ATOM     23  C   UNL     1      38.063 -24.028 -11.896  0.00  0.00    -0.029 C 
ATOM     24  C   UNL     1      37.353 -22.913 -11.696  0.00  0.00    -0.005 C 
ENDBRANCH  18  23
ENDBRANCH   1  16
BRANCH   1  25
ATOM     25  O   UNL     1      37.057 -21.830 -15.797  0.00  0.00    -0.382 OA
ATOM     26  H   UNL     1      36.752 -20.980 -15.443  0.00  0.00    +0.211 HD
ENDBRANCH   1  25
TORSDOF 5
ENDMDL
MODEL 2
REMARK VINA RESULT:      -8.8      2.850      6.558
REMARK  Name = 441074
REMARK  5 active torsions:
REMARK  status: ('A' for Active; 'I' for Inactive)
REMARK    1  A    between atoms: C_1  and  C_3
REMARK    2  A    between atoms: C_1  and  C_16
REMARK    3  A    between atoms: C_1  and  O_25
REMARK    4  A    between atoms: C_10  and  O_12
REMARK    5  A    between atoms: C_18  and  C_23
REMARK                            x       y       z     vdW  Elec       q    Type
REMARK                         _______ _______ _______ _____ _____    ______ ____
ROOT
ATOM      1  C   UNL     1      32.616 -23.464 -16.795  0.00  0.00    +0.114 C 
ENDROOT
BRANCH   1   3
ATOM      2  N   UNL     1      36.799 -22.569 -16.758  0.00  0.00    -0.248 NA
ATOM      3  C   UNL     1      34.086 -23.130 -16.816  0.00  0.00    +0.001 C 
ATOM      4  C   UNL     1      34.656 -22.377 -17.843  0.00  0.00    -0.002 C 
ATOM      5  C   UNL     1      34.855 -23.601 -15.768  0.00  0.00    +0.018 C 
ATOM      6  C   UNL     1      36.041 -22.115 -17.773  0.00  0.00    +0.060 C 
ATOM      7  C   UNL     1      33.894 -21.887 -18.917  0.00  0.00    +0.091 C 
ATOM      8  C   UNL     1      36.199 -23.295 -15.787  0.00  0.00    +0.098 C 
ATOM      9  C   UNL     1      36.616 -21.363 -18.794  0.00  0.00    +0.074 C 
ATOM     10  C   UNL     1      34.496 -21.138 -19.924  0.00  0.00    +0.117 C 
ATOM     11  C   UNL     1      35.860 -20.876 -19.862  0.00  0.00    +0.013 C 
BRANCH  10  12
ATOM     12  O   UNL     1      33.755 -20.666 -20.962  0.00  0.00    -0.476 OA
ATOM     13  C   UNL     1      32.687 -19.773 -20.644  0.00  0.00    +0.252 C 
ENDBRANCH  10  12
ENDBRANCH   1   3
BRANCH   1  16
ATOM     14  N   UNL     1      31.481 -24.981 -15.153  0.00  0.00    +0.390 N 
ATOM     15  C   UNL     1      29.905 -23.129 -14.233  0.00  0.00    -0.002 C 
ATOM     16  C   UNL     1      32.091 -23.641 -15.370  0.00  0.00    -0.026 C 
ATOM     17  C   UNL     1      31.108 -22.516 -14.976  0.00  0.00    -0.018 C 
ATOM     18  C   UNL     1      29.143 -24.067 -15.199  0.00  0.00    +0.001 C 
ATOM     19  C   UNL     1      30.462 -24.004 -13.095  0.00  0.00    -0.023 C 
ATOM     20  C   UNL     1      30.157 -25.059 -15.816  0.00  0.00    -0.073 C 
ATOM     21  C   UNL     1      31.279 -25.161 -13.696  0.00  0.00    -0.077 C 
ATOM     22  H   UNL     1      32.094 -25.699 -15.539  0.00  0.00    -0.079 HD
BRANCH  18  23
ATOM     23  C   UNL     1      28.377 -23.323 -16.251  0.00  0.00    -0.029 C 
ATOM     24  C   UNL     1      27.424 -22.423 -15.988  0.00  0.00    -0.005 C 
ENDBRANCH  18  23
ENDBRANCH   1  16
BRANCH   1  25
ATOM     25  O   UNL     1      31.884 -22.426 -17.440  0.00  0.00    -0.382 OA
ATOM     26  H   UNL     1      30.935 -22.558 -17.290  0.00  0.00    +0.211 HD
ENDBRANCH   1  25
TORSDOF 5
ENDMDL
MODEL 3
REMARK VINA RESULT:      -8.8      2.015      4.315
REMARK  Name = 441074
REMARK  5 active torsions:
REMARK  status: ('A' for Active; 'I' for Inactive)
REMARK    1  A    between atoms: C_1  and  C_3
REMARK    2  A    between atoms: C_1  and  C_16
REMARK    3  A    between atoms: C_1  and  O_25
REMARK    4  A    between atoms: C_10  and  O_12
REMARK    5  A    between atoms: C_18  and  C_23
REMARK                            x       y       z     vdW  Elec       q    Type
REMARK                         _______ _______ _______ _____ _____    ______ ____
ROOT
ATOM      1  C   UNL     1      35.976 -23.291 -15.452  0.00  0.00    +0.114 C 
ENDROOT
BRANCH   1   3
ATOM      2  N   UNL     1      32.335 -22.875 -17.660  0.00  0.00    -0.248 NA
ATOM      3  C   UNL     1      34.712 -23.125 -16.258  0.00  0.00    +0.001 C 
ATOM      4  C   UNL     1      34.708 -22.487 -17.499  0.00  0.00    -0.002 C 
ATOM      5  C   UNL     1      33.547 -23.637 -15.716  0.00  0.00    +0.018 C 
ATOM      6  C   UNL     1      33.475 -22.382 -18.178  0.00  0.00    +0.060 C 
ATOM      7  C   UNL     1      35.880 -21.961 -18.068  0.00  0.00    +0.091 C 
ATOM      8  C   UNL     1      32.392 -23.486 -16.454  0.00  0.00    +0.098 C 
ATOM      9  C   UNL     1      33.464 -21.747 -19.416  0.00  0.00    +0.074 C 
ATOM     10  C   UNL     1      35.838 -21.331 -19.309  0.00  0.00    +0.117 C 
ATOM     11  C   UNL     1      34.627 -21.223 -19.984  0.00  0.00    +0.013 C 
BRANCH  10  12
ATOM     12  O   UNL     1      36.974 -20.823 -19.857  0.00  0.00    -0.476 OA
ATOM     13  C   UNL     1      36.853 -19.604 -20.590  0.00  0.00    +0.252 C 
ENDBRANCH  10  12
ENDBRANCH   1   3
BRANCH   1  16
ATOM     14  N   UNL     1      36.459 -23.022 -13.007  0.00  0.00    +0.390 N 
ATOM     15  C   UNL     1      36.658 -25.576 -12.564  0.00  0.00    -0.002 C 
ATOM     16  C   UNL     1      35.687 -23.776 -14.031  0.00  0.00    -0.026 C 
ATOM     17  C   UNL     1      35.916 -25.297 -13.886  0.00  0.00    -0.018 C 
ATOM     18  C   UNL     1      38.057 -24.921 -12.626  0.00  0.00    +0.001 C 
ATOM     19  C   UNL     1      35.876 -24.875 -11.439  0.00  0.00    -0.023 C 
ATOM     20  C   UNL     1      37.883 -23.436 -13.024  0.00  0.00    -0.073 C 
ATOM     21  C   UNL     1      35.898 -23.354 -11.675  0.00  0.00    -0.077 C 
ATOM     22  H   UNL     1      36.395 -22.023 -13.202  0.00  0.00    -0.079 HD
BRANCH  18  23
ATOM     23  C   UNL     1      38.998 -25.639 -13.546  0.00  0.00    -0.029 C 
ATOM     24  C   UNL     1      39.790 -25.027 -14.432  0.00  0.00    -0.005 C 
ENDBRANCH  18  23
ENDBRANCH   1  16
BRANCH   1  25
ATOM     25  O   UNL     1      36.834 -24.224 -16.102  0.00  0.00    -0.382 OA
ATOM     26  H   UNL     1      37.616 -24.381 -15.551  0.00  0.00    +0.211 HD
ENDBRANCH   1  25
TORSDOF 5
ENDMDL
MODEL 4
REMARK VINA RESULT:      -8.4      1.460      3.592
REMARK  Name = 441074
REMARK  5 active torsions:
REMARK  status: ('A' for Active; 'I' for Inactive)
REMARK    1  A    between atoms: C_1  and  C_3
REMARK    2  A    between atoms: C_1  and  C_16
REMARK    3  A    between atoms: C_1  and  O_25
REMARK    4  A    between atoms: C_10  and  O_12
REMARK    5  A    between atoms: C_18  and  C_23
REMARK                            x       y       z     vdW  Elec       q    Type
REMARK                         _______ _______ _______ _____ _____    ______ ____
ROOT
ATOM      1  C   UNL     1      35.106 -23.379 -14.696  0.00  0.00    +0.114 C 
ENDROOT
BRANCH   1   3
ATOM      2  N   UNL     1      31.866 -23.119 -17.478  0.00  0.00    -0.248 NA
ATOM      3  C   UNL     1      33.988 -23.272 -15.703  0.00  0.00    +0.001 C 
ATOM      4  C   UNL     1      34.202 -22.781 -16.991  0.00  0.00    -0.002 C 
ATOM      5  C   UNL     1      32.732 -23.686 -15.297  0.00  0.00    +0.018 C 
ATOM      6  C   UNL     1      33.093 -22.720 -17.862  0.00  0.00    +0.060 C 
ATOM      7  C   UNL     1      35.469 -22.356 -17.424  0.00  0.00    +0.091 C 
ATOM      8  C   UNL     1      31.711 -23.589 -16.219  0.00  0.00    +0.098 C 
ATOM      9  C   UNL     1      33.298 -22.231 -19.149  0.00  0.00    +0.074 C 
ATOM     10  C   UNL     1      35.645 -21.871 -18.718  0.00  0.00    +0.117 C 
ATOM     11  C   UNL     1      34.557 -21.809 -19.581  0.00  0.00    +0.013 C 
BRANCH  10  12
ATOM     12  O   UNL     1      36.873 -21.461 -19.133  0.00  0.00    -0.476 OA
ATOM     13  C   UNL     1      36.918 -20.360 -20.041  0.00  0.00    +0.252 C 
ENDBRANCH  10  12
ENDBRANCH   1   3
BRANCH   1  16
ATOM     14  N   UNL     1      35.934 -25.693 -14.199  0.00  0.00    +0.390 N 
ATOM     15  C   UNL     1      38.445 -25.038 -14.347  0.00  0.00    -0.002 C 
ATOM     16  C   UNL     1      36.095 -24.488 -15.058  0.00  0.00    -0.026 C 
ATOM     17  C   UNL     1      37.555 -23.985 -15.036  0.00  0.00    -0.018 C 
ATOM     18  C   UNL     1      38.004 -25.182 -12.872  0.00  0.00    +0.001 C 
ATOM     19  C   UNL     1      38.180 -26.389 -15.036  0.00  0.00    -0.023 C 
ATOM     20  C   UNL     1      36.477 -25.437 -12.843  0.00  0.00    -0.073 C 
ATOM     21  C   UNL     1      36.713 -26.797 -14.809  0.00  0.00    -0.077 C 
ATOM     22  H   UNL     1      34.944 -25.928 -14.127  0.00  0.00    -0.079 HD
BRANCH  18  23
ATOM     23  C   UNL     1      38.389 -24.004 -12.029  0.00  0.00    -0.029 C 
ATOM     24  C   UNL     1      37.543 -23.033 -11.670  0.00  0.00    -0.005 C 
ENDBRANCH  18  23
ENDBRANCH   1  16
BRANCH   1  25
ATOM     25  O   UNL     1      35.799 -22.137 -14.624  0.00  0.00    -0.382 OA
ATOM     26  H   UNL     1      35.476 -21.545 -15.321  0.00  0.00    +0.211 HD
ENDBRANCH   1  25
TORSDOF 5
ENDMDL
MODEL 5
REMARK VINA RESULT:      -8.2      2.270      5.903
REMARK  Name = 441074
REMARK  5 active torsions:
REMARK  status: ('A' for Active; 'I' for Inactive)
REMARK    1  A    between atoms: C_1  and  C_3
REMARK    2  A    between atoms: C_1  and  C_16
REMARK    3  A    between atoms: C_1  and  O_25
REMARK    4  A    between atoms: C_10  and  O_12
REMARK    5  A    between atoms: C_18  and  C_23
REMARK                            x       y       z     vdW  Elec       q    Type
REMARK                         _______ _______ _______ _____ _____    ______ ____
ROOT
ATOM      1  C   UNL     1      32.552 -23.532 -16.988  0.00  0.00    +0.114 C 
ENDROOT
BRANCH   1   3
ATOM      2  N   UNL     1      36.548 -22.088 -17.487  0.00  0.00    -0.248 NA
ATOM      3  C   UNL     1      33.969 -23.035 -17.128  0.00  0.00    +0.001 C 
ATOM      4  C   UNL     1      34.909 -23.195 -16.110  0.00  0.00    -0.002 C 
ATOM      5  C   UNL     1      34.304 -22.412 -18.316  0.00  0.00    +0.018 C 
ATOM      6  C   UNL     1      36.211 -22.697 -16.335  0.00  0.00    +0.060 C 
ATOM      7  C   UNL     1      34.591 -23.826 -14.895  0.00  0.00    +0.091 C 
ATOM      8  C   UNL     1      35.600 -21.958 -18.443  0.00  0.00    +0.098 C 
ATOM      9  C   UNL     1      37.154 -22.853 -15.324  0.00  0.00    +0.074 C 
ATOM     10  C   UNL     1      35.556 -23.968 -13.901  0.00  0.00    +0.117 C 
ATOM     11  C   UNL     1      36.840 -23.480 -14.117  0.00  0.00    +0.013 C 
BRANCH  10  12
ATOM     12  O   UNL     1      35.244 -24.580 -12.728  0.00  0.00    -0.476 OA
ATOM     13  C   UNL     1      35.804 -24.025 -11.537  0.00  0.00    +0.252 C 
ENDBRANCH  10  12
ENDBRANCH   1   3
BRANCH   1  16
ATOM     14  N   UNL     1      31.516 -24.939 -15.190  0.00  0.00    +0.390 N 
ATOM     15  C   UNL     1      30.019 -23.019 -14.278  0.00  0.00    -0.002 C 
ATOM     16  C   UNL     1      32.121 -23.621 -15.523  0.00  0.00    -0.026 C 
ATOM     17  C   UNL     1      31.175 -22.464 -15.132  0.00  0.00    -0.018 C 
ATOM     18  C   UNL     1      29.187 -24.002 -15.135  0.00  0.00    +0.001 C 
ATOM     19  C   UNL     1      30.643 -23.833 -13.129  0.00  0.00    -0.023 C 
ATOM     20  C   UNL     1      30.150 -25.040 -15.759  0.00  0.00    -0.073 C 
ATOM     21  C   UNL     1      31.410 -25.032 -13.714  0.00  0.00    -0.077 C 
ATOM     22  H   UNL     1      32.097 -25.685 -15.572  0.00  0.00    -0.079 HD
BRANCH  18  23
ATOM     23  C   UNL     1      28.360 -23.311 -16.177  0.00  0.00    -0.029 C 
ATOM     24  C   UNL     1      27.407 -22.415 -15.903  0.00  0.00    -0.005 C 
ENDBRANCH  18  23
ENDBRANCH   1  16
BRANCH   1  25
ATOM     25  O   UNL     1      31.671 -22.657 -17.685  0.00  0.00    -0.382 OA
ATOM     26  H   UNL     1      30.881 -22.497 -17.146  0.00  0.00    +0.211 HD
ENDBRANCH   1  25
TORSDOF 5
ENDMDL
MODEL 6
REMARK VINA RESULT:      -8.2      2.066      3.946
REMARK  Name = 441074
REMARK  5 active torsions:
REMARK  status: ('A' for Active; 'I' for Inactive)
REMARK    1  A    between atoms: C_1  and  C_3
REMARK    2  A    between atoms: C_1  and  C_16
REMARK    3  A    between atoms: C_1  and  O_25
REMARK    4  A    between atoms: C_10  and  O_12
REMARK    5  A    between atoms: C_18  and  C_23
REMARK                            x       y       z     vdW  Elec       q    Type
REMARK                         _______ _______ _______ _____ _____    ______ ____
ROOT
ATOM      1  C   UNL     1      35.190 -24.783 -14.758  0.00  0.00    +0.114 C 
ENDROOT
BRANCH   1   3
ATOM      2  N   UNL     1      31.063 -23.677 -14.547  0.00  0.00    -0.248 NA
ATOM      3  C   UNL     1      33.738 -24.376 -14.718  0.00  0.00    +0.001 C 
ATOM      4  C   UNL     1      33.134 -23.701 -15.778  0.00  0.00    -0.002 C 
ATOM      5  C   UNL     1      33.023 -24.704 -13.581  0.00  0.00    +0.018 C 
ATOM      6  C   UNL     1      31.769 -23.364 -15.649  0.00  0.00    +0.060 C 
ATOM      7  C   UNL     1      33.842 -23.359 -16.943  0.00  0.00    +0.091 C 
ATOM      8  C   UNL     1      31.695 -24.333 -13.546  0.00  0.00    +0.098 C 
ATOM      9  C   UNL     1      31.159 -22.690 -16.703  0.00  0.00    +0.074 C 
ATOM     10  C   UNL     1      33.205 -22.685 -17.982  0.00  0.00    +0.117 C 
ATOM     11  C   UNL     1      31.861 -22.350 -17.861  0.00  0.00    +0.013 C 
BRANCH  10  12
ATOM     12  O   UNL     1      33.894 -22.356 -19.107  0.00  0.00    -0.476 OA
ATOM     13  C   UNL     1      33.572 -21.110 -19.725  0.00  0.00    +0.252 C 
ENDBRANCH  10  12
ENDBRANCH   1   3
BRANCH   1  16
ATOM     14  N   UNL     1      36.817 -23.309 -13.547  0.00  0.00    +0.390 N 
ATOM     15  C   UNL     1      38.038 -25.284 -12.378  0.00  0.00    -0.002 C 
ATOM     16  C   UNL     1      35.903 -24.478 -13.440  0.00  0.00    -0.026 C 
ATOM     17  C   UNL     1      36.651 -25.715 -12.893  0.00  0.00    -0.018 C 
ATOM     18  C   UNL     1      38.872 -24.751 -13.567  0.00  0.00    +0.001 C 
ATOM     19  C   UNL     1      37.826 -24.107 -11.408  0.00  0.00    -0.023 C 
ATOM     20  C   UNL     1      38.039 -23.675 -14.303  0.00  0.00    -0.073 C 
ATOM     21  C   UNL     1      37.222 -22.918 -12.175  0.00  0.00    -0.077 C 
ATOM     22  H   UNL     1      36.338 -22.547 -14.028  0.00  0.00    -0.079 HD
BRANCH  18  23
ATOM     23  C   UNL     1      39.325 -25.838 -14.495  0.00  0.00    -0.029 C 
ATOM     24  C   UNL     1      40.600 -26.212 -14.644  0.00  0.00    -0.005 C 
ENDBRANCH  18  23
ENDBRANCH   1  16
BRANCH   1  25
ATOM     25  O   UNL     1      35.285 -26.177 -15.032  0.00  0.00    -0.382 OA
ATOM     26  H   UNL     1      35.066 -26.680 -14.233  0.00  0.00    +0.211 HD
ENDBRANCH   1  25
TORSDOF 5
ENDMDL
MODEL 7
REMARK VINA RESULT:      -8.2      1.229      1.955
REMARK  Name = 441074
REMARK  5 active torsions:
REMARK  status: ('A' for Active; 'I' for Inactive)
REMARK    1  A    between atoms: C_1  and  C_3
REMARK    2  A    between atoms: C_1  and  C_16
REMARK    3  A    between atoms: C_1  and  O_25
REMARK    4  A    between atoms: C_10  and  O_12
REMARK    5  A    between atoms: C_18  and  C_23
REMARK                            x       y       z     vdW  Elec       q    Type
REMARK                         _______ _______ _______ _____ _____    ______ ____
ROOT
ATOM      1  C   UNL     1      36.871 -22.919 -15.296  0.00  0.00    +0.114 C 
ENDROOT
BRANCH   1   3
ATOM      2  N   UNL     1      33.981 -22.392 -18.405  0.00  0.00    -0.248 NA
ATOM      3  C   UNL     1      35.825 -22.747 -16.368  0.00  0.00    +0.001 C 
ATOM      4  C   UNL     1      34.485 -23.066 -16.148  0.00  0.00    -0.002 C 
ATOM      5  C   UNL     1      36.248 -22.254 -17.589  0.00  0.00    +0.018 C 
ATOM      6  C   UNL     1      33.580 -22.869 -17.212  0.00  0.00    +0.060 C 
ATOM      7  C   UNL     1      34.033 -23.567 -14.915  0.00  0.00    +0.091 C 
ATOM      8  C   UNL     1      35.291 -22.097 -18.569  0.00  0.00    +0.098 C 
ATOM      9  C   UNL     1      32.241 -23.186 -17.000  0.00  0.00    +0.074 C 
ATOM     10  C   UNL     1      32.687 -23.874 -14.730  0.00  0.00    +0.117 C 
ATOM     11  C   UNL     1      31.790 -23.683 -15.776  0.00  0.00    +0.013 C 
BRANCH  10  12
ATOM     12  O   UNL     1      32.254 -24.359 -13.536  0.00  0.00    -0.476 OA
ATOM     13  C   UNL     1      30.871 -24.698 -13.436  0.00  0.00    +0.252 C 
ENDBRANCH  10  12
ENDBRANCH   1   3
BRANCH   1  16
ATOM     14  N   UNL     1      36.969 -23.910 -12.995  0.00  0.00    +0.390 N 
ATOM     15  C   UNL     1      37.906 -26.195 -13.806  0.00  0.00    -0.002 C 
ATOM     16  C   UNL     1      36.591 -24.138 -14.416  0.00  0.00    -0.026 C 
ATOM     17  C   UNL     1      37.267 -25.412 -14.970  0.00  0.00    -0.018 C 
ATOM     18  C   UNL     1      39.028 -25.335 -13.178  0.00  0.00    +0.001 C 
ATOM     19  C   UNL     1      36.823 -26.388 -12.729  0.00  0.00    -0.023 C 
ATOM     20  C   UNL     1      38.443 -23.943 -12.840  0.00  0.00    -0.073 C 
ATOM     21  C   UNL     1      36.394 -25.013 -12.187  0.00  0.00    -0.077 C 
ATOM     22  H   UNL     1      36.618 -23.001 -12.693  0.00  0.00    -0.079 HD
BRANCH  18  23
ATOM     23  C   UNL     1      40.243 -25.233 -14.050  0.00  0.00    -0.029 C 
ATOM     24  C   UNL     1      40.724 -26.242 -14.785  0.00  0.00    -0.005 C 
ENDBRANCH  18  23
ENDBRANCH   1  16
BRANCH   1  25
ATOM     25  O   UNL     1      38.153 -23.060 -15.901  0.00  0.00    -0.382 OA
ATOM     26  H   UNL     1      38.368 -22.253 -16.394  0.00  0.00    +0.211 HD
ENDBRANCH   1  25
TORSDOF 5
ENDMDL
MODEL 8
REMARK VINA RESULT:      -7.9     13.809     17.079
REMARK  Name = 441074
REMARK  5 active torsions:
REMARK  status: ('A' for Active; 'I' for Inactive)
REMARK    1  A    between atoms: C_1  and  C_3
REMARK    2  A    between atoms: C_1  and  C_16
REMARK    3  A    between atoms: C_1  and  O_25
REMARK    4  A    between atoms: C_10  and  O_12
REMARK    5  A    between atoms: C_18  and  C_23
REMARK                            x       y       z     vdW  Elec       q    Type
REMARK                         _______ _______ _______ _____ _____    ______ ____
ROOT
ATOM      1  C   UNL     1      31.959  -9.742 -23.111  0.00  0.00    +0.114 C 
ENDROOT
BRANCH   1   3
ATOM      2  N   UNL     1      31.854 -12.662 -19.986  0.00  0.00    -0.248 NA
ATOM      3  C   UNL     1      31.933 -10.798 -22.035  0.00  0.00    +0.001 C 
ATOM      4  C   UNL     1      32.290 -12.122 -22.294  0.00  0.00    -0.002 C 
ATOM      5  C   UNL     1      31.541 -10.401 -20.770  0.00  0.00    +0.018 C 
ATOM      6  C   UNL     1      32.235 -13.038 -21.221  0.00  0.00    +0.060 C 
ATOM      7  C   UNL     1      32.691 -12.548 -23.572  0.00  0.00    +0.091 C 
ATOM      8  C   UNL     1      31.519 -11.367 -19.786  0.00  0.00    +0.098 C 
ATOM      9  C   UNL     1      32.589 -14.360 -21.472  0.00  0.00    +0.074 C 
ATOM     10  C   UNL     1      33.041 -13.878 -23.793  0.00  0.00    +0.117 C 
ATOM     11  C   UNL     1      32.989 -14.785 -22.741  0.00  0.00    +0.013 C 
BRANCH  10  12
ATOM     12  O   UNL     1      33.429 -14.285 -25.031  0.00  0.00    -0.476 OA
ATOM     13  C   UNL     1      33.742 -15.669 -25.190  0.00  0.00    +0.252 C 
ENDBRANCH  10  12
ENDBRANCH   1   3
BRANCH   1  16
ATOM     14  N   UNL     1      30.856  -7.511 -23.410  0.00  0.00    +0.390 N 
ATOM     15  C   UNL     1      32.966  -6.156 -22.725  0.00  0.00    -0.002 C 
ATOM     16  C   UNL     1      31.732  -8.341 -22.541  0.00  0.00    -0.026 C 
ATOM     17  C   UNL     1      33.066  -7.618 -22.249  0.00  0.00    -0.018 C 
ATOM     18  C   UNL     1      32.779  -6.139 -24.260  0.00  0.00    +0.001 C 
ATOM     19  C   UNL     1      31.692  -5.554 -22.105  0.00  0.00    -0.023 C 
ATOM     20  C   UNL     1      31.594  -7.068 -24.617  0.00  0.00    -0.073 C 
ATOM     21  C   UNL     1      30.461  -6.305 -22.642  0.00  0.00    -0.077 C 
ATOM     22  H   UNL     1      30.043  -8.058 -23.693  0.00  0.00    -0.079 HD
BRANCH  18  23
ATOM     23  C   UNL     1      34.026  -6.514 -25.004  0.00  0.00    -0.029 C 
ATOM     24  C   UNL     1      34.536  -5.804 -26.016  0.00  0.00    -0.005 C 
ENDBRANCH  18  23
ENDBRANCH   1  16
BRANCH   1  25
ATOM     25  O   UNL     1      33.214  -9.779 -23.782  0.00  0.00    -0.382 OA
ATOM     26  H   UNL     1      33.849 -10.287 -23.253  0.00  0.00    +0.211 HD
ENDBRANCH   1  25
TORSDOF 5
ENDMDL
MODEL 9
REMARK VINA RESULT:      -7.7     13.049     16.175
REMARK  Name = 441074
REMARK  5 active torsions:
REMARK  status: ('A' for Active; 'I' for Inactive)
REMARK    1  A    between atoms: C_1  and  C_3
REMARK    2  A    between atoms: C_1  and  C_16
REMARK    3  A    between atoms: C_1  and  O_25
REMARK    4  A    between atoms: C_10  and  O_12
REMARK    5  A    between atoms: C_18  and  C_23
REMARK                            x       y       z     vdW  Elec       q    Type
REMARK                         _______ _______ _______ _____ _____    ______ ____
ROOT
ATOM      1  C   UNL     1      33.228 -10.531 -23.298  0.00  0.00    +0.114 C 
ENDROOT
BRANCH   1   3
ATOM      2  N   UNL     1      33.664 -13.628 -26.217  0.00  0.00    -0.248 NA
ATOM      3  C   UNL     1      33.383 -11.649 -24.299  0.00  0.00    +0.001 C 
ATOM      4  C   UNL     1      33.463 -12.985 -23.904  0.00  0.00    -0.002 C 
ATOM      5  C   UNL     1      33.441 -11.296 -25.634  0.00  0.00    +0.018 C 
ATOM      6  C   UNL     1      33.606 -13.959 -24.914  0.00  0.00    +0.060 C 
ATOM      7  C   UNL     1      33.406 -13.366 -22.552  0.00  0.00    +0.091 C 
ATOM      8  C   UNL     1      33.581 -12.319 -26.549  0.00  0.00    +0.098 C 
ATOM      9  C   UNL     1      33.687 -15.295 -24.528  0.00  0.00    +0.074 C 
ATOM     10  C   UNL     1      33.489 -14.709 -22.195  0.00  0.00    +0.117 C 
ATOM     11  C   UNL     1      33.630 -15.675 -23.186  0.00  0.00    +0.013 C 
BRANCH  10  12
ATOM     12  O   UNL     1      33.433 -15.073 -20.887  0.00  0.00    -0.476 OA
ATOM     13  C   UNL     1      34.600 -15.682 -20.332  0.00  0.00    +0.252 C 
ENDBRANCH  10  12
ENDBRANCH   1   3
BRANCH   1  16
ATOM     14  N   UNL     1      34.341  -8.297 -23.531  0.00  0.00    +0.390 N 
ATOM     15  C   UNL     1      32.114  -6.959 -23.442  0.00  0.00    -0.002 C 
ATOM     16  C   UNL     1      33.213  -9.159 -23.974  0.00  0.00    -0.026 C 
ATOM     17  C   UNL     1      31.859  -8.440 -23.781  0.00  0.00    -0.018 C 
ATOM     18  C   UNL     1      32.857  -6.874 -22.088  0.00  0.00    +0.001 C 
ATOM     19  C   UNL     1      33.061  -6.395 -24.517  0.00  0.00    -0.023 C 
ATOM     20  C   UNL     1      34.100  -7.795 -22.156  0.00  0.00    -0.073 C 
ATOM     21  C   UNL     1      34.410  -7.130 -24.443  0.00  0.00    -0.077 C 
ATOM     22  H   UNL     1      35.207  -8.836 -23.545  0.00  0.00    -0.079 HD
BRANCH  18  23
ATOM     23  C   UNL     1      31.980  -7.206 -20.919  0.00  0.00    -0.029 C 
ATOM     24  C   UNL     1      32.200  -8.227 -20.084  0.00  0.00    -0.005 C 
ENDBRANCH  18  23
ENDBRANCH   1  16
BRANCH   1  25
ATOM     25  O   UNL     1      32.018 -10.710 -22.570  0.00  0.00    -0.382 OA
ATOM     26  H   UNL     1      32.224 -10.957 -21.655  0.00  0.00    +0.211 HD
ENDBRANCH   1  25
TORSDOF 5
ENDMDL
