MODEL 1
REMARK VINA RESULT:     -11.0      0.000      0.000
REMARK  Name = 71059746
REMARK  1 active torsions:
REMARK  status: ('A' for Active; 'I' for Inactive)
REMARK    1  A    between atoms: C_8  and  C_17
REMARK                            x       y       z     vdW  Elec       q    Type
REMARK                         _______ _______ _______ _____ _____    ______ ____
ROOT
ATOM      1  N   UNL     1      32.943 -21.688 -19.352  0.00  0.00    -0.353 N 
ATOM      2  N   UNL     1      35.186 -23.472 -16.416  0.00  0.00    -0.242 NA
ATOM      3  C   UNL     1      35.102 -21.135 -19.393  0.00  0.00    +0.018 A 
ATOM      4  C   UNL     1      33.874 -20.933 -20.024  0.00  0.00    +0.057 A 
ATOM      5  C   UNL     1      34.881 -22.045 -18.311  0.00  0.00    +0.036 A 
ATOM      6  C   UNL     1      33.526 -22.372 -18.312  0.00  0.00    +0.060 A 
ATOM      7  C   UNL     1      33.723 -20.092 -21.133  0.00  0.00    +0.017 C 
ATOM      8  C   UNL     1      34.861 -19.439 -21.612  0.00  0.00    +0.003 C 
ATOM      9  C   UNL     1      36.237 -20.464 -19.895  0.00  0.00    +0.002 C 
ATOM     10  C   UNL     1      36.101 -19.621 -21.003  0.00  0.00    +0.000 C 
ATOM     11  C   UNL     1      35.702 -22.621 -17.334  0.00  0.00    +0.100 C 
ATOM     12  C   UNL     1      32.966 -23.243 -17.382  0.00  0.00    +0.038 C 
ATOM     13  C   UNL     1      33.864 -23.757 -16.460  0.00  0.00    +0.100 C 
ATOM     14  H   UNL     1      31.987 -21.734 -19.585  0.00  0.00    +0.166 HD
ENDROOT
BRANCH   8  17
ATOM     15  F   UNL     1      34.447 -15.988 -25.898  0.00  0.00    -0.183 F 
ATOM     16  N   UNL     1      34.712 -16.307 -23.633  0.00  0.00    -0.216 NA
ATOM     17  C   UNL     1      34.749 -18.560 -22.756  0.00  0.00    +0.019 C 
ATOM     18  C   UNL     1      34.577 -19.069 -24.039  0.00  0.00    +0.005 C 
ATOM     19  C   UNL     1      34.810 -17.184 -22.608  0.00  0.00    +0.101 C 
ATOM     20  C   UNL     1      34.472 -18.199 -25.118  0.00  0.00    +0.050 C 
ATOM     21  C   UNL     1      34.546 -16.840 -24.865  0.00  0.00    +0.222 C 
ENDBRANCH   8  17
TORSDOF 1
ENDMDL
MODEL 2
REMARK VINA RESULT:     -10.7      1.107      1.945
REMARK  Name = 71059746
REMARK  1 active torsions:
REMARK  status: ('A' for Active; 'I' for Inactive)
REMARK    1  A    between atoms: C_8  and  C_17
REMARK                            x       y       z     vdW  Elec       q    Type
REMARK                         _______ _______ _______ _____ _____    ______ ____
ROOT
ATOM      1  N   UNL     1      36.852 -20.924 -18.825  0.00  0.00    -0.353 N 
ATOM      2  N   UNL     1      34.971 -23.471 -16.216  0.00  0.00    -0.242 NA
ATOM      3  C   UNL     1      34.687 -21.233 -19.256  0.00  0.00    +0.018 A 
ATOM      4  C   UNL     1      35.838 -20.568 -19.680  0.00  0.00    +0.057 A 
ATOM      5  C   UNL     1      35.042 -22.007 -18.106  0.00  0.00    +0.036 A 
ATOM      6  C   UNL     1      36.397 -21.793 -17.861  0.00  0.00    +0.060 A 
ATOM      7  C   UNL     1      35.852 -19.715 -20.791  0.00  0.00    +0.017 C 
ATOM      8  C   UNL     1      34.654 -19.536 -21.487  0.00  0.00    +0.003 C 
ATOM      9  C   UNL     1      33.489 -21.036 -19.976  0.00  0.00    +0.002 C 
ATOM     10  C   UNL     1      33.489 -20.186 -21.087  0.00  0.00    +0.000 C 
ATOM     11  C   UNL     1      34.341 -22.866 -17.251  0.00  0.00    +0.100 C 
ATOM     12  C   UNL     1      37.072 -22.400 -16.806  0.00  0.00    +0.038 C 
ATOM     13  C   UNL     1      36.288 -23.230 -16.022  0.00  0.00    +0.100 C 
ATOM     14  H   UNL     1      37.780 -20.599 -18.891  0.00  0.00    +0.166 HD
ENDROOT
BRANCH   8  17
ATOM     15  F   UNL     1      34.553 -16.111 -25.812  0.00  0.00    -0.183 F 
ATOM     16  N   UNL     1      34.633 -16.416 -23.531  0.00  0.00    -0.216 NA
ATOM     17  C   UNL     1      34.626 -18.664 -22.641  0.00  0.00    +0.019 C 
ATOM     18  C   UNL     1      34.567 -19.181 -23.931  0.00  0.00    +0.005 C 
ATOM     19  C   UNL     1      34.657 -17.287 -22.497  0.00  0.00    +0.101 C 
ATOM     20  C   UNL     1      34.542 -18.318 -25.020  0.00  0.00    +0.050 C 
ATOM     21  C   UNL     1      34.577 -16.956 -24.769  0.00  0.00    +0.222 C 
ENDBRANCH   8  17
TORSDOF 1
ENDMDL
MODEL 3
REMARK VINA RESULT:     -10.5      3.108      8.060
REMARK  Name = 71059746
REMARK  1 active torsions:
REMARK  status: ('A' for Active; 'I' for Inactive)
REMARK    1  A    between atoms: C_8  and  C_17
REMARK                            x       y       z     vdW  Elec       q    Type
REMARK                         _______ _______ _______ _____ _____    ______ ____
ROOT
ATOM      1  N   UNL     1      34.294 -14.948 -22.553  0.00  0.00    -0.353 N 
ATOM      2  N   UNL     1      33.339 -13.989 -26.427  0.00  0.00    -0.242 NA
ATOM      3  C   UNL     1      34.265 -16.691 -23.942  0.00  0.00    +0.018 A 
ATOM      4  C   UNL     1      34.485 -16.307 -22.619  0.00  0.00    +0.057 A 
ATOM      5  C   UNL     1      33.934 -15.511 -24.679  0.00  0.00    +0.036 A 
ATOM      6  C   UNL     1      33.959 -14.440 -23.787  0.00  0.00    +0.060 A 
ATOM      7  C   UNL     1      34.833 -17.218 -21.615  0.00  0.00    +0.017 C 
ATOM      8  C   UNL     1      34.961 -18.562 -21.974  0.00  0.00    +0.003 C 
ATOM      9  C   UNL     1      34.400 -18.055 -24.280  0.00  0.00    +0.002 C 
ATOM     10  C   UNL     1      34.748 -18.976 -23.287  0.00  0.00    +0.000 C 
ATOM     11  C   UNL     1      33.614 -15.251 -26.017  0.00  0.00    +0.100 C 
ATOM     12  C   UNL     1      33.682 -13.134 -24.177  0.00  0.00    +0.038 C 
ATOM     13  C   UNL     1      33.378 -12.986 -25.520  0.00  0.00    +0.100 C 
ATOM     14  H   UNL     1      34.385 -14.409 -21.733  0.00  0.00    +0.166 HD
ENDROOT
BRANCH   8  17
ATOM     15  F   UNL     1      36.438 -22.233 -18.128  0.00  0.00    -0.183 F 
ATOM     16  N   UNL     1      37.002 -20.479 -19.509  0.00  0.00    -0.216 NA
ATOM     17  C   UNL     1      35.318 -19.537 -20.966  0.00  0.00    +0.019 C 
ATOM     18  C   UNL     1      34.382 -20.446 -20.483  0.00  0.00    +0.005 C 
ATOM     19  C   UNL     1      36.602 -19.595 -20.451  0.00  0.00    +0.101 C 
ATOM     20  C   UNL     1      34.755 -21.370 -19.514  0.00  0.00    +0.050 C 
ATOM     21  C   UNL     1      36.065 -21.346 -19.064  0.00  0.00    +0.222 C 
ENDBRANCH   8  17
TORSDOF 1
ENDMDL
MODEL 4
REMARK VINA RESULT:     -10.4      3.173      8.280
REMARK  Name = 71059746
REMARK  1 active torsions:
REMARK  status: ('A' for Active; 'I' for Inactive)
REMARK    1  A    between atoms: C_8  and  C_17
REMARK                            x       y       z     vdW  Elec       q    Type
REMARK                         _______ _______ _______ _____ _____    ______ ____
ROOT
ATOM      1  N   UNL     1      33.886 -16.423 -25.255  0.00  0.00    -0.353 N 
ATOM      2  N   UNL     1      33.418 -12.353 -25.491  0.00  0.00    -0.242 NA
ATOM      3  C   UNL     1      34.203 -15.356 -23.323  0.00  0.00    +0.018 A 
ATOM      4  C   UNL     1      34.196 -16.612 -23.930  0.00  0.00    +0.057 A 
ATOM      5  C   UNL     1      33.882 -14.394 -24.332  0.00  0.00    +0.036 A 
ATOM      6  C   UNL     1      33.690 -15.089 -25.525  0.00  0.00    +0.060 A 
ATOM      7  C   UNL     1      34.471 -17.792 -23.229  0.00  0.00    +0.017 C 
ATOM      8  C   UNL     1      34.760 -17.685 -21.866  0.00  0.00    +0.003 C 
ATOM      9  C   UNL     1      34.498 -15.273 -21.946  0.00  0.00    +0.002 C 
ATOM     10  C   UNL     1      34.773 -16.444 -21.232  0.00  0.00    +0.000 C 
ATOM     11  C   UNL     1      33.737 -13.001 -24.345  0.00  0.00    +0.100 C 
ATOM     12  C   UNL     1      33.361 -14.451 -26.718  0.00  0.00    +0.038 C 
ATOM     13  C   UNL     1      33.242 -13.074 -26.621  0.00  0.00    +0.100 C 
ATOM     14  H   UNL     1      33.813 -17.144 -25.921  0.00  0.00    +0.166 HD
ENDROOT
BRANCH   8  17
ATOM     15  F   UNL     1      35.988 -22.210 -18.957  0.00  0.00    -0.183 F 
ATOM     16  N   UNL     1      36.685 -20.280 -20.002  0.00  0.00    -0.216 NA
ATOM     17  C   UNL     1      35.051 -18.880 -21.103  0.00  0.00    +0.019 C 
ATOM     18  C   UNL     1      34.039 -19.762 -20.737  0.00  0.00    +0.005 C 
ATOM     19  C   UNL     1      36.345 -19.182 -20.714  0.00  0.00    +0.101 C 
ATOM     20  C   UNL     1      34.349 -20.902 -20.005  0.00  0.00    +0.050 C 
ATOM     21  C   UNL     1      35.675 -21.113 -19.665  0.00  0.00    +0.222 C 
ENDBRANCH   8  17
TORSDOF 1
ENDMDL
MODEL 5
REMARK VINA RESULT:     -10.2      4.381      8.785
REMARK  Name = 71059746
REMARK  1 active torsions:
REMARK  status: ('A' for Active; 'I' for Inactive)
REMARK    1  A    between atoms: C_8  and  C_17
REMARK                            x       y       z     vdW  Elec       q    Type
REMARK                         _______ _______ _______ _____ _____    ______ ____
ROOT
ATOM      1  N   UNL     1      34.278 -13.291 -23.593  0.00  0.00    -0.353 N 
ATOM      2  N   UNL     1      31.702 -10.212 -22.743  0.00  0.00    -0.242 NA
ATOM      3  C   UNL     1      32.858 -13.724 -21.929  0.00  0.00    +0.018 A 
ATOM      4  C   UNL     1      33.906 -14.252 -22.683  0.00  0.00    +0.057 A 
ATOM      5  C   UNL     1      32.605 -12.403 -22.417  0.00  0.00    +0.036 A 
ATOM      6  C   UNL     1      33.505 -12.162 -23.454  0.00  0.00    +0.060 A 
ATOM      7  C   UNL     1      34.416 -15.539 -22.472  0.00  0.00    +0.017 C 
ATOM      8  C   UNL     1      33.836 -16.309 -21.461  0.00  0.00    +0.003 C 
ATOM      9  C   UNL     1      32.290 -14.521 -20.912  0.00  0.00    +0.002 C 
ATOM     10  C   UNL     1      32.789 -15.809 -20.691  0.00  0.00    +0.000 C 
ATOM     11  C   UNL     1      31.699 -11.392 -22.077  0.00  0.00    +0.100 C 
ATOM     12  C   UNL     1      33.533 -10.961 -24.156  0.00  0.00    +0.038 C 
ATOM     13  C   UNL     1      32.597 -10.029 -23.741  0.00  0.00    +0.100 C 
ATOM     14  H   UNL     1      34.999 -13.397 -24.255  0.00  0.00    +0.166 HD
ENDROOT
BRANCH   8  17
ATOM     15  F   UNL     1      35.851 -21.355 -20.500  0.00  0.00    -0.183 F 
ATOM     16  N   UNL     1      36.224 -19.111 -20.858  0.00  0.00    -0.216 NA
ATOM     17  C   UNL     1      34.335 -17.644 -21.209  0.00  0.00    +0.019 C 
ATOM     18  C   UNL     1      33.465 -18.721 -21.075  0.00  0.00    +0.005 C 
ATOM     19  C   UNL     1      35.692 -17.890 -21.092  0.00  0.00    +0.101 C 
ATOM     20  C   UNL     1      33.973 -19.992 -20.833  0.00  0.00    +0.050 C 
ATOM     21  C   UNL     1      35.347 -20.133 -20.733  0.00  0.00    +0.222 C 
ENDBRANCH   8  17
TORSDOF 1
ENDMDL
MODEL 6
REMARK VINA RESULT:     -10.2      3.908      8.239
REMARK  Name = 71059746
REMARK  1 active torsions:
REMARK  status: ('A' for Active; 'I' for Inactive)
REMARK    1  A    between atoms: C_8  and  C_17
REMARK                            x       y       z     vdW  Elec       q    Type
REMARK                         _______ _______ _______ _____ _____    ______ ____
ROOT
ATOM      1  N   UNL     1      32.438 -14.078 -21.242  0.00  0.00    -0.353 N 
ATOM      2  N   UNL     1      33.231 -11.213 -24.071  0.00  0.00    -0.242 NA
ATOM      3  C   UNL     1      33.950 -14.692 -22.762  0.00  0.00    +0.018 A 
ATOM      4  C   UNL     1      33.262 -15.111 -21.623  0.00  0.00    +0.057 A 
ATOM      5  C   UNL     1      33.514 -13.362 -23.058  0.00  0.00    +0.036 A 
ATOM      6  C   UNL     1      32.572 -13.007 -22.094  0.00  0.00    +0.060 A 
ATOM      7  C   UNL     1      33.447 -16.374 -21.049  0.00  0.00    +0.017 C 
ATOM      8  C   UNL     1      34.364 -17.235 -21.658  0.00  0.00    +0.003 C 
ATOM      9  C   UNL     1      34.871 -15.579 -23.359  0.00  0.00    +0.002 C 
ATOM     10  C   UNL     1      35.066 -16.845 -22.796  0.00  0.00    +0.000 C 
ATOM     11  C   UNL     1      33.829 -12.428 -24.053  0.00  0.00    +0.100 C 
ATOM     12  C   UNL     1      31.940 -11.767 -22.086  0.00  0.00    +0.038 C 
ATOM     13  C   UNL     1      32.323 -10.919 -23.111  0.00  0.00    +0.100 C 
ATOM     14  H   UNL     1      31.835 -14.102 -20.464  0.00  0.00    +0.166 HD
ENDROOT
BRANCH   8  17
ATOM     15  F   UNL     1      35.327 -22.232 -19.523  0.00  0.00    -0.183 F 
ATOM     16  N   UNL     1      36.141 -20.229 -20.319  0.00  0.00    -0.216 NA
ATOM     17  C   UNL     1      34.584 -18.552 -21.098  0.00  0.00    +0.019 C 
ATOM     18  C   UNL     1      33.518 -19.393 -20.800  0.00  0.00    +0.005 C 
ATOM     19  C   UNL     1      35.864 -19.013 -20.841  0.00  0.00    +0.101 C 
ATOM     20  C   UNL     1      33.761 -20.651 -20.262  0.00  0.00    +0.050 C 
ATOM     21  C   UNL     1      35.078 -21.019 -20.042  0.00  0.00    +0.222 C 
ENDBRANCH   8  17
TORSDOF 1
ENDMDL
MODEL 7
REMARK VINA RESULT:     -10.2      6.885      8.401
REMARK  Name = 71059746
REMARK  1 active torsions:
REMARK  status: ('A' for Active; 'I' for Inactive)
REMARK    1  A    between atoms: C_8  and  C_17
REMARK                            x       y       z     vdW  Elec       q    Type
REMARK                         _______ _______ _______ _____ _____    ______ ____
ROOT
ATOM      1  N   UNL     1      35.072 -24.953 -13.087  0.00  0.00    -0.353 N 
ATOM      2  N   UNL     1      38.965 -24.491 -14.300  0.00  0.00    -0.242 NA
ATOM      3  C   UNL     1      35.297 -23.966 -15.074  0.00  0.00    +0.018 A 
ATOM      4  C   UNL     1      34.366 -24.405 -14.131  0.00  0.00    +0.057 A 
ATOM      5  C   UNL     1      36.598 -24.271 -14.563  0.00  0.00    +0.036 A 
ATOM      6  C   UNL     1      36.425 -24.886 -13.323  0.00  0.00    +0.060 A 
ATOM      7  C   UNL     1      32.985 -24.264 -14.309  0.00  0.00    +0.017 C 
ATOM      8  C   UNL     1      32.541 -23.658 -15.487  0.00  0.00    +0.003 C 
ATOM      9  C   UNL     1      34.824 -23.356 -16.255  0.00  0.00    +0.002 C 
ATOM     10  C   UNL     1      33.446 -23.210 -16.447  0.00  0.00    +0.000 C 
ATOM     11  C   UNL     1      37.902 -24.083 -15.034  0.00  0.00    +0.100 C 
ATOM     12  C   UNL     1      37.497 -25.316 -12.546  0.00  0.00    +0.038 C 
ATOM     13  C   UNL     1      38.743 -25.083 -13.104  0.00  0.00    +0.100 C 
ATOM     14  H   UNL     1      34.665 -25.343 -12.280  0.00  0.00    +0.166 HD
ENDROOT
BRANCH   8  17
ATOM     15  F   UNL     1      27.151 -22.944 -16.431  0.00  0.00    -0.183 F 
ATOM     16  N   UNL     1      29.335 -22.410 -16.930  0.00  0.00    -0.216 NA
ATOM     17  C   UNL     1      31.121 -23.492 -15.711  0.00  0.00    +0.019 C 
ATOM     18  C   UNL     1      30.189 -24.212 -14.971  0.00  0.00    +0.005 C 
ATOM     19  C   UNL     1      30.647 -22.612 -16.670  0.00  0.00    +0.101 C 
ATOM     20  C   UNL     1      28.831 -24.032 -15.209  0.00  0.00    +0.050 C 
ATOM     21  C   UNL     1      28.459 -23.128 -16.190  0.00  0.00    +0.222 C 
ENDBRANCH   8  17
TORSDOF 1
ENDMDL
MODEL 8
REMARK VINA RESULT:     -10.1      6.251     10.703
REMARK  Name = 71059746
REMARK  1 active torsions:
REMARK  status: ('A' for Active; 'I' for Inactive)
REMARK    1  A    between atoms: C_8  and  C_17
REMARK                            x       y       z     vdW  Elec       q    Type
REMARK                         _______ _______ _______ _____ _____    ______ ____
ROOT
ATOM      1  N   UNL     1      34.123  -9.730 -24.131  0.00  0.00    -0.353 N 
ATOM      2  N   UNL     1      31.812  -7.255 -21.814  0.00  0.00    -0.242 NA
ATOM      3  C   UNL     1      32.628 -10.798 -22.868  0.00  0.00    +0.018 A 
ATOM      4  C   UNL     1      33.644 -10.976 -23.808  0.00  0.00    +0.057 A 
ATOM      5  C   UNL     1      32.507  -9.392 -22.634  0.00  0.00    +0.036 A 
ATOM      6  C   UNL     1      33.452  -8.752 -23.435  0.00  0.00    +0.060 A 
ATOM      7  C   UNL     1      34.032 -12.239 -24.272  0.00  0.00    +0.017 C 
ATOM      8  C   UNL     1      33.359 -13.353 -23.761  0.00  0.00    +0.003 C 
ATOM      9  C   UNL     1      31.964 -11.938 -22.367  0.00  0.00    +0.002 C 
ATOM     10  C   UNL     1      32.341 -13.206 -22.823  0.00  0.00    +0.000 C 
ATOM     11  C   UNL     1      31.686  -8.604 -21.819  0.00  0.00    +0.100 C 
ATOM     12  C   UNL     1      33.605  -7.369 -23.452  0.00  0.00    +0.038 C 
ATOM     13  C   UNL     1      32.744  -6.684 -22.610  0.00  0.00    +0.100 C 
ATOM     14  H   UNL     1      34.849  -9.559 -24.775  0.00  0.00    +0.166 HD
ENDROOT
BRANCH   8  17
ATOM     15  F   UNL     1      34.717 -18.376 -25.598  0.00  0.00    -0.183 F 
ATOM     16  N   UNL     1      33.707 -16.340 -25.969  0.00  0.00    -0.216 NA
ATOM     17  C   UNL     1      33.729 -14.677 -24.214  0.00  0.00    +0.019 C 
ATOM     18  C   UNL     1      34.435 -15.546 -23.389  0.00  0.00    +0.005 C 
ATOM     19  C   UNL     1      33.393 -15.118 -25.483  0.00  0.00    +0.101 C 
ATOM     20  C   UNL     1      34.777 -16.811 -23.852  0.00  0.00    +0.050 C 
ATOM     21  C   UNL     1      34.393 -17.157 -25.138  0.00  0.00    +0.222 C 
ENDBRANCH   8  17
TORSDOF 1
ENDMDL
MODEL 9
REMARK VINA RESULT:      -9.6      1.829      3.202
REMARK  Name = 71059746
REMARK  1 active torsions:
REMARK  status: ('A' for Active; 'I' for Inactive)
REMARK    1  A    between atoms: C_8  and  C_17
REMARK                            x       y       z     vdW  Elec       q    Type
REMARK                         _______ _______ _______ _____ _____    ______ ____
ROOT
ATOM      1  N   UNL     1      37.222 -22.130 -16.942  0.00  0.00    -0.353 N 
ATOM      2  N   UNL     1      35.116 -24.680 -14.513  0.00  0.00    -0.242 NA
ATOM      3  C   UNL     1      35.114 -22.467 -17.585  0.00  0.00    +0.018 A 
ATOM      4  C   UNL     1      36.295 -21.793 -17.898  0.00  0.00    +0.057 A 
ATOM      5  C   UNL     1      35.361 -23.228 -16.399  0.00  0.00    +0.036 A 
ATOM      6  C   UNL     1      36.683 -22.998 -16.022  0.00  0.00    +0.060 A 
ATOM      7  C   UNL     1      36.411 -20.948 -19.008  0.00  0.00    +0.017 C 
ATOM      8  C   UNL     1      35.287 -20.787 -19.822  0.00  0.00    +0.003 C 
ATOM      9  C   UNL     1      33.993 -22.290 -18.423  0.00  0.00    +0.002 C 
ATOM     10  C   UNL     1      34.095 -21.448 -19.535  0.00  0.00    +0.000 C 
ATOM     11  C   UNL     1      34.587 -24.090 -15.611  0.00  0.00    +0.100 C 
ATOM     12  C   UNL     1      37.255 -23.589 -14.899  0.00  0.00    +0.038 C 
ATOM     13  C   UNL     1      36.405 -24.422 -14.191  0.00  0.00    +0.100 C 
ATOM     14  H   UNL     1      38.148 -21.795 -16.918  0.00  0.00    +0.166 HD
ENDROOT
BRANCH   8  17
ATOM     15  F   UNL     1      35.473 -17.537 -24.278  0.00  0.00    -0.183 F 
ATOM     16  N   UNL     1      34.374 -19.140 -23.042  0.00  0.00    -0.216 NA
ATOM     17  C   UNL     1      35.365 -19.923 -20.981  0.00  0.00    +0.019 C 
ATOM     18  C   UNL     1      36.446 -19.069 -21.168  0.00  0.00    +0.005 C 
ATOM     19  C   UNL     1      34.364 -19.921 -21.939  0.00  0.00    +0.101 C 
ATOM     20  C   UNL     1      36.492 -18.250 -22.290  0.00  0.00    +0.050 C 
ATOM     21  C   UNL     1      35.441 -18.323 -23.189  0.00  0.00    +0.222 C 
ENDBRANCH   8  17
TORSDOF 1
ENDMDL
