MODEL 1
REMARK VINA RESULT:      -6.3      0.000      0.000
REMARK  Name = 90008
REMARK  10 active torsions:
REMARK  status: ('A' for Active; 'I' for Inactive)
REMARK    1  A    between atoms: C_1  and  O_2
REMARK    2  A    between atoms: C_1  and  C_4
REMARK    3  A    between atoms: C_1  and  C_10
REMARK    4  A    between atoms: C_4  and  O_5
REMARK    5  A    between atoms: C_4  and  C_7
REMARK    6  A    between atoms: C_7  and  O_8
REMARK    7  A    between atoms: C_10  and  O_11
REMARK    8  A    between atoms: C_10  and  C_14
REMARK    9  A    between atoms: C_14  and  C_15
REMARK   10  A    between atoms: C_15  and  O_16
REMARK                            x       y       z     vdW  Elec       q    Type
REMARK                         _______ _______ _______ _____ _____    ______ ____
ROOT
ATOM      1  C   UNL     1      37.879 -24.423 -12.504  0.00  0.00    +0.174 C 
ENDROOT
BRANCH   1   2
ATOM      2  O   UNL     1      37.824 -25.631 -11.750  0.00  0.00    -0.379 OA
ATOM      3  H   UNL     1      38.170 -25.471 -10.858  0.00  0.00    +0.211 HD
ENDBRANCH   1   2
BRANCH   1   4
ATOM      4  C   UNL     1      36.799 -23.445 -12.005  0.00  0.00    +0.169 C 
BRANCH   4   5
ATOM      5  O   UNL     1      37.400 -22.415 -11.220  0.00  0.00    -0.379 OA
ATOM      6  H   UNL     1      37.911 -21.826 -11.798  0.00  0.00    +0.211 HD
ENDBRANCH   4   5
BRANCH   4   7
ATOM      7  C   UNL     1      35.752 -24.147 -11.140  0.00  0.00    +0.169 C 
BRANCH   7   8
ATOM      8  O   UNL     1      36.193 -24.136  -9.785  0.00  0.00    -0.379 OA
ATOM      9  H   UNL     1      35.768 -24.862  -9.302  0.00  0.00    +0.211 HD
ENDBRANCH   7   8
ENDBRANCH   4   7
ENDBRANCH   1   4
BRANCH   1  10
ATOM     10  C   UNL     1      37.851 -24.727 -14.009  0.00  0.00    +0.200 C 
BRANCH  10  11
ATOM     11  O   UNL     1      38.242 -23.550 -14.704  0.00  0.00    -0.375 OA
ATOM     12  H   UNL     1      39.196 -23.578 -14.879  0.00  0.00    +0.211 HD
ENDBRANCH  10  11
BRANCH  10  14
ATOM     13  O   UNL     1      38.323 -27.022 -14.589  0.00  0.00    -0.291 OA
ATOM     14  C   UNL     1      38.752 -25.872 -14.468  0.00  0.00    +0.209 C 
BRANCH  14  15
ATOM     15  C   UNL     1      40.189 -25.527 -14.803  0.00  0.00    +0.205 C 
BRANCH  15  16
ATOM     16  O   UNL     1      40.515 -25.977 -16.103  0.00  0.00    -0.375 OA
ATOM     17  H   UNL     1      39.711 -26.285 -16.549  0.00  0.00    +0.211 HD
ENDBRANCH  15  16
ENDBRANCH  14  15
ENDBRANCH  10  14
ENDBRANCH   1  10
TORSDOF 10
ENDMDL
MODEL 2
REMARK VINA RESULT:      -6.2      1.459      4.787
REMARK  Name = 90008
REMARK  10 active torsions:
REMARK  status: ('A' for Active; 'I' for Inactive)
REMARK    1  A    between atoms: C_1  and  O_2
REMARK    2  A    between atoms: C_1  and  C_4
REMARK    3  A    between atoms: C_1  and  C_10
REMARK    4  A    between atoms: C_4  and  O_5
REMARK    5  A    between atoms: C_4  and  C_7
REMARK    6  A    between atoms: C_7  and  O_8
REMARK    7  A    between atoms: C_10  and  O_11
REMARK    8  A    between atoms: C_10  and  C_14
REMARK    9  A    between atoms: C_14  and  C_15
REMARK   10  A    between atoms: C_15  and  O_16
REMARK                            x       y       z     vdW  Elec       q    Type
REMARK                         _______ _______ _______ _____ _____    ______ ____
ROOT
ATOM      1  C   UNL     1      37.715 -25.676 -14.850  0.00  0.00    +0.174 C 
ENDROOT
BRANCH   1   2
ATOM      2  O   UNL     1      37.972 -27.050 -14.573  0.00  0.00    -0.379 OA
ATOM      3  H   UNL     1      38.291 -27.141 -13.661  0.00  0.00    +0.211 HD
ENDBRANCH   1   2
BRANCH   1   4
ATOM      4  C   UNL     1      38.996 -24.850 -14.635  0.00  0.00    +0.169 C 
BRANCH   4   5
ATOM      5  O   UNL     1      39.111 -23.857 -15.654  0.00  0.00    -0.379 OA
ATOM      6  H   UNL     1      38.534 -23.106 -15.440  0.00  0.00    +0.211 HD
ENDBRANCH   4   5
BRANCH   4   7
ATOM      7  C   UNL     1      40.251 -25.722 -14.684  0.00  0.00    +0.169 C 
BRANCH   7   8
ATOM      8  O   UNL     1      40.551 -26.020 -16.045  0.00  0.00    -0.379 OA
ATOM      9  H   UNL     1      39.827 -26.538 -16.429  0.00  0.00    +0.211 HD
ENDBRANCH   7   8
ENDBRANCH   4   7
ENDBRANCH   1   4
BRANCH   1  10
ATOM     10  C   UNL     1      36.480 -25.194 -14.073  0.00  0.00    +0.200 C 
BRANCH  10  11
ATOM     11  O   UNL     1      35.340 -25.859 -14.602  0.00  0.00    -0.375 OA
ATOM     12  H   UNL     1      34.756 -25.212 -15.030  0.00  0.00    +0.211 HD
ENDBRANCH  10  11
BRANCH  10  14
ATOM     13  O   UNL     1      37.141 -26.376 -12.076  0.00  0.00    -0.291 OA
ATOM     14  C   UNL     1      36.513 -25.434 -12.565  0.00  0.00    +0.209 C 
BRANCH  14  15
ATOM     15  C   UNL     1      35.770 -24.443 -11.692  0.00  0.00    +0.205 C 
BRANCH  15  16
ATOM     16  O   UNL     1      35.288 -25.078 -10.525  0.00  0.00    -0.375 OA
ATOM     17  H   UNL     1      34.466 -25.550 -10.730  0.00  0.00    +0.211 HD
ENDBRANCH  15  16
ENDBRANCH  14  15
ENDBRANCH  10  14
ENDBRANCH   1  10
TORSDOF 10
ENDMDL
MODEL 3
REMARK VINA RESULT:      -6.1      1.091      1.651
REMARK  Name = 90008
REMARK  10 active torsions:
REMARK  status: ('A' for Active; 'I' for Inactive)
REMARK    1  A    between atoms: C_1  and  O_2
REMARK    2  A    between atoms: C_1  and  C_4
REMARK    3  A    between atoms: C_1  and  C_10
REMARK    4  A    between atoms: C_4  and  O_5
REMARK    5  A    between atoms: C_4  and  C_7
REMARK    6  A    between atoms: C_7  and  O_8
REMARK    7  A    between atoms: C_10  and  O_11
REMARK    8  A    between atoms: C_10  and  C_14
REMARK    9  A    between atoms: C_14  and  C_15
REMARK   10  A    between atoms: C_15  and  O_16
REMARK                            x       y       z     vdW  Elec       q    Type
REMARK                         _______ _______ _______ _____ _____    ______ ____
ROOT
ATOM      1  C   UNL     1      37.848 -24.563 -12.627  0.00  0.00    +0.174 C 
ENDROOT
BRANCH   1   2
ATOM      2  O   UNL     1      37.689 -25.826 -11.986  0.00  0.00    -0.379 OA
ATOM      3  H   UNL     1      36.861 -26.235 -12.281  0.00  0.00    +0.211 HD
ENDBRANCH   1   2
BRANCH   1   4
ATOM      4  C   UNL     1      36.878 -23.538 -12.012  0.00  0.00    +0.169 C 
BRANCH   4   5
ATOM      5  O   UNL     1      37.588 -22.657 -11.142  0.00  0.00    -0.379 OA
ATOM      6  H   UNL     1      38.155 -22.071 -11.667  0.00  0.00    +0.211 HD
ENDBRANCH   4   5
BRANCH   4   7
ATOM      7  C   UNL     1      35.774 -24.215 -11.199  0.00  0.00    +0.169 C 
BRANCH   7   8
ATOM      8  O   UNL     1      36.150 -24.217  -9.825  0.00  0.00    -0.379 OA
ATOM      9  H   UNL     1      36.168 -25.130  -9.497  0.00  0.00    +0.211 HD
ENDBRANCH   7   8
ENDBRANCH   4   7
ENDBRANCH   1   4
BRANCH   1  10
ATOM     10  C   UNL     1      37.763 -24.721 -14.152  0.00  0.00    +0.200 C 
BRANCH  10  11
ATOM     11  O   UNL     1      38.845 -24.001 -14.731  0.00  0.00    -0.375 OA
ATOM     12  H   UNL     1      39.678 -24.280 -14.318  0.00  0.00    +0.211 HD
ENDBRANCH  10  11
BRANCH  10  14
ATOM     13  O   UNL     1      38.834 -26.844 -14.565  0.00  0.00    -0.291 OA
ATOM     14  C   UNL     1      37.816 -26.157 -14.671  0.00  0.00    +0.209 C 
BRANCH  14  15
ATOM     15  C   UNL     1      36.551 -26.713 -15.292  0.00  0.00    +0.205 C 
BRANCH  15  16
ATOM     16  O   UNL     1      36.853 -27.423 -16.476  0.00  0.00    -0.375 OA
ATOM     17  H   UNL     1      36.051 -27.507 -17.017  0.00  0.00    +0.211 HD
ENDBRANCH  15  16
ENDBRANCH  14  15
ENDBRANCH  10  14
ENDBRANCH   1  10
TORSDOF 10
ENDMDL
MODEL 4
REMARK VINA RESULT:      -6.0      1.456      4.972
REMARK  Name = 90008
REMARK  10 active torsions:
REMARK  status: ('A' for Active; 'I' for Inactive)
REMARK    1  A    between atoms: C_1  and  O_2
REMARK    2  A    between atoms: C_1  and  C_4
REMARK    3  A    between atoms: C_1  and  C_10
REMARK    4  A    between atoms: C_4  and  O_5
REMARK    5  A    between atoms: C_4  and  C_7
REMARK    6  A    between atoms: C_7  and  O_8
REMARK    7  A    between atoms: C_10  and  O_11
REMARK    8  A    between atoms: C_10  and  C_14
REMARK    9  A    between atoms: C_14  and  C_15
REMARK   10  A    between atoms: C_15  and  O_16
REMARK                            x       y       z     vdW  Elec       q    Type
REMARK                         _______ _______ _______ _____ _____    ______ ____
ROOT
ATOM      1  C   UNL     1      38.226 -25.008 -13.543  0.00  0.00    +0.174 C 
ENDROOT
BRANCH   1   2
ATOM      2  O   UNL     1      38.100 -23.663 -13.996  0.00  0.00    -0.379 OA
ATOM      3  H   UNL     1      38.913 -23.400 -14.455  0.00  0.00    +0.211 HD
ENDBRANCH   1   2
BRANCH   1   4
ATOM      4  C   UNL     1      38.903 -25.865 -14.629  0.00  0.00    +0.169 C 
BRANCH   4   5
ATOM      5  O   UNL     1      38.340 -27.177 -14.635  0.00  0.00    -0.379 OA
ATOM      6  H   UNL     1      38.501 -27.602 -13.778  0.00  0.00    +0.211 HD
ENDBRANCH   4   5
BRANCH   4   7
ATOM      7  C   UNL     1      40.407 -25.999 -14.393  0.00  0.00    +0.169 C 
BRANCH   7   8
ATOM      8  O   UNL     1      41.019 -24.728 -14.592  0.00  0.00    -0.379 OA
ATOM      9  H   UNL     1      41.743 -24.615 -13.955  0.00  0.00    +0.211 HD
ENDBRANCH   7   8
ENDBRANCH   4   7
ENDBRANCH   1   4
BRANCH   1  10
ATOM     10  C   UNL     1      36.874 -25.532 -13.036  0.00  0.00    +0.200 C 
BRANCH  10  11
ATOM     11  O   UNL     1      37.125 -26.440 -11.971  0.00  0.00    -0.375 OA
ATOM     12  H   UNL     1      38.081 -26.579 -11.882  0.00  0.00    +0.211 HD
ENDBRANCH  10  11
BRANCH  10  14
ATOM     13  O   UNL     1      35.098 -23.918 -13.292  0.00  0.00    -0.291 OA
ATOM     14  C   UNL     1      35.900 -24.468 -12.534  0.00  0.00    +0.209 C 
BRANCH  14  15
ATOM     15  C   UNL     1      35.937 -24.142 -11.054  0.00  0.00    +0.205 C 
BRANCH  15  16
ATOM     16  O   UNL     1      35.242 -25.125 -10.314  0.00  0.00    -0.375 OA
ATOM     17  H   UNL     1      34.997 -24.765  -9.448  0.00  0.00    +0.211 HD
ENDBRANCH  15  16
ENDBRANCH  14  15
ENDBRANCH  10  14
ENDBRANCH   1  10
TORSDOF 10
ENDMDL
MODEL 5
REMARK VINA RESULT:      -5.8      1.127      1.954
REMARK  Name = 90008
REMARK  10 active torsions:
REMARK  status: ('A' for Active; 'I' for Inactive)
REMARK    1  A    between atoms: C_1  and  O_2
REMARK    2  A    between atoms: C_1  and  C_4
REMARK    3  A    between atoms: C_1  and  C_10
REMARK    4  A    between atoms: C_4  and  O_5
REMARK    5  A    between atoms: C_4  and  C_7
REMARK    6  A    between atoms: C_7  and  O_8
REMARK    7  A    between atoms: C_10  and  O_11
REMARK    8  A    between atoms: C_10  and  C_14
REMARK    9  A    between atoms: C_14  and  C_15
REMARK   10  A    between atoms: C_15  and  O_16
REMARK                            x       y       z     vdW  Elec       q    Type
REMARK                         _______ _______ _______ _____ _____    ______ ____
ROOT
ATOM      1  C   UNL     1      36.614 -24.491 -13.835  0.00  0.00    +0.174 C 
ENDROOT
BRANCH   1   2
ATOM      2  O   UNL     1      36.236 -23.123 -13.955  0.00  0.00    -0.379 OA
ATOM      3  H   UNL     1      37.017 -22.560 -13.834  0.00  0.00    +0.211 HD
ENDBRANCH   1   2
BRANCH   1   4
ATOM      4  C   UNL     1      37.151 -24.763 -12.418  0.00  0.00    +0.169 C 
BRANCH   4   5
ATOM      5  O   UNL     1      36.383 -25.792 -11.795  0.00  0.00    -0.379 OA
ATOM      6  H   UNL     1      35.698 -26.101 -12.410  0.00  0.00    +0.211 HD
ENDBRANCH   4   5
BRANCH   4   7
ATOM      7  C   UNL     1      37.076 -23.518 -11.532  0.00  0.00    +0.169 C 
BRANCH   7   8
ATOM      8  O   UNL     1      38.296 -22.793 -11.654  0.00  0.00    -0.379 OA
ATOM      9  H   UNL     1      38.311 -22.075 -11.001  0.00  0.00    +0.211 HD
ENDBRANCH   7   8
ENDBRANCH   4   7
ENDBRANCH   1   4
BRANCH   1  10
ATOM     10  C   UNL     1      37.550 -24.893 -14.984  0.00  0.00    +0.200 C 
BRANCH  10  11
ATOM     11  O   UNL     1      38.350 -23.764 -15.316  0.00  0.00    -0.375 OA
ATOM     12  H   UNL     1      37.845 -22.951 -15.156  0.00  0.00    +0.211 HD
ENDBRANCH  10  11
BRANCH  10  14
ATOM     13  O   UNL     1      38.048 -27.208 -14.521  0.00  0.00    -0.291 OA
ATOM     14  C   UNL     1      38.483 -26.068 -14.697  0.00  0.00    +0.209 C 
BRANCH  14  15
ATOM     15  C   UNL     1      39.970 -25.779 -14.671  0.00  0.00    +0.205 C 
BRANCH  15  16
ATOM     16  O   UNL     1      40.518 -25.891 -15.969  0.00  0.00    -0.375 OA
ATOM     17  H   UNL     1      41.027 -26.713 -16.035  0.00  0.00    +0.211 HD
ENDBRANCH  15  16
ENDBRANCH  14  15
ENDBRANCH  10  14
ENDBRANCH   1  10
TORSDOF 10
ENDMDL
MODEL 6
REMARK VINA RESULT:      -5.7      2.183      3.339
REMARK  Name = 90008
REMARK  10 active torsions:
REMARK  status: ('A' for Active; 'I' for Inactive)
REMARK    1  A    between atoms: C_1  and  O_2
REMARK    2  A    between atoms: C_1  and  C_4
REMARK    3  A    between atoms: C_1  and  C_10
REMARK    4  A    between atoms: C_4  and  O_5
REMARK    5  A    between atoms: C_4  and  C_7
REMARK    6  A    between atoms: C_7  and  O_8
REMARK    7  A    between atoms: C_10  and  O_11
REMARK    8  A    between atoms: C_10  and  C_14
REMARK    9  A    between atoms: C_14  and  C_15
REMARK   10  A    between atoms: C_15  and  O_16
REMARK                            x       y       z     vdW  Elec       q    Type
REMARK                         _______ _______ _______ _____ _____    ______ ____
ROOT
ATOM      1  C   UNL     1      36.452 -24.877 -14.375  0.00  0.00    +0.174 C 
ENDROOT
BRANCH   1   2
ATOM      2  O   UNL     1      36.525 -25.456 -15.675  0.00  0.00    -0.379 OA
ATOM      3  H   UNL     1      36.525 -24.752 -16.343  0.00  0.00    +0.211 HD
ENDBRANCH   1   2
BRANCH   1   4
ATOM      4  C   UNL     1      36.503 -23.342 -14.482  0.00  0.00    +0.169 C 
BRANCH   4   5
ATOM      5  O   UNL     1      35.202 -22.796 -14.264  0.00  0.00    -0.379 OA
ATOM      6  H   UNL     1      34.546 -23.321 -14.750  0.00  0.00    +0.211 HD
ENDBRANCH   4   5
BRANCH   4   7
ATOM      7  C   UNL     1      36.981 -22.883 -15.860  0.00  0.00    +0.169 C 
BRANCH   7   8
ATOM      8  O   UNL     1      38.369 -23.177 -15.987  0.00  0.00    -0.379 OA
ATOM      9  H   UNL     1      38.574 -23.988 -15.494  0.00  0.00    +0.211 HD
ENDBRANCH   7   8
ENDBRANCH   4   7
ENDBRANCH   1   4
BRANCH   1  10
ATOM     10  C   UNL     1      37.500 -25.509 -13.447  0.00  0.00    +0.200 C 
BRANCH  10  11
ATOM     11  O   UNL     1      36.842 -26.465 -12.625  0.00  0.00    -0.375 OA
ATOM     12  H   UNL     1      37.360 -27.285 -12.602  0.00  0.00    +0.211 HD
ENDBRANCH  10  11
BRANCH  10  14
ATOM     13  O   UNL     1      38.507 -27.253 -14.778  0.00  0.00    -0.291 OA
ATOM     14  C   UNL     1      38.666 -26.206 -14.146  0.00  0.00    +0.209 C 
BRANCH  14  15
ATOM     15  C   UNL     1      40.023 -25.537 -14.058  0.00  0.00    +0.205 C 
BRANCH  15  16
ATOM     16  O   UNL     1      41.055 -26.491 -14.207  0.00  0.00    -0.375 OA
ATOM     17  H   UNL     1      40.782 -27.329 -13.801  0.00  0.00    +0.211 HD
ENDBRANCH  15  16
ENDBRANCH  14  15
ENDBRANCH  10  14
ENDBRANCH   1  10
TORSDOF 10
ENDMDL
MODEL 7
REMARK VINA RESULT:      -5.7      1.834      2.410
REMARK  Name = 90008
REMARK  10 active torsions:
REMARK  status: ('A' for Active; 'I' for Inactive)
REMARK    1  A    between atoms: C_1  and  O_2
REMARK    2  A    between atoms: C_1  and  C_4
REMARK    3  A    between atoms: C_1  and  C_10
REMARK    4  A    between atoms: C_4  and  O_5
REMARK    5  A    between atoms: C_4  and  C_7
REMARK    6  A    between atoms: C_7  and  O_8
REMARK    7  A    between atoms: C_10  and  O_11
REMARK    8  A    between atoms: C_10  and  C_14
REMARK    9  A    between atoms: C_14  and  C_15
REMARK   10  A    between atoms: C_15  and  O_16
REMARK                            x       y       z     vdW  Elec       q    Type
REMARK                         _______ _______ _______ _____ _____    ______ ____
ROOT
ATOM      1  C   UNL     1      36.147 -24.931 -14.467  0.00  0.00    +0.174 C 
ENDROOT
BRANCH   1   2
ATOM      2  O   UNL     1      36.547 -24.646 -15.805  0.00  0.00    -0.379 OA
ATOM      3  H   UNL     1      36.305 -23.733 -16.026  0.00  0.00    +0.211 HD
ENDBRANCH   1   2
BRANCH   1   4
ATOM      4  C   UNL     1      35.392 -23.725 -13.878  0.00  0.00    +0.169 C 
BRANCH   4   5
ATOM      5  O   UNL     1      36.149 -23.149 -12.814  0.00  0.00    -0.379 OA
ATOM      6  H   UNL     1      35.753 -23.398 -11.964  0.00  0.00    +0.211 HD
ENDBRANCH   4   5
BRANCH   4   7
ATOM      7  C   UNL     1      34.026 -24.126 -13.320  0.00  0.00    +0.169 C 
BRANCH   7   8
ATOM      8  O   UNL     1      34.221 -24.944 -12.171  0.00  0.00    -0.379 OA
ATOM      9  H   UNL     1      34.236 -24.387 -11.377  0.00  0.00    +0.211 HD
ENDBRANCH   7   8
ENDBRANCH   4   7
ENDBRANCH   1   4
BRANCH   1  10
ATOM     10  C   UNL     1      37.345 -25.427 -13.643  0.00  0.00    +0.200 C 
BRANCH  10  11
ATOM     11  O   UNL     1      36.854 -26.291 -12.626  0.00  0.00    -0.375 OA
ATOM     12  H   UNL     1      36.429 -27.062 -13.034  0.00  0.00    +0.211 HD
ENDBRANCH  10  11
BRANCH  10  14
ATOM     13  O   UNL     1      38.209 -27.296 -14.902  0.00  0.00    -0.291 OA
ATOM     14  C   UNL     1      38.420 -26.178 -14.427  0.00  0.00    +0.209 C 
BRANCH  14  15
ATOM     15  C   UNL     1      39.748 -25.474 -14.626  0.00  0.00    +0.205 C 
BRANCH  15  16
ATOM     16  O   UNL     1      40.318 -25.838 -15.867  0.00  0.00    -0.375 OA
ATOM     17  H   UNL     1      40.714 -26.721 -15.793  0.00  0.00    +0.211 HD
ENDBRANCH  15  16
ENDBRANCH  14  15
ENDBRANCH  10  14
ENDBRANCH   1  10
TORSDOF 10
ENDMDL
MODEL 8
REMARK VINA RESULT:      -5.6      2.159      3.925
REMARK  Name = 90008
REMARK  10 active torsions:
REMARK  status: ('A' for Active; 'I' for Inactive)
REMARK    1  A    between atoms: C_1  and  O_2
REMARK    2  A    between atoms: C_1  and  C_4
REMARK    3  A    between atoms: C_1  and  C_10
REMARK    4  A    between atoms: C_4  and  O_5
REMARK    5  A    between atoms: C_4  and  C_7
REMARK    6  A    between atoms: C_7  and  O_8
REMARK    7  A    between atoms: C_10  and  O_11
REMARK    8  A    between atoms: C_10  and  C_14
REMARK    9  A    between atoms: C_14  and  C_15
REMARK   10  A    between atoms: C_15  and  O_16
REMARK                            x       y       z     vdW  Elec       q    Type
REMARK                         _______ _______ _______ _____ _____    ______ ____
ROOT
ATOM      1  C   UNL     1      37.768 -25.560 -14.877  0.00  0.00    +0.174 C 
ENDROOT
BRANCH   1   2
ATOM      2  O   UNL     1      36.858 -26.241 -15.737  0.00  0.00    -0.379 OA
ATOM      3  H   UNL     1      36.947 -27.199 -15.606  0.00  0.00    +0.211 HD
ENDBRANCH   1   2
BRANCH   1   4
ATOM      4  C   UNL     1      37.801 -26.246 -13.500  0.00  0.00    +0.169 C 
BRANCH   4   5
ATOM      5  O   UNL     1      36.703 -27.150 -13.380  0.00  0.00    -0.379 OA
ATOM      6  H   UNL     1      36.358 -27.358 -14.264  0.00  0.00    +0.211 HD
ENDBRANCH   4   5
BRANCH   4   7
ATOM      7  C   UNL     1      37.703 -25.234 -12.357  0.00  0.00    +0.169 C 
BRANCH   7   8
ATOM      8  O   UNL     1      36.509 -25.484 -11.622  0.00  0.00    -0.379 OA
ATOM      9  H   UNL     1      36.072 -26.275 -11.975  0.00  0.00    +0.211 HD
ENDBRANCH   7   8
ENDBRANCH   4   7
ENDBRANCH   1   4
BRANCH   1  10
ATOM     10  C   UNL     1      37.463 -24.054 -14.859  0.00  0.00    +0.200 C 
BRANCH  10  11
ATOM     11  O   UNL     1      38.398 -23.405 -15.711  0.00  0.00    -0.375 OA
ATOM     12  H   UNL     1      38.247 -22.446 -15.687  0.00  0.00    +0.211 HD
ENDBRANCH  10  11
BRANCH  10  14
ATOM     13  O   UNL     1      35.814 -23.361 -16.479  0.00  0.00    -0.291 OA
ATOM     14  C   UNL     1      36.057 -23.660 -15.308  0.00  0.00    +0.209 C 
BRANCH  14  15
ATOM     15  C   UNL     1      34.964 -23.685 -14.258  0.00  0.00    +0.205 C 
BRANCH  15  16
ATOM     16  O   UNL     1      34.563 -25.015 -13.995  0.00  0.00    -0.375 OA
ATOM     17  H   UNL     1      33.648 -25.141 -14.290  0.00  0.00    +0.211 HD
ENDBRANCH  15  16
ENDBRANCH  14  15
ENDBRANCH  10  14
ENDBRANCH   1  10
TORSDOF 10
ENDMDL
MODEL 9
REMARK VINA RESULT:      -5.5      1.756      4.444
REMARK  Name = 90008
REMARK  10 active torsions:
REMARK  status: ('A' for Active; 'I' for Inactive)
REMARK    1  A    between atoms: C_1  and  O_2
REMARK    2  A    between atoms: C_1  and  C_4
REMARK    3  A    between atoms: C_1  and  C_10
REMARK    4  A    between atoms: C_4  and  O_5
REMARK    5  A    between atoms: C_4  and  C_7
REMARK    6  A    between atoms: C_7  and  O_8
REMARK    7  A    between atoms: C_10  and  O_11
REMARK    8  A    between atoms: C_10  and  C_14
REMARK    9  A    between atoms: C_14  and  C_15
REMARK   10  A    between atoms: C_15  and  O_16
REMARK                            x       y       z     vdW  Elec       q    Type
REMARK                         _______ _______ _______ _____ _____    ______ ____
ROOT
ATOM      1  C   UNL     1      36.264 -25.755 -13.482  0.00  0.00    +0.174 C 
ENDROOT
BRANCH   1   2
ATOM      2  O   UNL     1      36.903 -26.526 -12.468  0.00  0.00    -0.379 OA
ATOM      3  H   UNL     1      36.297 -27.217 -12.158  0.00  0.00    +0.211 HD
ENDBRANCH   1   2
BRANCH   1   4
ATOM      4  C   UNL     1      37.260 -25.457 -14.618  0.00  0.00    +0.169 C 
BRANCH   4   5
ATOM      5  O   UNL     1      36.929 -26.232 -15.771  0.00  0.00    -0.379 OA
ATOM      6  H   UNL     1      36.246 -26.882 -15.538  0.00  0.00    +0.211 HD
ENDBRANCH   4   5
BRANCH   4   7
ATOM      7  C   UNL     1      38.697 -25.796 -14.220  0.00  0.00    +0.169 C 
BRANCH   7   8
ATOM      8  O   UNL     1      39.200 -24.756 -13.386  0.00  0.00    -0.379 OA
ATOM      9  H   UNL     1      39.913 -25.106 -12.830  0.00  0.00    +0.211 HD
ENDBRANCH   7   8
ENDBRANCH   4   7
ENDBRANCH   1   4
BRANCH   1  10
ATOM     10  C   UNL     1      35.575 -24.527 -12.869  0.00  0.00    +0.200 C 
BRANCH  10  11
ATOM     11  O   UNL     1      34.169 -24.727 -12.945  0.00  0.00    -0.375 OA
ATOM     12  H   UNL     1      33.885 -24.685 -13.872  0.00  0.00    +0.211 HD
ENDBRANCH  10  11
BRANCH  10  14
ATOM     13  O   UNL     1      35.470 -24.888 -10.485  0.00  0.00    -0.291 OA
ATOM     14  C   UNL     1      35.934 -24.225 -11.415  0.00  0.00    +0.209 C 
BRANCH  14  15
ATOM     15  C   UNL     1      36.915 -23.097 -11.167  0.00  0.00    +0.205 C 
BRANCH  15  16
ATOM     16  O   UNL     1      37.614 -22.780 -12.353  0.00  0.00    -0.375 OA
ATOM     17  H   UNL     1      37.442 -23.461 -13.022  0.00  0.00    +0.211 HD
ENDBRANCH  15  16
ENDBRANCH  14  15
ENDBRANCH  10  14
ENDBRANCH   1  10
TORSDOF 10
ENDMDL
