MODEL 1
REMARK VINA RESULT:      -8.4      0.000      0.000
REMARK  Name = 3827
REMARK  0 active torsions:
REMARK  status: ('A' for Active; 'I' for Inactive)
REMARK                            x       y       z     vdW  Elec       q    Type
REMARK                         _______ _______ _______ _____ _____    ______ ____
ROOT
ATOM      1  S   UNL     1      34.463 -11.473 -24.936  0.00  0.00    -0.084 S 
ATOM      2  O   UNL     1      32.115 -12.778 -23.598  0.00  0.00    -0.290 OA
ATOM      3  N   UNL     1      31.523  -4.912 -23.853  0.00  0.00    +0.386 N 
ATOM      4  C   UNL     1      32.782  -7.305 -22.844  0.00  0.00    -0.048 C 
ATOM      5  C   UNL     1      33.327  -6.605 -24.058  0.00  0.00    -0.001 C 
ATOM      6  C   UNL     1      31.980  -6.417 -21.933  0.00  0.00    -0.001 C 
ATOM      7  C   UNL     1      32.217  -5.829 -24.773  0.00  0.00    -0.073 C 
ATOM      8  C   UNL     1      30.920  -5.648 -22.729  0.00  0.00    -0.073 C 
ATOM      9  C   UNL     1      32.965  -8.613 -22.613  0.00  0.00    -0.008 C 
ATOM     10  C   UNL     1      32.359  -9.150 -21.363  0.00  0.00    -0.004 C 
ATOM     11  C   UNL     1      33.688  -9.452 -23.544  0.00  0.00    +0.009 C 
ATOM     12  C   UNL     1      31.454 -10.230 -21.416  0.00  0.00    -0.014 C 
ATOM     13  C   UNL     1      30.501  -4.146 -24.568  0.00  0.00    -0.101 C 
ATOM     14  C   UNL     1      33.337 -10.759 -23.851  0.00  0.00    +0.064 C 
ATOM     15  C   UNL     1      31.053 -10.840 -22.734  0.00  0.00    +0.096 C 
ATOM     16  C   UNL     1      32.200 -11.562 -23.414  0.00  0.00    +0.183 C 
ATOM     17  C   UNL     1      32.718  -8.616 -20.113  0.00  0.00    -0.000 C 
ATOM     18  C   UNL     1      34.877  -9.048 -24.237  0.00  0.00    +0.008 C 
ATOM     19  C   UNL     1      30.922 -10.743 -20.223  0.00  0.00    -0.004 C 
ATOM     20  C   UNL     1      35.394 -10.049 -25.026  0.00  0.00    +0.036 C 
ATOM     21  C   UNL     1      32.179  -9.135 -18.937  0.00  0.00    -0.000 C 
ATOM     22  C   UNL     1      31.281 -10.197 -18.992  0.00  0.00    -0.000 C 
ATOM     23  H   UNL     1      32.212  -4.262 -23.474  0.00  0.00    -0.080 HD
ENDROOT
TORSDOF 0
ENDMDL
MODEL 2
REMARK VINA RESULT:      -6.5      3.857      6.429
REMARK  Name = 3827
REMARK  0 active torsions:
REMARK  status: ('A' for Active; 'I' for Inactive)
REMARK                            x       y       z     vdW  Elec       q    Type
REMARK                         _______ _______ _______ _____ _____    ______ ____
ROOT
ATOM      1  S   UNL     1      34.333 -12.448 -27.591  0.00  0.00    -0.084 S 
ATOM      2  O   UNL     1      35.301  -9.924 -26.290  0.00  0.00    -0.290 OA
ATOM      3  N   UNL     1      33.905 -15.711 -21.107  0.00  0.00    +0.386 N 
ATOM      4  C   UNL     1      32.956 -13.763 -23.014  0.00  0.00    -0.048 C 
ATOM      5  C   UNL     1      33.262 -15.171 -23.444  0.00  0.00    -0.001 C 
ATOM      6  C   UNL     1      32.636 -13.624 -21.551  0.00  0.00    -0.001 C 
ATOM      7  C   UNL     1      34.312 -15.797 -22.520  0.00  0.00    -0.073 C 
ATOM      8  C   UNL     1      33.710 -14.309 -20.699  0.00  0.00    -0.073 C 
ATOM      9  C   UNL     1      32.999 -12.719 -23.854  0.00  0.00    -0.008 C 
ATOM     10  C   UNL     1      32.669 -11.390 -23.267  0.00  0.00    -0.004 C 
ATOM     11  C   UNL     1      33.375 -12.878 -25.242  0.00  0.00    +0.009 C 
ATOM     12  C   UNL     1      33.583 -10.322 -23.361  0.00  0.00    -0.014 C 
ATOM     13  C   UNL     1      34.898 -16.358 -20.249  0.00  0.00    -0.101 C 
ATOM     14  C   UNL     1      34.152 -11.973 -25.950  0.00  0.00    +0.064 C 
ATOM     15  C   UNL     1      34.925 -10.506 -24.021  0.00  0.00    +0.096 C 
ATOM     16  C   UNL     1      34.811 -10.746 -25.513  0.00  0.00    +0.183 C 
ATOM     17  C   UNL     1      31.422 -11.175 -22.655  0.00  0.00    -0.000 C 
ATOM     18  C   UNL     1      32.960 -13.976 -26.067  0.00  0.00    +0.008 C 
ATOM     19  C   UNL     1      33.236  -9.069 -22.832  0.00  0.00    -0.004 C 
ATOM     20  C   UNL     1      33.414 -13.864 -27.361  0.00  0.00    +0.036 C 
ATOM     21  C   UNL     1      31.093  -9.925 -22.132  0.00  0.00    -0.000 C 
ATOM     22  C   UNL     1      31.999  -8.873 -22.219  0.00  0.00    -0.000 C 
ATOM     23  H   UNL     1      33.016 -16.199 -21.003  0.00  0.00    -0.080 HD
ENDROOT
TORSDOF 0
ENDMDL
MODEL 3
REMARK VINA RESULT:      -6.3      3.292      6.282
REMARK  Name = 3827
REMARK  0 active torsions:
REMARK  status: ('A' for Active; 'I' for Inactive)
REMARK                            x       y       z     vdW  Elec       q    Type
REMARK                         _______ _______ _______ _____ _____    ______ ____
ROOT
ATOM      1  S   UNL     1      31.420  -6.143 -20.745  0.00  0.00    -0.084 S 
ATOM      2  O   UNL     1      30.338  -4.851 -23.228  0.00  0.00    -0.290 OA
ATOM      3  N   UNL     1      33.969 -11.709 -24.669  0.00  0.00    +0.386 N 
ATOM      4  C   UNL     1      34.061  -8.935 -23.876  0.00  0.00    -0.048 C 
ATOM      5  C   UNL     1      33.928 -10.023 -22.846  0.00  0.00    -0.001 C 
ATOM      6  C   UNL     1      34.689  -9.386 -25.167  0.00  0.00    -0.001 C 
ATOM      7  C   UNL     1      33.262 -11.260 -23.457  0.00  0.00    -0.073 C 
ATOM      8  C   UNL     1      33.993 -10.648 -25.689  0.00  0.00    -0.073 C 
ATOM      9  C   UNL     1      33.628  -7.683 -23.674  0.00  0.00    -0.008 C 
ATOM     10  C   UNL     1      33.836  -6.726 -24.796  0.00  0.00    -0.004 C 
ATOM     11  C   UNL     1      32.970  -7.299 -22.443  0.00  0.00    +0.009 C 
ATOM     12  C   UNL     1      32.744  -6.030 -25.352  0.00  0.00    -0.014 C 
ATOM     13  C   UNL     1      33.346 -12.919 -25.205  0.00  0.00    -0.101 C 
ATOM     14  C   UNL     1      31.894  -6.427 -22.373  0.00  0.00    +0.064 C 
ATOM     15  C   UNL     1      31.343  -6.261 -24.851  0.00  0.00    +0.096 C 
ATOM     16  C   UNL     1      31.142  -5.763 -23.433  0.00  0.00    +0.183 C 
ATOM     17  C   UNL     1      35.131  -6.474 -25.282  0.00  0.00    -0.000 C 
ATOM     18  C   UNL     1      33.373  -7.745 -21.141  0.00  0.00    +0.008 C 
ATOM     19  C   UNL     1      32.969  -5.107 -26.385  0.00  0.00    -0.004 C 
ATOM     20  C   UNL     1      32.613  -7.196 -20.136  0.00  0.00    +0.036 C 
ATOM     21  C   UNL     1      35.338  -5.555 -26.311  0.00  0.00    -0.000 C 
ATOM     22  C   UNL     1      34.258  -4.874 -26.863  0.00  0.00    -0.000 C 
ATOM     23  H   UNL     1      34.932 -11.924 -24.412  0.00  0.00    -0.080 HD
ENDROOT
TORSDOF 0
ENDMDL
MODEL 4
REMARK VINA RESULT:      -6.3     14.831     17.254
REMARK  Name = 3827
REMARK  0 active torsions:
REMARK  status: ('A' for Active; 'I' for Inactive)
REMARK                            x       y       z     vdW  Elec       q    Type
REMARK                         _______ _______ _______ _____ _____    ______ ____
ROOT
ATOM      1  S   UNL     1      38.220 -25.503 -14.713  0.00  0.00    -0.084 S 
ATOM      2  O   UNL     1      38.863 -22.829 -15.915  0.00  0.00    -0.290 OA
ATOM      3  N   UNL     1      31.371 -23.386 -13.493  0.00  0.00    +0.386 N 
ATOM      4  C   UNL     1      33.490 -24.142 -15.302  0.00  0.00    -0.048 C 
ATOM      5  C   UNL     1      33.217 -24.947 -14.062  0.00  0.00    -0.001 C 
ATOM      6  C   UNL     1      32.307 -23.351 -15.792  0.00  0.00    -0.001 C 
ATOM      7  C   UNL     1      32.573 -24.069 -12.984  0.00  0.00    -0.073 C 
ATOM      8  C   UNL     1      31.698 -22.533 -14.648  0.00  0.00    -0.073 C 
ATOM      9  C   UNL     1      34.689 -24.106 -15.899  0.00  0.00    -0.008 C 
ATOM     10  C   UNL     1      34.791 -23.258 -17.120  0.00  0.00    -0.004 C 
ATOM     11  C   UNL     1      35.823 -24.828 -15.364  0.00  0.00    +0.009 C 
ATOM     12  C   UNL     1      35.750 -22.229 -17.196  0.00  0.00    -0.014 C 
ATOM     13  C   UNL     1      30.745 -22.594 -12.434  0.00  0.00    -0.101 C 
ATOM     14  C   UNL     1      37.123 -24.346 -15.356  0.00  0.00    +0.064 C 
ATOM     15  C   UNL     1      36.667 -21.938 -16.036  0.00  0.00    +0.096 C 
ATOM     16  C   UNL     1      37.658 -23.057 -15.783  0.00  0.00    +0.183 C 
ATOM     17  C   UNL     1      33.962 -23.507 -18.227  0.00  0.00    -0.000 C 
ATOM     18  C   UNL     1      35.747 -26.148 -14.808  0.00  0.00    +0.008 C 
ATOM     19  C   UNL     1      35.851 -21.466 -18.369  0.00  0.00    -0.004 C 
ATOM     20  C   UNL     1      36.975 -26.627 -14.415  0.00  0.00    +0.036 C 
ATOM     21  C   UNL     1      34.073 -22.739 -19.386  0.00  0.00    -0.000 C 
ATOM     22  C   UNL     1      35.016 -21.719 -19.456  0.00  0.00    -0.000 C 
ATOM     23  H   UNL     1      30.709 -24.099 -13.803  0.00  0.00    -0.080 HD
ENDROOT
TORSDOF 0
ENDMDL
MODEL 5
REMARK VINA RESULT:      -5.8      2.293      5.004
REMARK  Name = 3827
REMARK  0 active torsions:
REMARK  status: ('A' for Active; 'I' for Inactive)
REMARK                            x       y       z     vdW  Elec       q    Type
REMARK                         _______ _______ _______ _____ _____    ______ ____
ROOT
ATOM      1  S   UNL     1      34.229 -12.743 -25.469  0.00  0.00    -0.084 S 
ATOM      2  O   UNL     1      35.918 -10.264 -25.553  0.00  0.00    -0.290 OA
ATOM      3  N   UNL     1      31.341 -10.647 -19.133  0.00  0.00    +0.386 N 
ATOM      4  C   UNL     1      31.646 -10.339 -21.987  0.00  0.00    -0.048 C 
ATOM      5  C   UNL     1      31.405 -11.695 -21.383  0.00  0.00    -0.001 C 
ATOM      6  C   UNL     1      31.160  -9.195 -21.139  0.00  0.00    -0.001 C 
ATOM      7  C   UNL     1      31.916 -11.737 -19.939  0.00  0.00    -0.073 C 
ATOM      8  C   UNL     1      31.681  -9.332 -19.704  0.00  0.00    -0.073 C 
ATOM      9  C   UNL     1      32.268 -10.163 -23.161  0.00  0.00    -0.008 C 
ATOM     10  C   UNL     1      32.426  -8.754 -23.617  0.00  0.00    -0.004 C 
ATOM     11  C   UNL     1      32.781 -11.283 -23.921  0.00  0.00    +0.009 C 
ATOM     12  C   UNL     1      33.704  -8.239 -23.912  0.00  0.00    -0.014 C 
ATOM     13  C   UNL     1      31.803 -10.737 -17.748  0.00  0.00    -0.101 C 
ATOM     14  C   UNL     1      33.976 -11.267 -24.624  0.00  0.00    +0.064 C 
ATOM     15  C   UNL     1      34.938  -9.084 -23.741  0.00  0.00    +0.096 C 
ATOM     16  C   UNL     1      35.000 -10.232 -24.730  0.00  0.00    +0.183 C 
ATOM     17  C   UNL     1      31.296  -7.938 -23.802  0.00  0.00    -0.000 C 
ATOM     18  C   UNL     1      32.098 -12.536 -24.069  0.00  0.00    +0.008 C 
ATOM     19  C   UNL     1      33.825  -6.919 -24.374  0.00  0.00    -0.004 C 
ATOM     20  C   UNL     1      32.778 -13.414 -24.881  0.00  0.00    +0.036 C 
ATOM     21  C   UNL     1      31.434  -6.628 -24.259  0.00  0.00    -0.000 C 
ATOM     22  C   UNL     1      32.696  -6.118 -24.544  0.00  0.00    -0.000 C 
ATOM     23  H   UNL     1      30.326 -10.746 -19.146  0.00  0.00    -0.080 HD
ENDROOT
TORSDOF 0
ENDMDL
