MODEL 1
REMARK VINA RESULT:      -9.4      0.000      0.000
REMARK  Name = 6102684
REMARK  5 active torsions:
REMARK  status: ('A' for Active; 'I' for Inactive)
REMARK    1  A    between atoms: N_1  and  C_3
REMARK    2  A    between atoms: N_1  and  S_14
REMARK    3  A    between atoms: C_4  and  C_11
REMARK    4  A    between atoms: C_11  and  O_12
REMARK    5  A    between atoms: S_14  and  C_17
REMARK                            x       y       z     vdW  Elec       q    Type
REMARK                         _______ _______ _______ _____ _____    ______ ____
ROOT
ATOM      1  N   UNL     1      34.024 -17.590 -22.452  0.00  0.00    -0.215 N 
ATOM      2  H   UNL     1      33.553 -18.286 -22.963  0.00  0.00    +0.174 HD
ENDROOT
BRANCH   1   3
ATOM      3  C   UNL     1      33.592 -16.227 -22.507  0.00  0.00    +0.071 C 
ATOM      4  C   UNL     1      33.723 -15.479 -23.677  0.00  0.00    +0.090 C 
ATOM      5  C   UNL     1      32.734 -13.573 -22.569  0.00  0.00    -0.022 C 
ATOM      6  C   UNL     1      33.032 -15.648 -21.368  0.00  0.00    +0.016 C 
ATOM      7  C   UNL     1      33.294 -14.152 -23.708  0.00  0.00    +0.003 C 
ATOM      8  C   UNL     1      32.604 -14.321 -21.399  0.00  0.00    -0.003 C 
ATOM      9  C   UNL     1      32.275 -12.154 -22.601  0.00  0.00    +0.031 C 
BRANCH   4  11
ATOM     10  O   UNL     1      33.792 -16.024 -26.006  0.00  0.00    -0.245 OA
ATOM     11  C   UNL     1      34.302 -16.057 -24.883  0.00  0.00    +0.339 C 
BRANCH  11  12
ATOM     12  O   UNL     1      35.501 -16.654 -24.646  0.00  0.00    -0.477 OA
ATOM     13  H   UNL     1      36.251 -16.417 -25.154  0.00  0.00    +0.295 HD
ENDBRANCH  11  12
ENDBRANCH   4  11
ENDBRANCH   1   3
BRANCH   1  14
ATOM     14  S   UNL     1      35.385 -17.987 -21.475  0.00  0.00    +0.074 S 
ATOM     15  O   UNL     1      36.507 -18.304 -22.339  0.00  0.00    -0.150 OA
ATOM     16  O   UNL     1      35.543 -17.006 -20.419  0.00  0.00    -0.150 OA
BRANCH  14  17
ATOM     17  C   UNL     1      34.868 -19.507 -20.729  0.00  0.00    +0.125 C 
ATOM     18  C   UNL     1      33.516 -19.780 -20.626  0.00  0.00    +0.020 C 
ATOM     19  C   UNL     1      35.826 -20.389 -20.264  0.00  0.00    +0.020 C 
ATOM     20  C   UNL     1      33.108 -20.978 -20.038  0.00  0.00    +0.001 C 
ATOM     21  C   UNL     1      35.418 -21.587 -19.675  0.00  0.00    +0.001 C 
ATOM     22  C   UNL     1      34.059 -21.881 -19.562  0.00  0.00    +0.000 C 
ENDBRANCH  14  17
ENDBRANCH   1  14
TORSDOF 5
ENDMDL
MODEL 2
REMARK VINA RESULT:      -8.9      5.244      9.174
REMARK  Name = 6102684
REMARK  5 active torsions:
REMARK  status: ('A' for Active; 'I' for Inactive)
REMARK    1  A    between atoms: N_1  and  C_3
REMARK    2  A    between atoms: N_1  and  S_14
REMARK    3  A    between atoms: C_4  and  C_11
REMARK    4  A    between atoms: C_11  and  O_12
REMARK    5  A    between atoms: S_14  and  C_17
REMARK                            x       y       z     vdW  Elec       q    Type
REMARK                         _______ _______ _______ _____ _____    ______ ____
ROOT
ATOM      1  N   UNL     1      35.160 -22.427 -17.649  0.00  0.00    -0.215 N 
ATOM      2  H   UNL     1      35.972 -21.978 -17.975  0.00  0.00    +0.174 HD
ENDROOT
BRANCH   1   3
ATOM      3  C   UNL     1      35.100 -22.949 -16.318  0.00  0.00    +0.071 C 
ATOM      4  C   UNL     1      36.235 -22.985 -15.508  0.00  0.00    +0.090 C 
ATOM      5  C   UNL     1      34.936 -23.977 -13.730  0.00  0.00    -0.022 C 
ATOM      6  C   UNL     1      33.882 -23.428 -15.833  0.00  0.00    +0.016 C 
ATOM      7  C   UNL     1      36.153 -23.498 -14.215  0.00  0.00    +0.003 C 
ATOM      8  C   UNL     1      33.800 -23.943 -14.539  0.00  0.00    -0.003 C 
ATOM      9  C   UNL     1      34.848 -24.526 -12.346  0.00  0.00    +0.031 C 
BRANCH   4  11
ATOM     10  O   UNL     1      37.714 -21.383 -16.494  0.00  0.00    -0.245 OA
ATOM     11  C   UNL     1      37.520 -22.490 -15.987  0.00  0.00    +0.339 C 
BRANCH  11  12
ATOM     12  O   UNL     1      38.519 -23.397 -15.814  0.00  0.00    -0.477 OA
ATOM     13  H   UNL     1      39.414 -23.120 -15.848  0.00  0.00    +0.295 HD
ENDBRANCH  11  12
ENDBRANCH   4  11
ENDBRANCH   1   3
BRANCH   1  14
ATOM     14  S   UNL     1      33.783 -22.599 -18.668  0.00  0.00    +0.074 S 
ATOM     15  O   UNL     1      33.951 -23.785 -19.488  0.00  0.00    -0.150 OA
ATOM     16  O   UNL     1      32.567 -22.422 -17.898  0.00  0.00    -0.150 OA
BRANCH  14  17
ATOM     17  C   UNL     1      33.949 -21.204 -19.745  0.00  0.00    +0.125 C 
ATOM     18  C   UNL     1      32.814 -20.521 -20.141  0.00  0.00    +0.020 C 
ATOM     19  C   UNL     1      35.210 -20.826 -20.168  0.00  0.00    +0.020 C 
ATOM     20  C   UNL     1      32.944 -19.421 -20.989  0.00  0.00    +0.001 C 
ATOM     21  C   UNL     1      35.341 -19.727 -21.017  0.00  0.00    +0.001 C 
ATOM     22  C   UNL     1      34.208 -19.024 -21.427  0.00  0.00    +0.000 C 
ENDBRANCH  14  17
ENDBRANCH   1  14
TORSDOF 5
ENDMDL
MODEL 3
REMARK VINA RESULT:      -8.8      1.668      6.404
REMARK  Name = 6102684
REMARK  5 active torsions:
REMARK  status: ('A' for Active; 'I' for Inactive)
REMARK    1  A    between atoms: N_1  and  C_3
REMARK    2  A    between atoms: N_1  and  S_14
REMARK    3  A    between atoms: C_4  and  C_11
REMARK    4  A    between atoms: C_11  and  O_12
REMARK    5  A    between atoms: S_14  and  C_17
REMARK                            x       y       z     vdW  Elec       q    Type
REMARK                         _______ _______ _______ _____ _____    ______ ____
ROOT
ATOM      1  N   UNL     1      33.976 -17.766 -22.024  0.00  0.00    -0.215 N 
ATOM      2  H   UNL     1      34.045 -17.819 -23.004  0.00  0.00    +0.174 HD
ENDROOT
BRANCH   1   3
ATOM      3  C   UNL     1      34.058 -18.950 -21.223  0.00  0.00    +0.071 C 
ATOM      4  C   UNL     1      35.290 -19.533 -20.927  0.00  0.00    +0.090 C 
ATOM      5  C   UNL     1      34.170 -21.257 -19.659  0.00  0.00    -0.022 C 
ATOM      6  C   UNL     1      32.881 -19.521 -20.738  0.00  0.00    +0.016 C 
ATOM      7  C   UNL     1      35.346 -20.685 -20.145  0.00  0.00    +0.003 C 
ATOM      8  C   UNL     1      32.937 -20.675 -19.956  0.00  0.00    -0.003 C 
ATOM      9  C   UNL     1      34.229 -22.490 -18.822  0.00  0.00    +0.031 C 
BRANCH   4  11
ATOM     10  O   UNL     1      36.644 -18.236 -22.413  0.00  0.00    -0.245 OA
ATOM     11  C   UNL     1      36.536 -18.958 -21.419  0.00  0.00    +0.339 C 
BRANCH  11  12
ATOM     12  O   UNL     1      37.604 -19.304 -20.651  0.00  0.00    -0.477 OA
ATOM     13  H   UNL     1      37.665 -18.996 -19.769  0.00  0.00    +0.295 HD
ENDBRANCH  11  12
ENDBRANCH   4  11
ENDBRANCH   1   3
BRANCH   1  14
ATOM     14  S   UNL     1      33.753 -16.250 -21.239  0.00  0.00    +0.074 S 
ATOM     15  O   UNL     1      32.470 -16.256 -20.561  0.00  0.00    -0.150 OA
ATOM     16  O   UNL     1      34.952 -15.887 -20.510  0.00  0.00    -0.150 OA
BRANCH  14  17
ATOM     17  C   UNL     1      33.601 -15.146 -22.614  0.00  0.00    +0.125 C 
ATOM     18  C   UNL     1      33.773 -15.639 -23.895  0.00  0.00    +0.020 C 
ATOM     19  C   UNL     1      33.313 -13.814 -22.379  0.00  0.00    +0.020 C 
ATOM     20  C   UNL     1      33.652 -14.768 -24.979  0.00  0.00    +0.001 C 
ATOM     21  C   UNL     1      33.193 -12.943 -23.463  0.00  0.00    +0.001 C 
ATOM     22  C   UNL     1      33.363 -13.421 -24.763  0.00  0.00    +0.000 C 
ENDBRANCH  14  17
ENDBRANCH   1  14
TORSDOF 5
ENDMDL
MODEL 4
REMARK VINA RESULT:      -8.8      5.247      9.309
REMARK  Name = 6102684
REMARK  5 active torsions:
REMARK  status: ('A' for Active; 'I' for Inactive)
REMARK    1  A    between atoms: N_1  and  C_3
REMARK    2  A    between atoms: N_1  and  S_14
REMARK    3  A    between atoms: C_4  and  C_11
REMARK    4  A    between atoms: C_11  and  O_12
REMARK    5  A    between atoms: S_14  and  C_17
REMARK                            x       y       z     vdW  Elec       q    Type
REMARK                         _______ _______ _______ _____ _____    ______ ____
ROOT
ATOM      1  N   UNL     1      34.650 -22.568 -17.501  0.00  0.00    -0.215 N 
ATOM      2  H   UNL     1      35.554 -22.213 -17.343  0.00  0.00    +0.174 HD
ENDROOT
BRANCH   1   3
ATOM      3  C   UNL     1      33.918 -23.195 -16.443  0.00  0.00    +0.071 C 
ATOM      4  C   UNL     1      34.579 -23.807 -15.377  0.00  0.00    +0.090 C 
ATOM      5  C   UNL     1      32.451 -24.405 -14.403  0.00  0.00    -0.022 C 
ATOM      6  C   UNL     1      32.524 -23.188 -16.488  0.00  0.00    +0.016 C 
ATOM      7  C   UNL     1      33.845 -24.411 -14.358  0.00  0.00    +0.003 C 
ATOM      8  C   UNL     1      31.790 -23.794 -15.468  0.00  0.00    -0.003 C 
ATOM      9  C   UNL     1      31.666 -25.052 -13.311  0.00  0.00    +0.031 C 
BRANCH   4  11
ATOM     10  O   UNL     1      36.747 -22.866 -15.009  0.00  0.00    -0.245 OA
ATOM     11  C   UNL     1      36.034 -23.828 -15.302  0.00  0.00    +0.339 C 
BRANCH  11  12
ATOM     12  O   UNL     1      36.549 -25.053 -15.595  0.00  0.00    -0.477 OA
ATOM     13  H   UNL     1      36.363 -25.454 -16.420  0.00  0.00    +0.295 HD
ENDBRANCH  11  12
ENDBRANCH   4  11
ENDBRANCH   1   3
BRANCH   1  14
ATOM     14  S   UNL     1      33.918 -22.447 -19.055  0.00  0.00    +0.074 S 
ATOM     15  O   UNL     1      34.205 -23.656 -19.805  0.00  0.00    -0.150 OA
ATOM     16  O   UNL     1      32.550 -21.986 -18.926  0.00  0.00    -0.150 OA
BRANCH  14  17
ATOM     17  C   UNL     1      34.859 -21.146 -19.801  0.00  0.00    +0.125 C 
ATOM     18  C   UNL     1      34.203 -20.184 -20.547  0.00  0.00    +0.020 C 
ATOM     19  C   UNL     1      36.230 -21.119 -19.624  0.00  0.00    +0.020 C 
ATOM     20  C   UNL     1      34.944 -19.158 -21.135  0.00  0.00    +0.001 C 
ATOM     21  C   UNL     1      36.971 -20.094 -20.212  0.00  0.00    +0.001 C 
ATOM     22  C   UNL     1      36.328 -19.113 -20.968  0.00  0.00    +0.000 C 
ENDBRANCH  14  17
ENDBRANCH   1  14
TORSDOF 5
ENDMDL
MODEL 5
REMARK VINA RESULT:      -8.8      1.612      2.873
REMARK  Name = 6102684
REMARK  5 active torsions:
REMARK  status: ('A' for Active; 'I' for Inactive)
REMARK    1  A    between atoms: N_1  and  C_3
REMARK    2  A    between atoms: N_1  and  S_14
REMARK    3  A    between atoms: C_4  and  C_11
REMARK    4  A    between atoms: C_11  and  O_12
REMARK    5  A    between atoms: S_14  and  C_17
REMARK                            x       y       z     vdW  Elec       q    Type
REMARK                         _______ _______ _______ _____ _____    ______ ____
ROOT
ATOM      1  N   UNL     1      35.122 -17.152 -21.759  0.00  0.00    -0.215 N 
ATOM      2  H   UNL     1      35.116 -16.812 -20.836  0.00  0.00    +0.174 HD
ENDROOT
BRANCH   1   3
ATOM      3  C   UNL     1      34.544 -16.387 -22.822  0.00  0.00    +0.071 C 
ATOM      4  C   UNL     1      33.866 -15.196 -22.563  0.00  0.00    +0.090 C 
ATOM      5  C   UNL     1      33.435 -14.929 -24.925  0.00  0.00    -0.022 C 
ATOM      6  C   UNL     1      34.667 -16.849 -24.132  0.00  0.00    +0.016 C 
ATOM      7  C   UNL     1      33.312 -14.467 -23.614  0.00  0.00    +0.003 C 
ATOM      8  C   UNL     1      34.112 -16.120 -25.184  0.00  0.00    -0.003 C 
ATOM      9  C   UNL     1      32.842 -14.149 -26.050  0.00  0.00    +0.031 C 
BRANCH   4  11
ATOM     10  O   UNL     1      32.662 -14.334 -20.684  0.00  0.00    -0.245 OA
ATOM     11  C   UNL     1      33.723 -14.687 -21.205  0.00  0.00    +0.339 C 
BRANCH  11  12
ATOM     12  O   UNL     1      34.910 -14.640 -20.542  0.00  0.00    -0.477 OA
ATOM     13  H   UNL     1      34.957 -14.250 -19.692  0.00  0.00    +0.295 HD
ENDBRANCH  11  12
ENDBRANCH   4  11
ENDBRANCH   1   3
BRANCH   1  14
ATOM     14  S   UNL     1      35.826 -18.680 -22.127  0.00  0.00    +0.074 S 
ATOM     15  O   UNL     1      35.466 -19.048 -23.484  0.00  0.00    -0.150 OA
ATOM     16  O   UNL     1      37.217 -18.698 -21.720  0.00  0.00    -0.150 OA
BRANCH  14  17
ATOM     17  C   UNL     1      34.933 -19.763 -21.048  0.00  0.00    +0.125 C 
ATOM     18  C   UNL     1      35.628 -20.710 -20.320  0.00  0.00    +0.020 C 
ATOM     19  C   UNL     1      33.558 -19.639 -20.957  0.00  0.00    +0.020 C 
ATOM     20  C   UNL     1      34.924 -21.563 -19.469  0.00  0.00    +0.001 C 
ATOM     21  C   UNL     1      32.854 -20.492 -20.107  0.00  0.00    +0.001 C 
ATOM     22  C   UNL     1      33.537 -21.455 -19.363  0.00  0.00    +0.000 C 
ENDBRANCH  14  17
ENDBRANCH   1  14
TORSDOF 5
ENDMDL
MODEL 6
REMARK VINA RESULT:      -8.8      3.183      7.560
REMARK  Name = 6102684
REMARK  5 active torsions:
REMARK  status: ('A' for Active; 'I' for Inactive)
REMARK    1  A    between atoms: N_1  and  C_3
REMARK    2  A    between atoms: N_1  and  S_14
REMARK    3  A    between atoms: C_4  and  C_11
REMARK    4  A    between atoms: C_11  and  O_12
REMARK    5  A    between atoms: S_14  and  C_17
REMARK                            x       y       z     vdW  Elec       q    Type
REMARK                         _______ _______ _______ _____ _____    ______ ____
ROOT
ATOM      1  N   UNL     1      34.497 -13.851 -23.254  0.00  0.00    -0.215 N 
ATOM      2  H   UNL     1      35.224 -13.314 -22.865  0.00  0.00    +0.174 HD
ENDROOT
BRANCH   1   3
ATOM      3  C   UNL     1      34.594 -15.278 -23.306  0.00  0.00    +0.071 C 
ATOM      4  C   UNL     1      34.461 -16.049 -22.150  0.00  0.00    +0.090 C 
ATOM      5  C   UNL     1      34.789 -18.057 -23.453  0.00  0.00    -0.022 C 
ATOM      6  C   UNL     1      34.823 -15.897 -24.534  0.00  0.00    +0.016 C 
ATOM      7  C   UNL     1      34.559 -17.438 -22.224  0.00  0.00    +0.003 C 
ATOM      8  C   UNL     1      34.922 -17.287 -24.609  0.00  0.00    -0.003 C 
ATOM      9  C   UNL     1      34.893 -19.543 -23.533  0.00  0.00    +0.031 C 
BRANCH   4  11
ATOM     10  O   UNL     1      35.036 -15.367 -19.931  0.00  0.00    -0.245 OA
ATOM     11  C   UNL     1      34.220 -15.432 -20.853  0.00  0.00    +0.339 C 
BRANCH  11  12
ATOM     12  O   UNL     1      32.966 -14.913 -20.753  0.00  0.00    -0.477 OA
ATOM     13  H   UNL     1      32.246 -15.469 -20.529  0.00  0.00    +0.295 HD
ENDBRANCH  11  12
ENDBRANCH   4  11
ENDBRANCH   1   3
BRANCH   1  14
ATOM     14  S   UNL     1      33.087 -13.094 -23.887  0.00  0.00    +0.074 S 
ATOM     15  O   UNL     1      32.917 -13.498 -25.271  0.00  0.00    -0.150 OA
ATOM     16  O   UNL     1      31.985 -13.235 -22.955  0.00  0.00    -0.150 OA
BRANCH  14  17
ATOM     17  C   UNL     1      33.565 -11.390 -23.906  0.00  0.00    +0.125 C 
ATOM     18  C   UNL     1      32.840 -10.480 -23.159  0.00  0.00    +0.020 C 
ATOM     19  C   UNL     1      34.652 -11.004 -24.667  0.00  0.00    +0.020 C 
ATOM     20  C   UNL     1      33.217  -9.136 -23.173  0.00  0.00    +0.001 C 
ATOM     21  C   UNL     1      35.029  -9.660 -24.682  0.00  0.00    +0.001 C 
ATOM     22  C   UNL     1      34.311  -8.727 -23.935  0.00  0.00    +0.000 C 
ENDBRANCH  14  17
ENDBRANCH   1  14
TORSDOF 5
ENDMDL
MODEL 7
REMARK VINA RESULT:      -8.7      9.237     12.160
REMARK  Name = 6102684
REMARK  5 active torsions:
REMARK  status: ('A' for Active; 'I' for Inactive)
REMARK    1  A    between atoms: N_1  and  C_3
REMARK    2  A    between atoms: N_1  and  S_14
REMARK    3  A    between atoms: C_4  and  C_11
REMARK    4  A    between atoms: C_11  and  O_12
REMARK    5  A    between atoms: S_14  and  C_17
REMARK                            x       y       z     vdW  Elec       q    Type
REMARK                         _______ _______ _______ _____ _____    ______ ____
ROOT
ATOM      1  N   UNL     1      34.588 -24.972 -14.529  0.00  0.00    -0.215 N 
ATOM      2  H   UNL     1      33.894 -25.562 -14.155  0.00  0.00    +0.174 HD
ENDROOT
BRANCH   1   3
ATOM      3  C   UNL     1      35.969 -25.183 -14.217  0.00  0.00    +0.071 C 
ATOM      4  C   UNL     1      36.446 -25.015 -12.917  0.00  0.00    +0.090 C 
ATOM      5  C   UNL     1      38.668 -25.606 -13.656  0.00  0.00    -0.022 C 
ATOM      6  C   UNL     1      36.842 -25.562 -15.237  0.00  0.00    +0.016 C 
ATOM      7  C   UNL     1      37.795 -25.227 -12.637  0.00  0.00    +0.003 C 
ATOM      8  C   UNL     1      38.192 -25.773 -14.957  0.00  0.00    -0.003 C 
ATOM      9  C   UNL     1      40.112 -25.832 -13.357  0.00  0.00    +0.031 C 
BRANCH   4  11
ATOM     10  O   UNL     1      35.427 -25.223 -10.763  0.00  0.00    -0.245 OA
ATOM     11  C   UNL     1      35.557 -24.621 -11.831  0.00  0.00    +0.339 C 
BRANCH  11  12
ATOM     12  O   UNL     1      34.863 -23.487 -12.117  0.00  0.00    -0.477 OA
ATOM     13  H   UNL     1      34.348 -23.073 -11.452  0.00  0.00    +0.295 HD
ENDBRANCH  11  12
ENDBRANCH   4  11
ENDBRANCH   1   3
BRANCH   1  14
ATOM     14  S   UNL     1      34.165 -23.665 -15.567  0.00  0.00    +0.074 S 
ATOM     15  O   UNL     1      34.751 -22.443 -15.048  0.00  0.00    -0.150 OA
ATOM     16  O   UNL     1      34.383 -24.039 -16.951  0.00  0.00    -0.150 OA
BRANCH  14  17
ATOM     17  C   UNL     1      32.417 -23.546 -15.309  0.00  0.00    +0.125 C 
ATOM     18  C   UNL     1      31.612 -23.114 -16.347  0.00  0.00    +0.020 C 
ATOM     19  C   UNL     1      31.894 -23.886 -14.075  0.00  0.00    +0.020 C 
ATOM     20  C   UNL     1      30.235 -23.020 -16.143  0.00  0.00    +0.001 C 
ATOM     21  C   UNL     1      30.517 -23.792 -13.871  0.00  0.00    +0.001 C 
ATOM     22  C   UNL     1      29.687 -23.358 -14.906  0.00  0.00    +0.000 C 
ENDBRANCH  14  17
ENDBRANCH   1  14
TORSDOF 5
ENDMDL
MODEL 8
REMARK VINA RESULT:      -8.6      7.885     11.798
REMARK  Name = 6102684
REMARK  5 active torsions:
REMARK  status: ('A' for Active; 'I' for Inactive)
REMARK    1  A    between atoms: N_1  and  C_3
REMARK    2  A    between atoms: N_1  and  S_14
REMARK    3  A    between atoms: C_4  and  C_11
REMARK    4  A    between atoms: C_11  and  O_12
REMARK    5  A    between atoms: S_14  and  C_17
REMARK                            x       y       z     vdW  Elec       q    Type
REMARK                         _______ _______ _______ _____ _____    ______ ____
ROOT
ATOM      1  N   UNL     1      36.309 -23.158 -14.482  0.00  0.00    -0.215 N 
ATOM      2  H   UNL     1      36.314 -22.235 -14.142  0.00  0.00    +0.174 HD
ENDROOT
BRANCH   1   3
ATOM      3  C   UNL     1      37.460 -23.995 -14.336  0.00  0.00    +0.071 C 
ATOM      4  C   UNL     1      37.666 -24.738 -13.174  0.00  0.00    +0.090 C 
ATOM      5  C   UNL     1      39.720 -25.613 -14.096  0.00  0.00    -0.022 C 
ATOM      6  C   UNL     1      38.385 -24.061 -15.379  0.00  0.00    +0.016 C 
ATOM      7  C   UNL     1      38.795 -25.547 -13.054  0.00  0.00    +0.003 C 
ATOM      8  C   UNL     1      39.515 -24.870 -15.259  0.00  0.00    -0.003 C 
ATOM      9  C   UNL     1      40.928 -26.478 -13.968  0.00  0.00    +0.031 C 
BRANCH   4  11
ATOM     10  O   UNL     1      36.954 -24.244 -10.944  0.00  0.00    -0.245 OA
ATOM     11  C   UNL     1      36.717 -24.690 -12.069  0.00  0.00    +0.339 C 
BRANCH  11  12
ATOM     12  O   UNL     1      35.502 -25.199 -12.408  0.00  0.00    -0.477 OA
ATOM     13  H   UNL     1      34.876 -24.662 -12.851  0.00  0.00    +0.295 HD
ENDBRANCH  11  12
ENDBRANCH   4  11
ENDBRANCH   1   3
BRANCH   1  14
ATOM     14  S   UNL     1      34.915 -23.798 -15.265  0.00  0.00    +0.074 S 
ATOM     15  O   UNL     1      35.136 -25.205 -15.543  0.00  0.00    -0.150 OA
ATOM     16  O   UNL     1      33.716 -23.382 -14.565  0.00  0.00    -0.150 OA
BRANCH  14  17
ATOM     17  C   UNL     1      34.952 -22.956 -16.822  0.00  0.00    +0.125 C 
ATOM     18  C   UNL     1      36.102 -22.289 -17.199  0.00  0.00    +0.020 C 
ATOM     19  C   UNL     1      33.829 -22.983 -17.628  0.00  0.00    +0.020 C 
ATOM     20  C   UNL     1      36.132 -21.625 -18.426  0.00  0.00    +0.001 C 
ATOM     21  C   UNL     1      33.857 -22.319 -18.855  0.00  0.00    +0.001 C 
ATOM     22  C   UNL     1      35.009 -21.640 -19.254  0.00  0.00    +0.000 C 
ENDBRANCH  14  17
ENDBRANCH   1  14
TORSDOF 5
ENDMDL
MODEL 9
REMARK VINA RESULT:      -8.5      3.470      4.776
REMARK  Name = 6102684
REMARK  5 active torsions:
REMARK  status: ('A' for Active; 'I' for Inactive)
REMARK    1  A    between atoms: N_1  and  C_3
REMARK    2  A    between atoms: N_1  and  S_14
REMARK    3  A    between atoms: C_4  and  C_11
REMARK    4  A    between atoms: C_11  and  O_12
REMARK    5  A    between atoms: S_14  and  C_17
REMARK                            x       y       z     vdW  Elec       q    Type
REMARK                         _______ _______ _______ _____ _____    ______ ____
ROOT
ATOM      1  N   UNL     1      32.593 -13.567 -23.278  0.00  0.00    -0.215 N 
ATOM      2  H   UNL     1      32.331 -13.858 -24.181  0.00  0.00    +0.174 HD
ENDROOT
BRANCH   1   3
ATOM      3  C   UNL     1      32.444 -12.200 -22.881  0.00  0.00    +0.071 C 
ATOM      4  C   UNL     1      33.103 -11.178 -23.565  0.00  0.00    +0.090 C 
ATOM      5  C   UNL     1      32.125  -9.549 -22.072  0.00  0.00    -0.022 C 
ATOM      6  C   UNL     1      31.626 -11.897 -21.793  0.00  0.00    +0.016 C 
ATOM      7  C   UNL     1      32.943  -9.853 -23.160  0.00  0.00    +0.003 C 
ATOM      8  C   UNL     1      31.466 -10.571 -21.388  0.00  0.00    -0.003 C 
ATOM      9  C   UNL     1      31.953  -8.132 -21.640  0.00  0.00    +0.031 C 
BRANCH   4  11
ATOM     10  O   UNL     1      33.708 -12.265 -25.608  0.00  0.00    -0.245 OA
ATOM     11  C   UNL     1      33.963 -11.464 -24.706  0.00  0.00    +0.339 C 
BRANCH  11  12
ATOM     12  O   UNL     1      35.113 -10.737 -24.682  0.00  0.00    -0.477 OA
ATOM     13  H   UNL     1      35.312 -10.152 -25.385  0.00  0.00    +0.295 HD
ENDBRANCH  11  12
ENDBRANCH   4  11
ENDBRANCH   1   3
BRANCH   1  14
ATOM     14  S   UNL     1      33.239 -14.691 -22.146  0.00  0.00    +0.074 S 
ATOM     15  O   UNL     1      34.361 -14.077 -21.461  0.00  0.00    -0.150 OA
ATOM     16  O   UNL     1      32.168 -15.295 -21.377  0.00  0.00    -0.150 OA
BRANCH  14  17
ATOM     17  C   UNL     1      33.909 -15.937 -23.211  0.00  0.00    +0.125 C 
ATOM     18  C   UNL     1      33.850 -15.755 -24.580  0.00  0.00    +0.020 C 
ATOM     19  C   UNL     1      34.478 -17.066 -22.651  0.00  0.00    +0.020 C 
ATOM     20  C   UNL     1      34.378 -16.736 -25.419  0.00  0.00    +0.001 C 
ATOM     21  C   UNL     1      35.006 -18.048 -23.490  0.00  0.00    +0.001 C 
ATOM     22  C   UNL     1      34.956 -17.883 -24.874  0.00  0.00    +0.000 C 
ENDBRANCH  14  17
ENDBRANCH   1  14
TORSDOF 5
ENDMDL
