MODEL 1
REMARK VINA RESULT:      -7.9      0.000      0.000
REMARK  Name = 121947
REMARK  8 active torsions:
REMARK  status: ('A' for Active; 'I' for Inactive)
REMARK    1  A    between atoms: C_1  and  O_7
REMARK    2  A    between atoms: C_2  and  O_9
REMARK    3  A    between atoms: C_3  and  O_15
REMARK    4  A    between atoms: C_5  and  C_12
REMARK    5  A    between atoms: C_12  and  O_13
REMARK    6  A    between atoms: O_15  and  P_16
REMARK    7  A    between atoms: P_16  and  O_18
REMARK    8  A    between atoms: P_16  and  O_20
REMARK                            x       y       z     vdW  Elec       q    Type
REMARK                         _______ _______ _______ _____ _____    ______ ____
ROOT
ATOM      1  C   UNL     1      36.670 -25.523 -15.020  0.00  0.00    +0.169 C 
ATOM      2  C   UNL     1      35.490 -24.584 -14.752  0.00  0.00    +0.145 C 
ATOM      3  C   UNL     1      37.899 -25.128 -14.181  0.00  0.00    +0.177 C 
ATOM      4  C   UNL     1      35.113 -24.551 -13.260  0.00  0.00    +0.064 C 
ATOM      5  C   UNL     1      36.308 -24.573 -12.347  0.00  0.00    +0.054 C 
ATOM      6  C   UNL     1      37.562 -24.823 -12.749  0.00  0.00    +0.008 C 
ENDROOT
BRANCH   1   7
ATOM      7  O   UNL     1      36.261 -26.856 -14.709  0.00  0.00    -0.379 OA
ATOM      8  H   UNL     1      36.038 -26.915 -13.767  0.00  0.00    +0.211 HD
ENDBRANCH   1   7
BRANCH   2   9
ATOM      9  O   UNL     1      35.833 -23.272 -15.195  0.00  0.00    -0.382 OA
ATOM     10  H   UNL     1      36.374 -22.834 -14.518  0.00  0.00    +0.210 HD
ENDBRANCH   2   9
BRANCH   5  12
ATOM     11  O   UNL     1      35.295 -24.862 -10.216  0.00  0.00    -0.245 OA
ATOM     12  C   UNL     1      36.097 -24.283 -10.926  0.00  0.00    +0.334 C 
BRANCH  12  13
ATOM     13  O   UNL     1      36.921 -23.288 -10.541  0.00  0.00    -0.477 OA
ATOM     14  H   UNL     1      37.840 -23.346 -10.715  0.00  0.00    +0.295 HD
ENDBRANCH  12  13
ENDBRANCH   5  12
BRANCH   3  15
ATOM     15  O   UNL     1      38.868 -26.171 -14.222  0.00  0.00    -0.269 OA
BRANCH  15  16
ATOM     16  P   UNL     1      40.391 -25.785 -14.601  0.00  0.00    +0.473 P 
ATOM     17  O   UNL     1      40.874 -24.478 -14.043  0.00  0.00    -0.227 OA
BRANCH  16  18
ATOM     18  O   UNL     1      40.431 -25.907 -16.212  0.00  0.00    -0.303 OA
ATOM     19  H   UNL     1      41.237 -25.487 -16.549  0.00  0.00    +0.222 HD
ENDBRANCH  16  18
BRANCH  16  20
ATOM     20  O   UNL     1      41.220 -27.084 -14.109  0.00  0.00    -0.303 OA
ATOM     21  H   UNL     1      41.176 -27.148 -13.142  0.00  0.00    +0.222 HD
ENDBRANCH  16  20
ENDBRANCH  15  16
ENDBRANCH   3  15
TORSDOF 8
ENDMDL
MODEL 2
REMARK VINA RESULT:      -7.6      1.315      3.320
REMARK  Name = 121947
REMARK  8 active torsions:
REMARK  status: ('A' for Active; 'I' for Inactive)
REMARK    1  A    between atoms: C_1  and  O_7
REMARK    2  A    between atoms: C_2  and  O_9
REMARK    3  A    between atoms: C_3  and  O_15
REMARK    4  A    between atoms: C_5  and  C_12
REMARK    5  A    between atoms: C_12  and  O_13
REMARK    6  A    between atoms: O_15  and  P_16
REMARK    7  A    between atoms: P_16  and  O_18
REMARK    8  A    between atoms: P_16  and  O_20
REMARK                            x       y       z     vdW  Elec       q    Type
REMARK                         _______ _______ _______ _____ _____    ______ ____
ROOT
ATOM      1  C   UNL     1      38.001 -24.266 -11.925  0.00  0.00    +0.169 C 
ATOM      2  C   UNL     1      36.536 -24.137 -11.500  0.00  0.00    +0.145 C 
ATOM      3  C   UNL     1      38.127 -24.974 -13.286  0.00  0.00    +0.177 C 
ATOM      4  C   UNL     1      35.699 -23.390 -12.555  0.00  0.00    +0.064 C 
ATOM      5  C   UNL     1      36.067 -23.753 -13.967  0.00  0.00    +0.054 C 
ATOM      6  C   UNL     1      37.148 -24.468 -14.307  0.00  0.00    +0.008 C 
ENDROOT
BRANCH   1   7
ATOM      7  O   UNL     1      38.567 -22.956 -11.990  0.00  0.00    -0.379 OA
ATOM      8  H   UNL     1      39.459 -22.970 -11.610  0.00  0.00    +0.211 HD
ENDBRANCH   1   7
BRANCH   2   9
ATOM      9  O   UNL     1      35.999 -25.442 -11.290  0.00  0.00    -0.382 OA
ATOM     10  H   UNL     1      35.500 -25.455 -10.457  0.00  0.00    +0.210 HD
ENDBRANCH   2   9
BRANCH   5  12
ATOM     11  O   UNL     1      35.414 -23.451 -16.233  0.00  0.00    -0.245 OA
ATOM     12  C   UNL     1      35.178 -23.314 -15.046  0.00  0.00    +0.334 C 
BRANCH  12  13
ATOM     13  O   UNL     1      34.074 -22.744 -14.520  0.00  0.00    -0.477 OA
ATOM     14  H   UNL     1      33.326 -23.270 -14.317  0.00  0.00    +0.295 HD
ENDBRANCH  12  13
ENDBRANCH   5  12
BRANCH   3  15
ATOM     15  O   UNL     1      39.450 -24.821 -13.791  0.00  0.00    -0.269 OA
BRANCH  15  16
ATOM     16  P   UNL     1      40.123 -26.069 -14.566  0.00  0.00    +0.473 P 
ATOM     17  O   UNL     1      41.363 -26.621 -13.927  0.00  0.00    -0.227 OA
BRANCH  16  18
ATOM     18  O   UNL     1      40.305 -25.531 -16.080  0.00  0.00    -0.303 OA
ATOM     19  H   UNL     1      40.946 -26.089 -16.547  0.00  0.00    +0.222 HD
ENDBRANCH  16  18
BRANCH  16  20
ATOM     20  O   UNL     1      38.896 -27.115 -14.689  0.00  0.00    -0.303 OA
ATOM     21  H   UNL     1      38.887 -27.499 -15.580  0.00  0.00    +0.222 HD
ENDBRANCH  16  20
ENDBRANCH  15  16
ENDBRANCH   3  15
TORSDOF 8
ENDMDL
MODEL 3
REMARK VINA RESULT:      -7.4      2.819      5.594
REMARK  Name = 121947
REMARK  8 active torsions:
REMARK  status: ('A' for Active; 'I' for Inactive)
REMARK    1  A    between atoms: C_1  and  O_7
REMARK    2  A    between atoms: C_2  and  O_9
REMARK    3  A    between atoms: C_3  and  O_15
REMARK    4  A    between atoms: C_5  and  C_12
REMARK    5  A    between atoms: C_12  and  O_13
REMARK    6  A    between atoms: O_15  and  P_16
REMARK    7  A    between atoms: P_16  and  O_18
REMARK    8  A    between atoms: P_16  and  O_20
REMARK                            x       y       z     vdW  Elec       q    Type
REMARK                         _______ _______ _______ _____ _____    ______ ____
ROOT
ATOM      1  C   UNL     1      36.149 -24.038 -11.608  0.00  0.00    +0.169 C 
ATOM      2  C   UNL     1      37.660 -23.854 -11.780  0.00  0.00    +0.145 C 
ATOM      3  C   UNL     1      35.443 -24.158 -12.970  0.00  0.00    +0.177 C 
ATOM      4  C   UNL     1      38.286 -25.003 -12.591  0.00  0.00    +0.064 C 
ATOM      5  C   UNL     1      37.426 -25.455 -13.738  0.00  0.00    +0.054 C 
ATOM      6  C   UNL     1      36.152 -25.078 -13.923  0.00  0.00    +0.008 C 
ENDROOT
BRANCH   1   7
ATOM      7  O   UNL     1      35.926 -25.212 -10.825  0.00  0.00    -0.379 OA
ATOM      8  H   UNL     1      35.783 -24.960  -9.899  0.00  0.00    +0.211 HD
ENDBRANCH   1   7
BRANCH   2   9
ATOM      9  O   UNL     1      37.904 -22.610 -12.433  0.00  0.00    -0.382 OA
ATOM     10  H   UNL     1      38.856 -22.509 -12.590  0.00  0.00    +0.210 HD
ENDBRANCH   2   9
BRANCH   5  12
ATOM     11  O   UNL     1      39.132 -26.836 -14.651  0.00  0.00    -0.245 OA
ATOM     12  C   UNL     1      38.018 -26.352 -14.734  0.00  0.00    +0.334 C 
BRANCH  12  13
ATOM     13  O   UNL     1      37.142 -26.551 -15.741  0.00  0.00    -0.477 OA
ATOM     14  H   UNL     1      36.246 -26.745 -15.550  0.00  0.00    +0.295 HD
ENDBRANCH  12  13
ENDBRANCH   5  12
BRANCH   3  15
ATOM     15  O   UNL     1      34.108 -24.616 -12.785  0.00  0.00    -0.269 OA
BRANCH  15  16
ATOM     16  P   UNL     1      32.979 -24.128 -13.833  0.00  0.00    +0.473 P 
ATOM     17  O   UNL     1      33.504 -23.626 -15.146  0.00  0.00    -0.227 OA
BRANCH  16  18
ATOM     18  O   UNL     1      32.101 -23.066 -12.988  0.00  0.00    -0.303 OA
ATOM     19  H   UNL     1      32.015 -23.373 -12.072  0.00  0.00    +0.222 HD
ENDBRANCH  16  18
BRANCH  16  20
ATOM     20  O   UNL     1      32.007 -25.417 -13.935  0.00  0.00    -0.303 OA
ATOM     21  H   UNL     1      32.125 -25.973 -13.149  0.00  0.00    +0.222 HD
ENDBRANCH  16  20
ENDBRANCH  15  16
ENDBRANCH   3  15
TORSDOF 8
ENDMDL
MODEL 4
REMARK VINA RESULT:      -7.4      2.262      5.125
REMARK  Name = 121947
REMARK  8 active torsions:
REMARK  status: ('A' for Active; 'I' for Inactive)
REMARK    1  A    between atoms: C_1  and  O_7
REMARK    2  A    between atoms: C_2  and  O_9
REMARK    3  A    between atoms: C_3  and  O_15
REMARK    4  A    between atoms: C_5  and  C_12
REMARK    5  A    between atoms: C_12  and  O_13
REMARK    6  A    between atoms: O_15  and  P_16
REMARK    7  A    between atoms: P_16  and  O_18
REMARK    8  A    between atoms: P_16  and  O_20
REMARK                            x       y       z     vdW  Elec       q    Type
REMARK                         _______ _______ _______ _____ _____    ______ ____
ROOT
ATOM      1  C   UNL     1      36.594 -24.588 -13.131  0.00  0.00    +0.169 C 
ATOM      2  C   UNL     1      37.815 -24.477 -12.214  0.00  0.00    +0.145 C 
ATOM      3  C   UNL     1      36.957 -24.244 -14.587  0.00  0.00    +0.177 C 
ATOM      4  C   UNL     1      38.970 -25.377 -12.689  0.00  0.00    +0.064 C 
ATOM      5  C   UNL     1      39.125 -25.401 -14.185  0.00  0.00    +0.054 C 
ATOM      6  C   UNL     1      38.233 -24.890 -15.046  0.00  0.00    +0.008 C 
ENDROOT
BRANCH   1   7
ATOM      7  O   UNL     1      36.088 -25.921 -13.045  0.00  0.00    -0.379 OA
ATOM      8  H   UNL     1      36.210 -26.368 -13.897  0.00  0.00    +0.211 HD
ENDBRANCH   1   7
BRANCH   2   9
ATOM      9  O   UNL     1      38.244 -23.117 -12.177  0.00  0.00    -0.382 OA
ATOM     10  H   UNL     1      38.931 -22.976 -12.847  0.00  0.00    +0.210 HD
ENDBRANCH   2   9
BRANCH   5  12
ATOM     11  O   UNL     1      41.194 -26.568 -14.087  0.00  0.00    -0.245 OA
ATOM     12  C   UNL     1      40.338 -26.004 -14.744  0.00  0.00    +0.334 C 
BRANCH  12  13
ATOM     13  O   UNL     1      40.351 -25.835 -16.082  0.00  0.00    -0.477 OA
ATOM     14  H   UNL     1      40.410 -26.580 -16.648  0.00  0.00    +0.295 HD
ENDBRANCH  12  13
ENDBRANCH   5  12
BRANCH   3  15
ATOM     15  O   UNL     1      35.898 -24.634 -15.456  0.00  0.00    -0.269 OA
BRANCH  15  16
ATOM     16  P   UNL     1      34.590 -23.688 -15.540  0.00  0.00    +0.473 P 
ATOM     17  O   UNL     1      33.376 -24.218 -14.834  0.00  0.00    -0.227 OA
BRANCH  16  18
ATOM     18  O   UNL     1      34.408 -23.422 -17.124  0.00  0.00    -0.303 OA
ATOM     19  H   UNL     1      34.561 -22.483 -17.314  0.00  0.00    +0.222 HD
ENDBRANCH  16  18
BRANCH  16  20
ATOM     20  O   UNL     1      35.138 -22.272 -14.985  0.00  0.00    -0.303 OA
ATOM     21  H   UNL     1      34.562 -21.557 -15.300  0.00  0.00    +0.222 HD
ENDBRANCH  16  20
ENDBRANCH  15  16
ENDBRANCH   3  15
TORSDOF 8
ENDMDL
MODEL 5
REMARK VINA RESULT:      -7.2      2.976      5.167
REMARK  Name = 121947
REMARK  8 active torsions:
REMARK  status: ('A' for Active; 'I' for Inactive)
REMARK    1  A    between atoms: C_1  and  O_7
REMARK    2  A    between atoms: C_2  and  O_9
REMARK    3  A    between atoms: C_3  and  O_15
REMARK    4  A    between atoms: C_5  and  C_12
REMARK    5  A    between atoms: C_12  and  O_13
REMARK    6  A    between atoms: O_15  and  P_16
REMARK    7  A    between atoms: P_16  and  O_18
REMARK    8  A    between atoms: P_16  and  O_20
REMARK                            x       y       z     vdW  Elec       q    Type
REMARK                         _______ _______ _______ _____ _____    ______ ____
ROOT
ATOM      1  C   UNL     1      35.924 -25.157 -15.174  0.00  0.00    +0.169 C 
ATOM      2  C   UNL     1      37.122 -25.863 -14.534  0.00  0.00    +0.145 C 
ATOM      3  C   UNL     1      34.936 -24.656 -14.105  0.00  0.00    +0.177 C 
ATOM      4  C   UNL     1      37.855 -24.951 -13.534  0.00  0.00    +0.064 C 
ATOM      5  C   UNL     1      36.923 -24.108 -12.708  0.00  0.00    +0.054 C 
ATOM      6  C   UNL     1      35.611 -23.974 -12.950  0.00  0.00    +0.008 C 
ENDROOT
BRANCH   1   7
ATOM      7  O   UNL     1      36.411 -24.063 -15.953  0.00  0.00    -0.379 OA
ATOM      8  H   UNL     1      36.018 -23.237 -15.632  0.00  0.00    +0.211 HD
ENDBRANCH   1   7
BRANCH   2   9
ATOM      9  O   UNL     1      36.666 -27.041 -13.873  0.00  0.00    -0.382 OA
ATOM     10  H   UNL     1      37.043 -27.077 -12.979  0.00  0.00    +0.210 HD
ENDBRANCH   2   9
BRANCH   5  12
ATOM     11  O   UNL     1      38.394 -22.602 -11.603  0.00  0.00    -0.245 OA
ATOM     12  C   UNL     1      37.475 -23.399 -11.551  0.00  0.00    +0.334 C 
BRANCH  12  13
ATOM     13  O   UNL     1      36.811 -23.769 -10.436  0.00  0.00    -0.477 OA
ATOM     14  H   UNL     1      36.306 -24.558 -10.431  0.00  0.00    +0.295 HD
ENDBRANCH  12  13
ENDBRANCH   5  12
BRANCH   3  15
ATOM     15  O   UNL     1      33.998 -23.761 -14.693  0.00  0.00    -0.269 OA
BRANCH  15  16
ATOM     16  P   UNL     1      32.433 -23.947 -14.335  0.00  0.00    +0.473 P 
ATOM     17  O   UNL     1      31.484 -23.649 -15.458  0.00  0.00    -0.227 OA
BRANCH  16  18
ATOM     18  O   UNL     1      32.233 -23.052 -13.004  0.00  0.00    -0.303 OA
ATOM     19  H   UNL     1      31.286 -22.954 -12.819  0.00  0.00    +0.222 HD
ENDBRANCH  16  18
BRANCH  16  20
ATOM     20  O   UNL     1      32.374 -25.464 -13.776  0.00  0.00    -0.303 OA
ATOM     21  H   UNL     1      31.755 -25.982 -14.315  0.00  0.00    +0.222 HD
ENDBRANCH  16  20
ENDBRANCH  15  16
ENDBRANCH   3  15
TORSDOF 8
ENDMDL
MODEL 6
REMARK VINA RESULT:      -7.0      2.559      4.730
REMARK  Name = 121947
REMARK  8 active torsions:
REMARK  status: ('A' for Active; 'I' for Inactive)
REMARK    1  A    between atoms: C_1  and  O_7
REMARK    2  A    between atoms: C_2  and  O_9
REMARK    3  A    between atoms: C_3  and  O_15
REMARK    4  A    between atoms: C_5  and  C_12
REMARK    5  A    between atoms: C_12  and  O_13
REMARK    6  A    between atoms: O_15  and  P_16
REMARK    7  A    between atoms: P_16  and  O_18
REMARK    8  A    between atoms: P_16  and  O_20
REMARK                            x       y       z     vdW  Elec       q    Type
REMARK                         _______ _______ _______ _____ _____    ______ ____
ROOT
ATOM      1  C   UNL     1      34.712 -24.298 -13.543  0.00  0.00    +0.169 C 
ATOM      2  C   UNL     1      33.224 -23.981 -13.713  0.00  0.00    +0.145 C 
ATOM      3  C   UNL     1      35.276 -25.014 -14.783  0.00  0.00    +0.177 C 
ATOM      4  C   UNL     1      32.961 -23.131 -14.970  0.00  0.00    +0.064 C 
ATOM      5  C   UNL     1      33.806 -23.536 -16.145  0.00  0.00    +0.054 C 
ATOM      6  C   UNL     1      34.842 -24.385 -16.076  0.00  0.00    +0.008 C 
ENDROOT
BRANCH   1   7
ATOM      7  O   UNL     1      35.408 -23.072 -13.315  0.00  0.00    -0.379 OA
ATOM      8  H   UNL     1      34.803 -22.425 -12.919  0.00  0.00    +0.211 HD
ENDBRANCH   1   7
BRANCH   2   9
ATOM      9  O   UNL     1      32.496 -25.205 -13.795  0.00  0.00    -0.382 OA
ATOM     10  H   UNL     1      32.147 -25.314 -14.695  0.00  0.00    +0.210 HD
ENDBRANCH   2   9
BRANCH   5  12
ATOM     11  O   UNL     1      34.274 -22.789 -18.354  0.00  0.00    -0.245 OA
ATOM     12  C   UNL     1      33.469 -22.985 -17.461  0.00  0.00    +0.334 C 
BRANCH  12  13
ATOM     13  O   UNL     1      32.145 -22.734 -17.520  0.00  0.00    -0.477 OA
ATOM     14  H   UNL     1      31.535 -23.443 -17.549  0.00  0.00    +0.295 HD
ENDBRANCH  12  13
ENDBRANCH   5  12
BRANCH   3  15
ATOM     15  O   UNL     1      36.699 -25.033 -14.726  0.00  0.00    -0.269 OA
BRANCH  15  16
ATOM     16  P   UNL     1      37.447 -26.465 -14.742  0.00  0.00    +0.473 P 
ATOM     17  O   UNL     1      38.943 -26.402 -14.649  0.00  0.00    -0.227 OA
BRANCH  16  18
ATOM     18  O   UNL     1      36.866 -27.190 -16.065  0.00  0.00    -0.303 OA
ATOM     19  H   UNL     1      37.603 -27.488 -16.621  0.00  0.00    +0.222 HD
ENDBRANCH  16  18
BRANCH  16  20
ATOM     20  O   UNL     1      36.721 -27.259 -13.535  0.00  0.00    -0.303 OA
ATOM     21  H   UNL     1      37.387 -27.742 -13.020  0.00  0.00    +0.222 HD
ENDBRANCH  16  20
ENDBRANCH  15  16
ENDBRANCH   3  15
TORSDOF 8
ENDMDL
MODEL 7
REMARK VINA RESULT:      -6.8      3.253      5.973
REMARK  Name = 121947
REMARK  8 active torsions:
REMARK  status: ('A' for Active; 'I' for Inactive)
REMARK    1  A    between atoms: C_1  and  O_7
REMARK    2  A    between atoms: C_2  and  O_9
REMARK    3  A    between atoms: C_3  and  O_15
REMARK    4  A    between atoms: C_5  and  C_12
REMARK    5  A    between atoms: C_12  and  O_13
REMARK    6  A    between atoms: O_15  and  P_16
REMARK    7  A    between atoms: P_16  and  O_18
REMARK    8  A    between atoms: P_16  and  O_20
REMARK                            x       y       z     vdW  Elec       q    Type
REMARK                         _______ _______ _______ _____ _____    ______ ____
ROOT
ATOM      1  C   UNL     1      35.335 -23.112 -14.314  0.00  0.00    +0.169 C 
ATOM      2  C   UNL     1      36.573 -22.977 -15.204  0.00  0.00    +0.145 C 
ATOM      3  C   UNL     1      34.514 -24.360 -14.684  0.00  0.00    +0.177 C 
ATOM      4  C   UNL     1      37.467 -24.229 -15.134  0.00  0.00    +0.064 C 
ATOM      5  C   UNL     1      36.685 -25.512 -15.084  0.00  0.00    +0.054 C 
ATOM      6  C   UNL     1      35.360 -25.584 -14.890  0.00  0.00    +0.008 C 
ENDROOT
BRANCH   1   7
ATOM      7  O   UNL     1      35.767 -23.185 -12.954  0.00  0.00    -0.379 OA
ATOM      8  H   UNL     1      35.008 -23.389 -12.385  0.00  0.00    +0.211 HD
ENDBRANCH   1   7
BRANCH   2   9
ATOM      9  O   UNL     1      36.153 -22.756 -16.549  0.00  0.00    -0.382 OA
ATOM     10  H   UNL     1      36.458 -21.883 -16.844  0.00  0.00    +0.210 HD
ENDBRANCH   2   9
BRANCH   5  12
ATOM     11  O   UNL     1      38.330 -27.152 -14.576  0.00  0.00    -0.245 OA
ATOM     12  C   UNL     1      37.410 -26.771 -15.278  0.00  0.00    +0.334 C 
BRANCH  12  13
ATOM     13  O   UNL     1      36.902 -27.426 -16.342  0.00  0.00    -0.477 OA
ATOM     14  H   UNL     1      37.375 -27.444 -17.150  0.00  0.00    +0.295 HD
ENDBRANCH  12  13
ENDBRANCH   5  12
BRANCH   3  15
ATOM     15  O   UNL     1      33.549 -24.624 -13.671  0.00  0.00    -0.269 OA
BRANCH  15  16
ATOM     16  P   UNL     1      32.087 -23.949 -13.811  0.00  0.00    +0.473 P 
ATOM     17  O   UNL     1      31.668 -23.625 -15.215  0.00  0.00    -0.227 OA
BRANCH  16  18
ATOM     18  O   UNL     1      32.143 -22.691 -12.798  0.00  0.00    -0.303 OA
ATOM     19  H   UNL     1      31.654 -21.946 -13.180  0.00  0.00    +0.222 HD
ENDBRANCH  16  18
BRANCH  16  20
ATOM     20  O   UNL     1      31.133 -25.005 -13.042  0.00  0.00    -0.303 OA
ATOM     21  H   UNL     1      31.680 -25.617 -12.525  0.00  0.00    +0.222 HD
ENDBRANCH  16  20
ENDBRANCH  15  16
ENDBRANCH   3  15
TORSDOF 8
ENDMDL
MODEL 8
REMARK VINA RESULT:      -6.8      5.604      7.687
REMARK  Name = 121947
REMARK  8 active torsions:
REMARK  status: ('A' for Active; 'I' for Inactive)
REMARK    1  A    between atoms: C_1  and  O_7
REMARK    2  A    between atoms: C_2  and  O_9
REMARK    3  A    between atoms: C_3  and  O_15
REMARK    4  A    between atoms: C_5  and  C_12
REMARK    5  A    between atoms: C_12  and  O_13
REMARK    6  A    between atoms: O_15  and  P_16
REMARK    7  A    between atoms: P_16  and  O_18
REMARK    8  A    between atoms: P_16  and  O_20
REMARK                            x       y       z     vdW  Elec       q    Type
REMARK                         _______ _______ _______ _____ _____    ______ ____
ROOT
ATOM      1  C   UNL     1      31.077 -24.497 -13.930  0.00  0.00    +0.169 C 
ATOM      2  C   UNL     1      29.747 -25.234 -14.105  0.00  0.00    +0.145 C 
ATOM      3  C   UNL     1      31.635 -24.023 -15.284  0.00  0.00    +0.177 C 
ATOM      4  C   UNL     1      28.700 -24.362 -14.823  0.00  0.00    +0.064 C 
ATOM      5  C   UNL     1      29.281 -23.538 -15.938  0.00  0.00    +0.054 C 
ATOM      6  C   UNL     1      30.595 -23.384 -16.160  0.00  0.00    +0.008 C 
ENDROOT
BRANCH   1   7
ATOM      7  O   UNL     1      30.862 -23.383 -13.062  0.00  0.00    -0.379 OA
ATOM      8  H   UNL     1      29.959 -23.418 -12.710  0.00  0.00    +0.211 HD
ENDBRANCH   1   7
BRANCH   2   9
ATOM      9  O   UNL     1      29.974 -26.430 -14.849  0.00  0.00    -0.382 OA
ATOM     10  H   UNL     1      30.810 -26.834 -14.564  0.00  0.00    +0.210 HD
ENDBRANCH   2   9
BRANCH   5  12
ATOM     11  O   UNL     1      28.168 -21.670 -16.898  0.00  0.00    -0.245 OA
ATOM     12  C   UNL     1      28.356 -22.872 -16.859  0.00  0.00    +0.334 C 
BRANCH  12  13
ATOM     13  O   UNL     1      27.758 -23.792 -17.643  0.00  0.00    -0.477 OA
ATOM     14  H   UNL     1      28.239 -24.204 -18.334  0.00  0.00    +0.295 HD
ENDBRANCH  12  13
ENDBRANCH   5  12
BRANCH   3  15
ATOM     15  O   UNL     1      32.699 -23.101 -15.074  0.00  0.00    -0.269 OA
BRANCH  15  16
ATOM     16  P   UNL     1      34.201 -23.566 -15.449  0.00  0.00    +0.473 P 
ATOM     17  O   UNL     1      34.454 -23.777 -16.913  0.00  0.00    -0.227 OA
BRANCH  16  18
ATOM     18  O   UNL     1      34.451 -24.858 -14.510  0.00  0.00    -0.303 OA
ATOM     19  H   UNL     1      34.899 -25.548 -15.023  0.00  0.00    +0.222 HD
ENDBRANCH  16  18
BRANCH  16  20
ATOM     20  O   UNL     1      35.111 -22.422 -14.757  0.00  0.00    -0.303 OA
ATOM     21  H   UNL     1      35.084 -22.527 -13.793  0.00  0.00    +0.222 HD
ENDBRANCH  16  20
ENDBRANCH  15  16
ENDBRANCH   3  15
TORSDOF 8
ENDMDL
MODEL 9
REMARK VINA RESULT:      -6.6      3.208      5.123
REMARK  Name = 121947
REMARK  8 active torsions:
REMARK  status: ('A' for Active; 'I' for Inactive)
REMARK    1  A    between atoms: C_1  and  O_7
REMARK    2  A    between atoms: C_2  and  O_9
REMARK    3  A    between atoms: C_3  and  O_15
REMARK    4  A    between atoms: C_5  and  C_12
REMARK    5  A    between atoms: C_12  and  O_13
REMARK    6  A    between atoms: O_15  and  P_16
REMARK    7  A    between atoms: P_16  and  O_18
REMARK    8  A    between atoms: P_16  and  O_20
REMARK                            x       y       z     vdW  Elec       q    Type
REMARK                         _______ _______ _______ _____ _____    ______ ____
ROOT
ATOM      1  C   UNL     1      35.503 -24.244 -14.600  0.00  0.00    +0.169 C 
ATOM      2  C   UNL     1      35.332 -23.533 -15.946  0.00  0.00    +0.145 C 
ATOM      3  C   UNL     1      34.577 -23.640 -13.529  0.00  0.00    +0.177 C 
ATOM      4  C   UNL     1      33.872 -23.578 -16.434  0.00  0.00    +0.064 C 
ATOM      5  C   UNL     1      32.873 -23.390 -15.327  0.00  0.00    +0.054 C 
ATOM      6  C   UNL     1      33.177 -23.409 -14.021  0.00  0.00    +0.008 C 
ENDROOT
BRANCH   1   7
ATOM      7  O   UNL     1      35.214 -25.631 -14.785  0.00  0.00    -0.379 OA
ATOM      8  H   UNL     1      34.666 -25.744 -15.577  0.00  0.00    +0.211 HD
ENDBRANCH   1   7
BRANCH   2   9
ATOM      9  O   UNL     1      35.757 -22.179 -15.811  0.00  0.00    -0.382 OA
ATOM     10  H   UNL     1      36.713 -22.123 -15.971  0.00  0.00    +0.210 HD
ENDBRANCH   2   9
BRANCH   5  12
ATOM     11  O   UNL     1      30.529 -23.297 -14.938  0.00  0.00    -0.245 OA
ATOM     12  C   UNL     1      31.474 -23.152 -15.692  0.00  0.00    +0.334 C 
BRANCH  12  13
ATOM     13  O   UNL     1      31.404 -22.754 -16.979  0.00  0.00    -0.477 OA
ATOM     14  H   UNL     1      31.509 -21.849 -17.196  0.00  0.00    +0.295 HD
ENDBRANCH  12  13
ENDBRANCH   5  12
BRANCH   3  15
ATOM     15  O   UNL     1      34.537 -24.491 -12.388  0.00  0.00    -0.269 OA
BRANCH  15  16
ATOM     16  P   UNL     1      35.845 -24.565 -11.442  0.00  0.00    +0.473 P 
ATOM     17  O   UNL     1      36.739 -23.361 -11.496  0.00  0.00    -0.227 OA
BRANCH  16  18
ATOM     18  O   UNL     1      36.543 -25.963 -11.857  0.00  0.00    -0.303 OA
ATOM     19  H   UNL     1      36.015 -26.397 -12.544  0.00  0.00    +0.222 HD
ENDBRANCH  16  18
BRANCH  16  20
ATOM     20  O   UNL     1      35.214 -24.882  -9.987  0.00  0.00    -0.303 OA
ATOM     21  H   UNL     1      34.421 -25.431 -10.092  0.00  0.00    +0.222 HD
ENDBRANCH  16  20
ENDBRANCH  15  16
ENDBRANCH   3  15
TORSDOF 8
ENDMDL
