MODEL 1
REMARK VINA RESULT:     -10.3      0.000      0.000
REMARK  Name = 123879
REMARK  7 active torsions:
REMARK  status: ('A' for Active; 'I' for Inactive)
REMARK    1  A    between atoms: N_1  and  C_26
REMARK    2  A    between atoms: C_2  and  N_14
REMARK    3  A    between atoms: N_14  and  S_16
REMARK    4  A    between atoms: S_16  and  C_20
REMARK    5  A    between atoms: C_26  and  C_27
REMARK    6  A    between atoms: C_27  and  C_29
REMARK    7  A    between atoms: C_29  and  O_30
REMARK                            x       y       z     vdW  Elec       q    Type
REMARK                         _______ _______ _______ _____ _____    ______ ____
ROOT
ATOM      1  N   UNL     1      33.764  -9.411 -23.444  0.00  0.00    -0.330 N 
ATOM      2  C   UNL     1      32.732 -13.469 -23.336  0.00  0.00    +0.080 C 
ATOM      3  C   UNL     1      31.997 -12.449 -22.438  0.00  0.00    +0.045 C 
ATOM      4  C   UNL     1      33.420 -10.724 -23.596  0.00  0.00    +0.033 A 
ATOM      5  C   UNL     1      32.576 -11.079 -22.565  0.00  0.00    -0.008 A 
ATOM      6  C   UNL     1      33.066 -12.897 -24.731  0.00  0.00    +0.024 C 
ATOM      7  C   UNL     1      33.915 -11.611 -24.681  0.00  0.00    +0.045 C 
ATOM      8  C   UNL     1      32.391  -9.926 -21.752  0.00  0.00    +0.013 A 
ATOM      9  C   UNL     1      33.147  -8.897 -22.323  0.00  0.00    +0.059 A 
ATOM     10  C   UNL     1      31.652  -9.653 -20.583  0.00  0.00    +0.001 C 
ATOM     11  C   UNL     1      33.200  -7.609 -21.779  0.00  0.00    +0.017 C 
ATOM     12  C   UNL     1      31.697  -8.369 -20.029  0.00  0.00    +0.000 C 
ATOM     13  C   UNL     1      32.460  -7.364 -20.618  0.00  0.00    +0.001 C 
ENDROOT
BRANCH   2  14
ATOM     14  N   UNL     1      33.991 -13.902 -22.669  0.00  0.00    -0.180 NA
ATOM     15  H   UNL     1      34.602 -14.266 -23.399  0.00  0.00    +0.149 HD
BRANCH  14  16
ATOM     16  S   UNL     1      33.932 -15.074 -21.445  0.00  0.00    +0.060 S 
ATOM     17  O   UNL     1      32.575 -15.188 -20.946  0.00  0.00    -0.153 OA
ATOM     18  O   UNL     1      35.029 -14.839 -20.526  0.00  0.00    -0.153 OA
BRANCH  16  20
ATOM     19  F   UNL     1      35.197 -19.990 -24.401  0.00  0.00    -0.204 F 
ATOM     20  C   UNL     1      34.313 -16.553 -22.335  0.00  0.00    +0.122 C 
ATOM     21  C   UNL     1      34.573 -16.476 -23.691  0.00  0.00    +0.022 C 
ATOM     22  C   UNL     1      34.342 -17.759 -21.657  0.00  0.00    +0.022 C 
ATOM     23  C   UNL     1      34.873 -17.644 -24.393  0.00  0.00    +0.031 C 
ATOM     24  C   UNL     1      34.642 -18.927 -22.359  0.00  0.00    +0.031 C 
ATOM     25  C   UNL     1      34.908 -18.869 -23.728  0.00  0.00    +0.140 C 
ENDBRANCH  16  20
ENDBRANCH  14  16
ENDBRANCH   2  14
BRANCH   1  26
ATOM     26  C   UNL     1      34.650  -8.670 -24.317  0.00  0.00    +0.117 C 
BRANCH  26  27
ATOM     27  C   UNL     1      34.680  -7.169 -24.022  0.00  0.00    +0.134 C 
BRANCH  27  29
ATOM     28  O   UNL     1      34.726  -5.949 -26.132  0.00  0.00    -0.250 OA
ATOM     29  C   UNL     1      34.114  -6.323 -25.142  0.00  0.00    +0.316 C 
BRANCH  29  30
ATOM     30  O   UNL     1      32.800  -6.042 -24.936  0.00  0.00    -0.480 OA
ATOM     31  H   UNL     1      32.405  -6.231 -24.107  0.00  0.00    +0.295 HD
ENDBRANCH  29  30
ENDBRANCH  27  29
ENDBRANCH  26  27
ENDBRANCH   1  26
TORSDOF 7
ENDMDL
MODEL 2
REMARK VINA RESULT:      -9.9      3.182      5.613
REMARK  Name = 123879
REMARK  7 active torsions:
REMARK  status: ('A' for Active; 'I' for Inactive)
REMARK    1  A    between atoms: N_1  and  C_26
REMARK    2  A    between atoms: C_2  and  N_14
REMARK    3  A    between atoms: N_14  and  S_16
REMARK    4  A    between atoms: S_16  and  C_20
REMARK    5  A    between atoms: C_26  and  C_27
REMARK    6  A    between atoms: C_27  and  C_29
REMARK    7  A    between atoms: C_29  and  O_30
REMARK                            x       y       z     vdW  Elec       q    Type
REMARK                         _______ _______ _______ _____ _____    ______ ____
ROOT
ATOM      1  N   UNL     1      32.000  -5.232 -24.828  0.00  0.00    -0.330 N 
ATOM      2  C   UNL     1      33.495  -8.252 -22.342  0.00  0.00    +0.080 C 
ATOM      3  C   UNL     1      34.415  -7.555 -23.368  0.00  0.00    +0.045 C 
ATOM      4  C   UNL     1      32.407  -6.123 -23.876  0.00  0.00    +0.033 A 
ATOM      5  C   UNL     1      33.665  -6.576 -24.210  0.00  0.00    -0.008 A 
ATOM      6  C   UNL     1      32.492  -7.278 -21.687  0.00  0.00    +0.024 C 
ATOM      7  C   UNL     1      31.596  -6.543 -22.704  0.00  0.00    +0.045 C 
ATOM      8  C   UNL     1      34.045  -5.926 -25.418  0.00  0.00    +0.013 A 
ATOM      9  C   UNL     1      32.984  -5.092 -25.784  0.00  0.00    +0.059 A 
ATOM     10  C   UNL     1      35.190  -5.963 -26.239  0.00  0.00    +0.001 C 
ATOM     11  C   UNL     1      33.013  -4.294 -26.933  0.00  0.00    +0.017 C 
ATOM     12  C   UNL     1      35.232  -5.170 -27.392  0.00  0.00    +0.000 C 
ATOM     13  C   UNL     1      34.159  -4.350 -27.732  0.00  0.00    +0.001 C 
ENDROOT
BRANCH   2  14
ATOM     14  N   UNL     1      32.745  -9.351 -23.012  0.00  0.00    -0.180 NA
ATOM     15  H   UNL     1      32.121  -8.913 -23.688  0.00  0.00    +0.149 HD
BRANCH  14  16
ATOM     16  S   UNL     1      31.801 -10.410 -22.084  0.00  0.00    +0.060 S 
ATOM     17  O   UNL     1      30.421 -10.344 -22.525  0.00  0.00    -0.153 OA
ATOM     18  O   UNL     1      32.130 -10.218 -20.685  0.00  0.00    -0.153 OA
BRANCH  16  20
ATOM     19  F   UNL     1      33.953 -15.649 -23.646  0.00  0.00    -0.204 F 
ATOM     20  C   UNL     1      32.449 -11.987 -22.554  0.00  0.00    +0.122 C 
ATOM     21  C   UNL     1      33.271 -12.075 -23.663  0.00  0.00    +0.022 C 
ATOM     22  C   UNL     1      32.120 -13.102 -21.804  0.00  0.00    +0.022 C 
ATOM     23  C   UNL     1      33.782 -13.319 -24.034  0.00  0.00    +0.031 C 
ATOM     24  C   UNL     1      32.631 -14.346 -22.175  0.00  0.00    +0.031 C 
ATOM     25  C   UNL     1      33.462 -14.455 -23.290  0.00  0.00    +0.140 C 
ENDBRANCH  16  20
ENDBRANCH  14  16
ENDBRANCH   2  14
BRANCH   1  26
ATOM     26  C   UNL     1      30.725  -4.546 -24.843  0.00  0.00    +0.117 C 
BRANCH  26  27
ATOM     27  C   UNL     1      30.845  -3.033 -24.645  0.00  0.00    +0.134 C 
BRANCH  27  29
ATOM     28  O   UNL     1      32.056  -1.846 -22.894  0.00  0.00    -0.250 OA
ATOM     29  C   UNL     1      31.183  -2.636 -23.225  0.00  0.00    +0.316 C 
BRANCH  29  30
ATOM     30  O   UNL     1      30.362  -3.247 -22.330  0.00  0.00    -0.480 OA
ATOM     31  H   UNL     1      29.826  -3.966 -22.601  0.00  0.00    +0.295 HD
ENDBRANCH  29  30
ENDBRANCH  27  29
ENDBRANCH  26  27
ENDBRANCH   1  26
TORSDOF 7
ENDMDL
MODEL 3
REMARK VINA RESULT:      -9.8      3.482      6.002
REMARK  Name = 123879
REMARK  7 active torsions:
REMARK  status: ('A' for Active; 'I' for Inactive)
REMARK    1  A    between atoms: N_1  and  C_26
REMARK    2  A    between atoms: C_2  and  N_14
REMARK    3  A    between atoms: N_14  and  S_16
REMARK    4  A    between atoms: S_16  and  C_20
REMARK    5  A    between atoms: C_26  and  C_27
REMARK    6  A    between atoms: C_27  and  C_29
REMARK    7  A    between atoms: C_29  and  O_30
REMARK                            x       y       z     vdW  Elec       q    Type
REMARK                         _______ _______ _______ _____ _____    ______ ____
ROOT
ATOM      1  N   UNL     1      32.810 -13.980 -22.757  0.00  0.00    -0.330 N 
ATOM      2  C   UNL     1      34.996 -17.153 -21.116  0.00  0.00    +0.080 C 
ATOM      3  C   UNL     1      35.103 -16.824 -22.621  0.00  0.00    +0.045 C 
ATOM      4  C   UNL     1      33.577 -14.892 -22.090  0.00  0.00    +0.033 A 
ATOM      5  C   UNL     1      34.179 -15.718 -23.014  0.00  0.00    -0.008 A 
ATOM      6  C   UNL     1      34.887 -15.887 -20.238  0.00  0.00    +0.024 C 
ATOM      7  C   UNL     1      33.696 -14.982 -20.611  0.00  0.00    +0.045 C 
ATOM      8  C   UNL     1      33.767 -15.284 -24.305  0.00  0.00    +0.013 A 
ATOM      9  C   UNL     1      32.909 -14.196 -24.116  0.00  0.00    +0.059 A 
ATOM     10  C   UNL     1      34.040 -15.708 -25.622  0.00  0.00    +0.001 C 
ATOM     11  C   UNL     1      32.310 -13.513 -25.180  0.00  0.00    +0.017 C 
ATOM     12  C   UNL     1      33.446 -15.034 -26.695  0.00  0.00    +0.000 C 
ATOM     13  C   UNL     1      32.595 -13.955 -26.476  0.00  0.00    +0.001 C 
ENDROOT
BRANCH   2  14
ATOM     14  N   UNL     1      33.806 -18.017 -20.880  0.00  0.00    -0.180 NA
ATOM     15  H   UNL     1      33.679 -18.077 -19.870  0.00  0.00    +0.149 HD
BRANCH  14  16
ATOM     16  S   UNL     1      33.792 -19.606 -21.472  0.00  0.00    +0.060 S 
ATOM     17  O   UNL     1      34.455 -19.650 -22.761  0.00  0.00    -0.153 OA
ATOM     18  O   UNL     1      32.453 -20.144 -21.322  0.00  0.00    -0.153 OA
BRANCH  16  20
ATOM     19  F   UNL     1      37.201 -22.390 -17.581  0.00  0.00    -0.204 F 
ATOM     20  C   UNL     1      34.818 -20.444 -20.301  0.00  0.00    +0.122 C 
ATOM     21  C   UNL     1      34.247 -21.368 -19.443  0.00  0.00    +0.022 C 
ATOM     22  C   UNL     1      36.171 -20.160 -20.264  0.00  0.00    +0.022 C 
ATOM     23  C   UNL     1      35.057 -22.029 -18.519  0.00  0.00    +0.031 C 
ATOM     24  C   UNL     1      36.981 -20.820 -19.341  0.00  0.00    +0.031 C 
ATOM     25  C   UNL     1      36.424 -21.755 -18.467  0.00  0.00    +0.140 C 
ENDBRANCH  16  20
ENDBRANCH  14  16
ENDBRANCH   2  14
BRANCH   1  26
ATOM     26  C   UNL     1      32.006 -12.948 -22.137  0.00  0.00    +0.117 C 
BRANCH  26  27
ATOM     27  C   UNL     1      32.441 -11.529 -22.510  0.00  0.00    +0.134 C 
BRANCH  27  29
ATOM     28  O   UNL     1      31.783  -9.248 -21.960  0.00  0.00    -0.250 OA
ATOM     29  C   UNL     1      31.578 -10.451 -21.892  0.00  0.00    +0.316 C 
BRANCH  29  30
ATOM     30  O   UNL     1      30.498 -10.982 -21.259  0.00  0.00    -0.480 OA
ATOM     31  H   UNL     1      30.176 -10.587 -20.472  0.00  0.00    +0.295 HD
ENDBRANCH  29  30
ENDBRANCH  27  29
ENDBRANCH  26  27
ENDBRANCH   1  26
TORSDOF 7
ENDMDL
MODEL 4
REMARK VINA RESULT:      -9.7     11.421     14.615
REMARK  Name = 123879
REMARK  7 active torsions:
REMARK  status: ('A' for Active; 'I' for Inactive)
REMARK    1  A    between atoms: N_1  and  C_26
REMARK    2  A    between atoms: C_2  and  N_14
REMARK    3  A    between atoms: N_14  and  S_16
REMARK    4  A    between atoms: S_16  and  C_20
REMARK    5  A    between atoms: C_26  and  C_27
REMARK    6  A    between atoms: C_27  and  C_29
REMARK    7  A    between atoms: C_29  and  O_30
REMARK                            x       y       z     vdW  Elec       q    Type
REMARK                         _______ _______ _______ _____ _____    ______ ____
ROOT
ATOM      1  N   UNL     1      32.992 -23.566 -16.644  0.00  0.00    -0.330 N 
ATOM      2  C   UNL     1      34.781 -24.745 -13.045  0.00  0.00    +0.080 C 
ATOM      3  C   UNL     1      33.256 -24.512 -13.123  0.00  0.00    +0.045 C 
ATOM      4  C   UNL     1      33.660 -24.084 -15.572  0.00  0.00    +0.033 A 
ATOM      5  C   UNL     1      32.838 -24.013 -14.468  0.00  0.00    -0.008 A 
ATOM      6  C   UNL     1      35.346 -25.401 -14.324  0.00  0.00    +0.024 C 
ATOM      7  C   UNL     1      35.054 -24.599 -15.607  0.00  0.00    +0.045 C 
ATOM      8  C   UNL     1      31.609 -23.433 -14.889  0.00  0.00    +0.013 A 
ATOM      9  C   UNL     1      31.733 -23.161 -16.255  0.00  0.00    +0.059 A 
ATOM     10  C   UNL     1      30.398 -23.111 -14.242  0.00  0.00    +0.001 C 
ATOM     11  C   UNL     1      30.704 -22.581 -17.005  0.00  0.00    +0.017 C 
ATOM     12  C   UNL     1      29.361 -22.530 -14.981  0.00  0.00    +0.000 C 
ATOM     13  C   UNL     1      29.514 -22.269 -16.340  0.00  0.00    +0.001 C 
ENDROOT
BRANCH   2  14
ATOM     14  N   UNL     1      35.470 -23.444 -12.815  0.00  0.00    -0.180 NA
ATOM     15  H   UNL     1      35.639 -23.033 -13.733  0.00  0.00    +0.149 HD
BRANCH  14  16
ATOM     16  S   UNL     1      36.947 -23.413 -11.983  0.00  0.00    +0.060 S 
ATOM     17  O   UNL     1      36.875 -24.292 -10.832  0.00  0.00    -0.153 OA
ATOM     18  O   UNL     1      37.357 -22.032 -11.821  0.00  0.00    -0.153 OA
BRANCH  16  20
ATOM     19  F   UNL     1      40.602 -25.839 -15.890  0.00  0.00    -0.204 F 
ATOM     20  C   UNL     1      38.047 -24.143 -13.159  0.00  0.00    +0.122 C 
ATOM     21  C   UNL     1      38.794 -25.248 -12.789  0.00  0.00    +0.022 C 
ATOM     22  C   UNL     1      38.140 -23.596 -14.426  0.00  0.00    +0.022 C 
ATOM     23  C   UNL     1      39.662 -25.824 -13.717  0.00  0.00    +0.031 C 
ATOM     24  C   UNL     1      39.008 -24.171 -15.354  0.00  0.00    +0.031 C 
ATOM     25  C   UNL     1      39.769 -25.286 -14.999  0.00  0.00    +0.140 C 
ENDBRANCH  16  20
ENDBRANCH  14  16
ENDBRANCH   2  14
BRANCH   1  26
ATOM     26  C   UNL     1      33.524 -23.448 -17.986  0.00  0.00    +0.117 C 
BRANCH  26  27
ATOM     27  C   UNL     1      34.340 -22.174 -18.208  0.00  0.00    +0.134 C 
BRANCH  27  29
ATOM     28  O   UNL     1      34.782 -20.742 -20.130  0.00  0.00    -0.250 OA
ATOM     29  C   UNL     1      34.022 -21.472 -19.510  0.00  0.00    +0.316 C 
BRANCH  29  30
ATOM     30  O   UNL     1      32.771 -21.778 -19.946  0.00  0.00    -0.480 OA
ATOM     31  H   UNL     1      32.319 -22.517 -19.589  0.00  0.00    +0.295 HD
ENDBRANCH  29  30
ENDBRANCH  27  29
ENDBRANCH  26  27
ENDBRANCH   1  26
TORSDOF 7
ENDMDL
MODEL 5
REMARK VINA RESULT:      -9.6      3.729      8.550
REMARK  Name = 123879
REMARK  7 active torsions:
REMARK  status: ('A' for Active; 'I' for Inactive)
REMARK    1  A    between atoms: N_1  and  C_26
REMARK    2  A    between atoms: C_2  and  N_14
REMARK    3  A    between atoms: N_14  and  S_16
REMARK    4  A    between atoms: S_16  and  C_20
REMARK    5  A    between atoms: C_26  and  C_27
REMARK    6  A    between atoms: C_27  and  C_29
REMARK    7  A    between atoms: C_29  and  O_30
REMARK                            x       y       z     vdW  Elec       q    Type
REMARK                         _______ _______ _______ _____ _____    ______ ____
ROOT
ATOM      1  N   UNL     1      32.796 -13.974 -21.533  0.00  0.00    -0.330 N 
ATOM      2  C   UNL     1      31.218 -10.099 -21.350  0.00  0.00    +0.080 C 
ATOM      3  C   UNL     1      31.337 -10.833 -22.703  0.00  0.00    +0.045 C 
ATOM      4  C   UNL     1      32.172 -12.775 -21.334  0.00  0.00    +0.033 A 
ATOM      5  C   UNL     1      32.004 -12.161 -22.557  0.00  0.00    -0.008 A 
ATOM      6  C   UNL     1      30.817 -11.043 -20.195  0.00  0.00    +0.024 C 
ATOM      7  C   UNL     1      31.783 -12.229 -20.008  0.00  0.00    +0.045 C 
ATOM      8  C   UNL     1      32.542 -13.031 -23.547  0.00  0.00    +0.013 A 
ATOM      9  C   UNL     1      33.033 -14.157 -22.878  0.00  0.00    +0.059 A 
ATOM     10  C   UNL     1      32.660 -12.973 -24.950  0.00  0.00    +0.001 C 
ATOM     11  C   UNL     1      33.638 -15.227 -23.547  0.00  0.00    +0.017 C 
ATOM     12  C   UNL     1      33.264 -14.036 -25.631  0.00  0.00    +0.000 C 
ATOM     13  C   UNL     1      33.746 -15.144 -24.938  0.00  0.00    +0.001 C 
ENDROOT
BRANCH   2  14
ATOM     14  N   UNL     1      32.518  -9.448 -21.022  0.00  0.00    -0.180 NA
ATOM     15  H   UNL     1      32.840  -9.856 -20.144  0.00  0.00    +0.149 HD
BRANCH  14  16
ATOM     16  S   UNL     1      32.592  -7.765 -20.838  0.00  0.00    +0.060 S 
ATOM     17  O   UNL     1      33.619  -7.426 -19.872  0.00  0.00    -0.153 OA
ATOM     18  O   UNL     1      31.242  -7.257 -20.676  0.00  0.00    -0.153 OA
BRANCH  16  20
ATOM     19  F   UNL     1      34.446  -6.037 -26.138  0.00  0.00    -0.204 F 
ATOM     20  C   UNL     1      33.150  -7.245 -22.433  0.00  0.00    +0.122 C 
ATOM     21  C   UNL     1      32.362  -6.382 -23.175  0.00  0.00    +0.022 C 
ATOM     22  C   UNL     1      34.362  -7.711 -22.909  0.00  0.00    +0.022 C 
ATOM     23  C   UNL     1      32.803  -5.972 -24.434  0.00  0.00    +0.031 C 
ATOM     24  C   UNL     1      34.802  -7.301 -24.167  0.00  0.00    +0.031 C 
ATOM     25  C   UNL     1      34.022  -6.431 -24.930  0.00  0.00    +0.140 C 
ENDBRANCH  16  20
ENDBRANCH  14  16
ENDBRANCH   2  14
BRANCH   1  26
ATOM     26  C   UNL     1      33.164 -14.910 -20.490  0.00  0.00    +0.117 C 
BRANCH  26  27
ATOM     27  C   UNL     1      34.596 -15.433 -20.619  0.00  0.00    +0.134 C 
BRANCH  27  29
ATOM     28  O   UNL     1      35.689 -17.609 -20.725  0.00  0.00    -0.250 OA
ATOM     29  C   UNL     1      34.675 -16.931 -20.814  0.00  0.00    +0.316 C 
BRANCH  29  30
ATOM     30  O   UNL     1      33.451 -17.463 -21.075  0.00  0.00    -0.480 OA
ATOM     31  H   UNL     1      33.038 -18.018 -20.443  0.00  0.00    +0.295 HD
ENDBRANCH  29  30
ENDBRANCH  27  29
ENDBRANCH  26  27
ENDBRANCH   1  26
TORSDOF 7
ENDMDL
MODEL 6
REMARK VINA RESULT:      -9.6      1.635      1.827
REMARK  Name = 123879
REMARK  7 active torsions:
REMARK  status: ('A' for Active; 'I' for Inactive)
REMARK    1  A    between atoms: N_1  and  C_26
REMARK    2  A    between atoms: C_2  and  N_14
REMARK    3  A    between atoms: N_14  and  S_16
REMARK    4  A    between atoms: S_16  and  C_20
REMARK    5  A    between atoms: C_26  and  C_27
REMARK    6  A    between atoms: C_27  and  C_29
REMARK    7  A    between atoms: C_29  and  O_30
REMARK                            x       y       z     vdW  Elec       q    Type
REMARK                         _______ _______ _______ _____ _____    ______ ____
ROOT
ATOM      1  N   UNL     1      33.204  -9.873 -23.352  0.00  0.00    -0.330 N 
ATOM      2  C   UNL     1      32.264 -13.814 -22.291  0.00  0.00    +0.080 C 
ATOM      3  C   UNL     1      31.718 -12.629 -21.465  0.00  0.00    +0.045 C 
ATOM      4  C   UNL     1      32.852 -11.183 -23.187  0.00  0.00    +0.033 A 
ATOM      5  C   UNL     1      32.243 -11.321 -21.958  0.00  0.00    -0.008 A 
ATOM      6  C   UNL     1      32.297 -13.516 -23.806  0.00  0.00    +0.024 C 
ATOM      7  C   UNL     1      33.123 -12.265 -24.167  0.00  0.00    +0.045 C 
ATOM      8  C   UNL     1      32.215 -10.034 -21.350  0.00  0.00    +0.013 A 
ATOM      9  C   UNL     1      32.825  -9.147 -22.243  0.00  0.00    +0.059 A 
ATOM     10  C   UNL     1      31.730  -9.533 -20.125  0.00  0.00    +0.001 C 
ATOM     11  C   UNL     1      32.975  -7.784 -21.968  0.00  0.00    +0.017 C 
ATOM     12  C   UNL     1      31.874  -8.171 -19.837  0.00  0.00    +0.000 C 
ATOM     13  C   UNL     1      32.487  -7.312 -20.745  0.00  0.00    +0.001 C 
ENDROOT
BRANCH   2  14
ATOM     14  N   UNL     1      33.638 -14.152 -21.827  0.00  0.00    -0.180 NA
ATOM     15  H   UNL     1      34.196 -14.332 -22.662  0.00  0.00    +0.149 HD
BRANCH  14  16
ATOM     16  S   UNL     1      33.873 -15.469 -20.786  0.00  0.00    +0.060 S 
ATOM     17  O   UNL     1      32.621 -15.801 -20.132  0.00  0.00    -0.153 OA
ATOM     18  O   UNL     1      35.066 -15.228 -19.997  0.00  0.00    -0.153 OA
BRANCH  16  20
ATOM     19  F   UNL     1      35.154 -19.792 -24.552  0.00  0.00    -0.204 F 
ATOM     20  C   UNL     1      34.258 -16.770 -21.919  0.00  0.00    +0.122 C 
ATOM     21  C   UNL     1      34.570 -16.453 -23.229  0.00  0.00    +0.022 C 
ATOM     22  C   UNL     1      34.241 -18.080 -21.474  0.00  0.00    +0.022 C 
ATOM     23  C   UNL     1      34.874 -17.479 -24.124  0.00  0.00    +0.031 C 
ATOM     24  C   UNL     1      34.545 -19.106 -22.368  0.00  0.00    +0.031 C 
ATOM     25  C   UNL     1      34.862 -18.806 -23.693  0.00  0.00    +0.140 C 
ENDBRANCH  16  20
ENDBRANCH  14  16
ENDBRANCH   2  14
BRANCH   1  26
ATOM     26  C   UNL     1      33.883  -9.328 -24.509  0.00  0.00    +0.117 C 
BRANCH  26  27
ATOM     27  C   UNL     1      35.259  -9.949 -24.757  0.00  0.00    +0.134 C 
BRANCH  27  29
ATOM     28  O   UNL     1      36.240 -10.028 -26.987  0.00  0.00    -0.250 OA
ATOM     29  C   UNL     1      35.442 -10.463 -26.169  0.00  0.00    +0.316 C 
BRANCH  29  30
ATOM     30  O   UNL     1      34.620 -11.515 -26.425  0.00  0.00    -0.480 OA
ATOM     31  H   UNL     1      34.365 -12.089 -25.730  0.00  0.00    +0.295 HD
ENDBRANCH  29  30
ENDBRANCH  27  29
ENDBRANCH  26  27
ENDBRANCH   1  26
TORSDOF 7
ENDMDL
MODEL 7
REMARK VINA RESULT:      -9.4     11.368     14.558
REMARK  Name = 123879
REMARK  7 active torsions:
REMARK  status: ('A' for Active; 'I' for Inactive)
REMARK    1  A    between atoms: N_1  and  C_26
REMARK    2  A    between atoms: C_2  and  N_14
REMARK    3  A    between atoms: N_14  and  S_16
REMARK    4  A    between atoms: S_16  and  C_20
REMARK    5  A    between atoms: C_26  and  C_27
REMARK    6  A    between atoms: C_27  and  C_29
REMARK    7  A    between atoms: C_29  and  O_30
REMARK                            x       y       z     vdW  Elec       q    Type
REMARK                         _______ _______ _______ _____ _____    ______ ____
ROOT
ATOM      1  N   UNL     1      34.032 -22.696 -17.653  0.00  0.00    -0.330 N 
ATOM      2  C   UNL     1      37.469 -22.774 -15.261  0.00  0.00    +0.080 C 
ATOM      3  C   UNL     1      37.381 -21.824 -16.476  0.00  0.00    +0.045 C 
ATOM      4  C   UNL     1      35.036 -22.707 -16.727  0.00  0.00    +0.033 A 
ATOM      5  C   UNL     1      36.113 -22.018 -17.241  0.00  0.00    -0.008 A 
ATOM      6  C   UNL     1      36.125 -22.904 -14.511  0.00  0.00    +0.024 C 
ATOM      7  C   UNL     1      34.966 -23.385 -15.407  0.00  0.00    +0.045 C 
ATOM      8  C   UNL     1      35.746 -21.559 -18.537  0.00  0.00    +0.013 A 
ATOM      9  C   UNL     1      34.439 -21.999 -18.771  0.00  0.00    +0.059 A 
ATOM     10  C   UNL     1      36.396 -20.810 -19.539  0.00  0.00    +0.001 C 
ATOM     11  C   UNL     1      33.753 -21.727 -19.959  0.00  0.00    +0.017 C 
ATOM     12  C   UNL     1      35.721 -20.532 -20.732  0.00  0.00    +0.000 C 
ATOM     13  C   UNL     1      34.420 -20.984 -20.938  0.00  0.00    +0.001 C 
ENDROOT
BRANCH   2  14
ATOM     14  N   UNL     1      37.909 -24.123 -15.716  0.00  0.00    -0.180 NA
ATOM     15  H   UNL     1      37.083 -24.596 -16.082  0.00  0.00    +0.149 HD
BRANCH  14  16
ATOM     16  S   UNL     1      38.636 -25.185 -14.613  0.00  0.00    +0.060 S 
ATOM     17  O   UNL     1      40.010 -24.782 -14.384  0.00  0.00    -0.153 OA
ATOM     18  O   UNL     1      38.333 -26.546 -15.013  0.00  0.00    -0.153 OA
BRANCH  16  20
ATOM     19  F   UNL     1      35.591 -24.121  -9.703  0.00  0.00    -0.204 F 
ATOM     20  C   UNL     1      37.720 -24.865 -13.136  0.00  0.00    +0.122 C 
ATOM     21  C   UNL     1      36.535 -25.545 -12.916  0.00  0.00    +0.022 C 
ATOM     22  C   UNL     1      38.205 -23.941 -12.228  0.00  0.00    +0.022 C 
ATOM     23  C   UNL     1      35.812 -25.292 -11.750  0.00  0.00    +0.031 C 
ATOM     24  C   UNL     1      37.482 -23.688 -11.062  0.00  0.00    +0.031 C 
ATOM     25  C   UNL     1      36.285 -24.364 -10.823  0.00  0.00    +0.140 C 
ENDBRANCH  16  20
ENDBRANCH  14  16
ENDBRANCH   2  14
BRANCH   1  26
ATOM     26  C   UNL     1      32.739 -23.328 -17.494  0.00  0.00    +0.117 C 
BRANCH  26  27
ATOM     27  C   UNL     1      31.868 -22.673 -16.420  0.00  0.00    +0.134 C 
BRANCH  27  29
ATOM     28  O   UNL     1      29.531 -22.420 -17.066  0.00  0.00    -0.250 OA
ATOM     29  C   UNL     1      30.409 -23.063 -16.506  0.00  0.00    +0.316 C 
BRANCH  29  30
ATOM     30  O   UNL     1      30.178 -24.259 -15.903  0.00  0.00    -0.480 OA
ATOM     31  H   UNL     1      29.367 -24.706 -16.046  0.00  0.00    +0.295 HD
ENDBRANCH  29  30
ENDBRANCH  27  29
ENDBRANCH  26  27
ENDBRANCH   1  26
TORSDOF 7
ENDMDL
MODEL 8
REMARK VINA RESULT:      -9.4      3.254      7.998
REMARK  Name = 123879
REMARK  7 active torsions:
REMARK  status: ('A' for Active; 'I' for Inactive)
REMARK    1  A    between atoms: N_1  and  C_26
REMARK    2  A    between atoms: C_2  and  N_14
REMARK    3  A    between atoms: N_14  and  S_16
REMARK    4  A    between atoms: S_16  and  C_20
REMARK    5  A    between atoms: C_26  and  C_27
REMARK    6  A    between atoms: C_27  and  C_29
REMARK    7  A    between atoms: C_29  and  O_30
REMARK                            x       y       z     vdW  Elec       q    Type
REMARK                         _______ _______ _______ _____ _____    ______ ____
ROOT
ATOM      1  N   UNL     1      33.846 -15.108 -22.033  0.00  0.00    -0.330 N 
ATOM      2  C   UNL     1      31.449 -11.727 -21.431  0.00  0.00    +0.080 C 
ATOM      3  C   UNL     1      31.420 -12.478 -22.781  0.00  0.00    +0.045 C 
ATOM      4  C   UNL     1      33.011 -14.088 -21.676  0.00  0.00    +0.033 A 
ATOM      5  C   UNL     1      32.410 -13.595 -22.815  0.00  0.00    -0.008 A 
ATOM      6  C   UNL     1      31.580 -12.681 -20.224  0.00  0.00    +0.024 C 
ATOM      7  C   UNL     1      32.826 -13.587 -20.290  0.00  0.00    +0.045 C 
ATOM      8  C   UNL     1      32.896 -14.356 -23.915  0.00  0.00    +0.013 A 
ATOM      9  C   UNL     1      33.794 -15.295 -23.398  0.00  0.00    +0.059 A 
ATOM     10  C   UNL     1      32.659 -14.342 -25.305  0.00  0.00    +0.001 C 
ATOM     11  C   UNL     1      34.469 -16.218 -24.205  0.00  0.00    +0.017 C 
ATOM     12  C   UNL     1      33.327 -15.259 -26.123  0.00  0.00    +0.000 C 
ATOM     13  C   UNL     1      34.218 -16.181 -25.580  0.00  0.00    +0.001 C 
ENDROOT
BRANCH   2  14
ATOM     14  N   UNL     1      32.586 -10.765 -21.422  0.00  0.00    -0.180 NA
ATOM     15  H   UNL     1      32.743 -10.503 -20.449  0.00  0.00    +0.149 HD
BRANCH  14  16
ATOM     16  S   UNL     1      32.475  -9.325 -22.309  0.00  0.00    +0.060 S 
ATOM     17  O   UNL     1      33.004  -8.227 -21.521  0.00  0.00    -0.153 OA
ATOM     18  O   UNL     1      31.146  -9.236 -22.883  0.00  0.00    -0.153 OA
BRANCH  16  20
ATOM     19  F   UNL     1      36.194 -10.330 -26.744  0.00  0.00    -0.204 F 
ATOM     20  C   UNL     1      33.594  -9.627 -23.643  0.00  0.00    +0.122 C 
ATOM     21  C   UNL     1      34.454  -8.620 -24.044  0.00  0.00    +0.022 C 
ATOM     22  C   UNL     1      33.589 -10.865 -24.261  0.00  0.00    +0.022 C 
ATOM     23  C   UNL     1      35.337  -8.859 -25.097  0.00  0.00    +0.031 C 
ATOM     24  C   UNL     1      34.472 -11.104 -25.314  0.00  0.00    +0.031 C 
ATOM     25  C   UNL     1      35.346 -10.100 -25.733  0.00  0.00    +0.140 C 
ENDBRANCH  16  20
ENDBRANCH  14  16
ENDBRANCH   2  14
BRANCH   1  26
ATOM     26  C   UNL     1      34.671 -15.873 -21.121  0.00  0.00    +0.117 C 
BRANCH  26  27
ATOM     27  C   UNL     1      34.144 -17.286 -20.862  0.00  0.00    +0.134 C 
BRANCH  27  29
ATOM     28  O   UNL     1      36.164 -18.621 -20.586  0.00  0.00    -0.250 OA
ATOM     29  C   UNL     1      35.139 -18.373 -21.204  0.00  0.00    +0.316 C 
BRANCH  29  30
ATOM     30  O   UNL     1      34.740 -19.087 -22.290  0.00  0.00    -0.480 OA
ATOM     31  H   UNL     1      35.330 -19.695 -22.692  0.00  0.00    +0.295 HD
ENDBRANCH  29  30
ENDBRANCH  27  29
ENDBRANCH  26  27
ENDBRANCH   1  26
TORSDOF 7
ENDMDL
MODEL 9
REMARK VINA RESULT:      -9.1      3.953      9.087
REMARK  Name = 123879
REMARK  7 active torsions:
REMARK  status: ('A' for Active; 'I' for Inactive)
REMARK    1  A    between atoms: N_1  and  C_26
REMARK    2  A    between atoms: C_2  and  N_14
REMARK    3  A    between atoms: N_14  and  S_16
REMARK    4  A    between atoms: S_16  and  C_20
REMARK    5  A    between atoms: C_26  and  C_27
REMARK    6  A    between atoms: C_27  and  C_29
REMARK    7  A    between atoms: C_29  and  O_30
REMARK                            x       y       z     vdW  Elec       q    Type
REMARK                         _______ _______ _______ _____ _____    ______ ____
ROOT
ATOM      1  N   UNL     1      33.685 -14.812 -22.123  0.00  0.00    -0.330 N 
ATOM      2  C   UNL     1      31.564 -11.208 -21.899  0.00  0.00    +0.080 C 
ATOM      3  C   UNL     1      31.542 -12.050 -23.193  0.00  0.00    +0.045 C 
ATOM      4  C   UNL     1      32.924 -13.702 -21.888  0.00  0.00    +0.033 A 
ATOM      5  C   UNL     1      32.431 -13.246 -23.092  0.00  0.00    -0.008 A 
ATOM      6  C   UNL     1      31.545 -12.079 -20.624  0.00  0.00    +0.024 C 
ATOM      7  C   UNL     1      32.709 -13.088 -20.552  0.00  0.00    +0.045 C 
ATOM      8  C   UNL     1      32.907 -14.123 -24.106  0.00  0.00    +0.013 A 
ATOM      9  C   UNL     1      33.691 -15.093 -23.473  0.00  0.00    +0.059 A 
ATOM     10  C   UNL     1      32.748 -14.190 -25.505  0.00  0.00    +0.001 C 
ATOM     11  C   UNL     1      34.325 -16.126 -24.173  0.00  0.00    +0.017 C 
ATOM     12  C   UNL     1      33.377 -15.218 -26.217  0.00  0.00    +0.000 C 
ATOM     13  C   UNL     1      34.153 -16.169 -25.560  0.00  0.00    +0.001 C 
ENDROOT
BRANCH   2  14
ATOM     14  N   UNL     1      32.779 -10.346 -21.887  0.00  0.00    -0.180 NA
ATOM     15  H   UNL     1      32.715  -9.757 -21.057  0.00  0.00    +0.149 HD
BRANCH  14  16
ATOM     16  S   UNL     1      33.092  -9.318 -23.197  0.00  0.00    +0.060 S 
ATOM     17  O   UNL     1      32.469  -9.851 -24.393  0.00  0.00    -0.153 OA
ATOM     18  O   UNL     1      34.504  -8.985 -23.198  0.00  0.00    -0.153 OA
BRANCH  16  20
ATOM     19  F   UNL     1      30.186  -4.451 -21.654  0.00  0.00    -0.204 F 
ATOM     20  C   UNL     1      32.217  -7.853 -22.733  0.00  0.00    +0.122 C 
ATOM     21  C   UNL     1      32.282  -7.416 -21.422  0.00  0.00    +0.022 C 
ATOM     22  C   UNL     1      31.485  -7.173 -23.689  0.00  0.00    +0.022 C 
ATOM     23  C   UNL     1      31.592  -6.261 -21.055  0.00  0.00    +0.031 C 
ATOM     24  C   UNL     1      30.795  -6.017 -23.323  0.00  0.00    +0.031 C 
ATOM     25  C   UNL     1      30.848  -5.561 -22.005  0.00  0.00    +0.140 C 
ENDBRANCH  16  20
ENDBRANCH  14  16
ENDBRANCH   2  14
BRANCH   1  26
ATOM     26  C   UNL     1      34.390 -15.574 -21.114  0.00  0.00    +0.117 C 
BRANCH  26  27
ATOM     27  C   UNL     1      33.795 -16.964 -20.874  0.00  0.00    +0.134 C 
BRANCH  27  29
ATOM     28  O   UNL     1      35.839 -18.259 -20.580  0.00  0.00    -0.250 OA
ATOM     29  C   UNL     1      34.767 -18.091 -21.146  0.00  0.00    +0.316 C 
BRANCH  29  30
ATOM     30  O   UNL     1      34.291 -18.940 -22.094  0.00  0.00    -0.480 OA
ATOM     31  H   UNL     1      34.768 -19.068 -22.890  0.00  0.00    +0.295 HD
ENDBRANCH  29  30
ENDBRANCH  27  29
ENDBRANCH  26  27
ENDBRANCH   1  26
TORSDOF 7
ENDMDL
