MODEL 1
REMARK VINA RESULT:      -8.9      0.000      0.000
REMARK  Name = 25134252
REMARK  7 active torsions:
REMARK  status: ('A' for Active; 'I' for Inactive)
REMARK    1  A    between atoms: N_1  and  C_19
REMARK    2  A    between atoms: C_3  and  C_12
REMARK    3  A    between atoms: N_11  and  C_14
REMARK    4  A    between atoms: C_14  and  C_15
REMARK    5  A    between atoms: C_15  and  C_16
REMARK    6  A    between atoms: C_16  and  S_17
REMARK    7  A    between atoms: C_19  and  C_21
REMARK                            x       y       z     vdW  Elec       q    Type
REMARK                         _______ _______ _______ _____ _____    ______ ____
ROOT
ATOM      1  N   UNL     1      34.869 -17.982 -22.696  0.00  0.00    +0.387 N 
ATOM      2  N   UNL     1      34.292 -16.025 -24.746  0.00  0.00    +0.388 N 
ATOM      3  C   UNL     1      33.961 -15.782 -23.343  0.00  0.00    -0.005 C 
ATOM      4  C   UNL     1      34.902 -16.543 -22.404  0.00  0.00    -0.090 C 
ATOM      5  C   UNL     1      35.219 -18.226 -24.101  0.00  0.00    -0.101 C 
ATOM      6  C   UNL     1      34.280 -17.459 -25.036  0.00  0.00    -0.104 C 
ATOM      7  H   UNL     1      33.920 -18.322 -22.537  0.00  0.00    -0.079 HD
ATOM      8  H   UNL     1      35.221 -15.651 -24.941  0.00  0.00    -0.084 HD
ATOM      9  H   UNL     1      33.596 -15.565 -25.333  0.00  0.00    -0.084 HD
ENDROOT
BRANCH   3  12
ATOM     10  O   UNL     1      34.504 -13.845 -22.063  0.00  0.00    -0.277 OA
ATOM     11  N   UNL     1      33.714 -13.576 -24.236  0.00  0.00    -0.306 N 
ATOM     12  C   UNL     1      34.103 -14.308 -23.127  0.00  0.00    +0.200 C 
ATOM     13  H   UNL     1      33.409 -14.063 -25.036  0.00  0.00    +0.149 HD
BRANCH  11  14
ATOM     14  C   UNL     1      33.733 -12.132 -24.276  0.00  0.00    +0.090 C 
BRANCH  14  15
ATOM     15  C   UNL     1      34.110 -11.581 -25.649  0.00  0.00    +0.033 C 
BRANCH  15  16
ATOM     16  C   UNL     1      35.175 -10.489 -25.566  0.00  0.00    +0.055 C 
BRANCH  16  17
ATOM     17  S   UNL     1      34.790  -9.320 -24.230  0.00  0.00    -0.168 S 
ATOM     18  H   UNL     1      33.637  -9.696 -23.615  0.00  0.00    +0.102 HD
ENDBRANCH  16  17
ENDBRANCH  15  16
ENDBRANCH  14  15
ENDBRANCH  11  14
ENDBRANCH   3  12
BRANCH   1  19
ATOM     19  C   UNL     1      35.765 -18.715 -21.803  0.00  0.00    -0.050 C 
BRANCH  19  21
ATOM     20  F   UNL     1      32.973 -22.429 -18.615  0.00  0.00    -0.204 F 
ATOM     21  C   UNL     1      35.020 -19.708 -20.952  0.00  0.00    -0.043 C 
ATOM     22  C   UNL     1      33.628 -19.652 -20.872  0.00  0.00    -0.004 C 
ATOM     23  C   UNL     1      35.720 -20.683 -20.243  0.00  0.00    -0.004 C 
ATOM     24  C   UNL     1      32.937 -20.571 -20.083  0.00  0.00    +0.029 C 
ATOM     25  C   UNL     1      35.029 -21.602 -19.453  0.00  0.00    +0.029 C 
ATOM     26  C   UNL     1      33.637 -21.546 -19.374  0.00  0.00    +0.140 C 
ENDBRANCH  19  21
ENDBRANCH   1  19
TORSDOF 7
ENDMDL
MODEL 2
REMARK VINA RESULT:      -8.8      2.154      2.529
REMARK  Name = 25134252
REMARK  7 active torsions:
REMARK  status: ('A' for Active; 'I' for Inactive)
REMARK    1  A    between atoms: N_1  and  C_19
REMARK    2  A    between atoms: C_3  and  C_12
REMARK    3  A    between atoms: N_11  and  C_14
REMARK    4  A    between atoms: C_14  and  C_15
REMARK    5  A    between atoms: C_15  and  C_16
REMARK    6  A    between atoms: C_16  and  S_17
REMARK    7  A    between atoms: C_19  and  C_21
REMARK                            x       y       z     vdW  Elec       q    Type
REMARK                         _______ _______ _______ _____ _____    ______ ____
ROOT
ATOM      1  N   UNL     1      34.616 -17.338 -22.762  0.00  0.00    +0.387 N 
ATOM      2  N   UNL     1      33.874 -15.418 -24.793  0.00  0.00    +0.388 N 
ATOM      3  C   UNL     1      33.393 -15.300 -23.418  0.00  0.00    -0.005 C 
ATOM      4  C   UNL     1      34.373 -15.930 -22.424  0.00  0.00    -0.090 C 
ATOM      5  C   UNL     1      35.116 -17.455 -24.138  0.00  0.00    -0.101 C 
ATOM      6  C   UNL     1      34.136 -16.818 -25.127  0.00  0.00    -0.104 C 
ATOM      7  H   UNL     1      33.731 -17.843 -22.697  0.00  0.00    -0.079 HD
ATOM      8  H   UNL     1      34.736 -14.881 -24.895  0.00  0.00    -0.084 HD
ATOM      9  H   UNL     1      33.159 -15.057 -25.425  0.00  0.00    -0.084 HD
ENDROOT
BRANCH   3  12
ATOM     10  O   UNL     1      34.052 -13.015 -23.598  0.00  0.00    -0.277 OA
ATOM     11  N   UNL     1      32.174 -13.551 -22.331  0.00  0.00    -0.306 N 
ATOM     12  C   UNL     1      33.257 -13.834 -23.145  0.00  0.00    +0.200 C 
ATOM     13  H   UNL     1      31.606 -14.297 -22.030  0.00  0.00    +0.149 HD
BRANCH  11  14
ATOM     14  C   UNL     1      31.838 -12.214 -21.900  0.00  0.00    +0.090 C 
BRANCH  14  15
ATOM     15  C   UNL     1      31.798 -12.072 -20.380  0.00  0.00    +0.033 C 
BRANCH  15  16
ATOM     16  C   UNL     1      30.986 -10.860 -19.930  0.00  0.00    +0.055 C 
BRANCH  16  17
ATOM     17  S   UNL     1      32.012  -9.361 -19.942  0.00  0.00    -0.168 S 
ATOM     18  H   UNL     1      33.316  -9.702 -19.766  0.00  0.00    +0.102 HD
ENDBRANCH  16  17
ENDBRANCH  15  16
ENDBRANCH  14  15
ENDBRANCH  11  14
ENDBRANCH   3  12
BRANCH   1  19
ATOM     19  C   UNL     1      35.551 -17.946 -21.817  0.00  0.00    -0.050 C 
BRANCH  19  21
ATOM     20  F   UNL     1      33.235 -22.292 -19.077  0.00  0.00    -0.204 F 
ATOM     21  C   UNL     1      34.932 -19.108 -21.085  0.00  0.00    -0.043 C 
ATOM     22  C   UNL     1      33.544 -19.214 -20.992  0.00  0.00    -0.004 C 
ATOM     23  C   UNL     1      35.746 -20.078 -20.501  0.00  0.00    -0.004 C 
ATOM     24  C   UNL     1      32.971 -20.289 -20.313  0.00  0.00    +0.029 C 
ATOM     25  C   UNL     1      35.173 -21.153 -19.822  0.00  0.00    +0.029 C 
ATOM     26  C   UNL     1      33.786 -21.259 -19.729  0.00  0.00    +0.140 C 
ENDBRANCH  19  21
ENDBRANCH   1  19
TORSDOF 7
ENDMDL
MODEL 3
REMARK VINA RESULT:      -8.5      5.517      9.124
REMARK  Name = 25134252
REMARK  7 active torsions:
REMARK  status: ('A' for Active; 'I' for Inactive)
REMARK    1  A    between atoms: N_1  and  C_19
REMARK    2  A    between atoms: C_3  and  C_12
REMARK    3  A    between atoms: N_11  and  C_14
REMARK    4  A    between atoms: C_14  and  C_15
REMARK    5  A    between atoms: C_15  and  C_16
REMARK    6  A    between atoms: C_16  and  S_17
REMARK    7  A    between atoms: C_19  and  C_21
REMARK                            x       y       z     vdW  Elec       q    Type
REMARK                         _______ _______ _______ _____ _____    ______ ____
ROOT
ATOM      1  N   UNL     1      34.945 -19.840 -21.292  0.00  0.00    +0.387 N 
ATOM      2  N   UNL     1      33.116 -21.102 -19.441  0.00  0.00    +0.388 N 
ATOM      3  C   UNL     1      34.451 -21.644 -19.684  0.00  0.00    -0.005 C 
ATOM      4  C   UNL     1      35.436 -20.547 -20.101  0.00  0.00    -0.090 C 
ATOM      5  C   UNL     1      33.611 -19.281 -21.041  0.00  0.00    -0.101 C 
ATOM      6  C   UNL     1      32.633 -20.379 -20.618  0.00  0.00    -0.104 C 
ATOM      7  H   UNL     1      34.875 -20.510 -22.058  0.00  0.00    -0.079 HD
ATOM      8  H   UNL     1      33.153 -20.462 -18.647  0.00  0.00    -0.084 HD
ATOM      9  H   UNL     1      32.478 -21.873 -19.243  0.00  0.00    -0.084 HD
ENDROOT
BRANCH   3  12
ATOM     10  O   UNL     1      36.074 -22.297 -18.064  0.00  0.00    -0.277 OA
ATOM     11  N   UNL     1      33.833 -22.796 -17.680  0.00  0.00    -0.306 N 
ATOM     12  C   UNL     1      34.892 -22.266 -18.397  0.00  0.00    +0.200 C 
ATOM     13  H   UNL     1      32.925 -22.708 -18.052  0.00  0.00    +0.149 HD
BRANCH  11  14
ATOM     14  C   UNL     1      33.995 -23.473 -16.414  0.00  0.00    +0.090 C 
BRANCH  14  15
ATOM     15  C   UNL     1      32.710 -23.504 -15.589  0.00  0.00    +0.033 C 
BRANCH  15  16
ATOM     16  C   UNL     1      31.486 -23.085 -16.400  0.00  0.00    +0.055 C 
BRANCH  16  17
ATOM     17  S   UNL     1      30.009 -23.024 -15.345  0.00  0.00    -0.168 S 
ATOM     18  H   UNL     1      28.965 -22.519 -16.055  0.00  0.00    +0.102 HD
ENDBRANCH  16  17
ENDBRANCH  15  16
ENDBRANCH  14  15
ENDBRANCH  11  14
ENDBRANCH   3  12
BRANCH   1  19
ATOM     19  C   UNL     1      35.881 -18.792 -21.696  0.00  0.00    -0.050 C 
BRANCH  19  21
ATOM     20  F   UNL     1      33.928 -15.802 -26.055  0.00  0.00    -0.204 F 
ATOM     21  C   UNL     1      35.358 -17.992 -22.860  0.00  0.00    -0.043 C 
ATOM     22  C   UNL     1      35.008 -18.636 -24.047  0.00  0.00    -0.004 C 
ATOM     23  C   UNL     1      35.224 -16.609 -22.752  0.00  0.00    -0.004 C 
ATOM     24  C   UNL     1      34.525 -17.897 -25.126  0.00  0.00    +0.029 C 
ATOM     25  C   UNL     1      34.742 -15.868 -23.832  0.00  0.00    +0.029 C 
ATOM     26  C   UNL     1      34.392 -16.513 -25.018  0.00  0.00    +0.140 C 
ENDBRANCH  19  21
ENDBRANCH   1  19
TORSDOF 7
ENDMDL
MODEL 4
REMARK VINA RESULT:      -8.4      7.334     10.866
REMARK  Name = 25134252
REMARK  7 active torsions:
REMARK  status: ('A' for Active; 'I' for Inactive)
REMARK    1  A    between atoms: N_1  and  C_19
REMARK    2  A    between atoms: C_3  and  C_12
REMARK    3  A    between atoms: N_11  and  C_14
REMARK    4  A    between atoms: C_14  and  C_15
REMARK    5  A    between atoms: C_15  and  C_16
REMARK    6  A    between atoms: C_16  and  S_17
REMARK    7  A    between atoms: C_19  and  C_21
REMARK                            x       y       z     vdW  Elec       q    Type
REMARK                         _______ _______ _______ _____ _____    ______ ____
ROOT
ATOM      1  N   UNL     1      34.250 -22.612 -17.285  0.00  0.00    +0.387 N 
ATOM      2  N   UNL     1      34.690 -23.347 -14.523  0.00  0.00    +0.388 N 
ATOM      3  C   UNL     1      33.344 -23.148 -15.055  0.00  0.00    -0.005 C 
ATOM      4  C   UNL     1      33.283 -23.444 -16.557  0.00  0.00    -0.090 C 
ATOM      5  C   UNL     1      35.605 -22.826 -16.762  0.00  0.00    -0.101 C 
ATOM      6  C   UNL     1      35.659 -22.536 -15.260  0.00  0.00    -0.104 C 
ATOM      7  H   UNL     1      34.002 -21.633 -17.146  0.00  0.00    -0.079 HD
ATOM      8  H   UNL     1      34.943 -24.332 -14.609  0.00  0.00    -0.084 HD
ATOM      9  H   UNL     1      34.702 -23.065 -13.543  0.00  0.00    -0.084 HD
ENDROOT
BRANCH   3  12
ATOM     10  O   UNL     1      32.767 -24.550 -13.214  0.00  0.00    -0.277 OA
ATOM     11  N   UNL     1      31.294 -24.382 -15.010  0.00  0.00    -0.306 N 
ATOM     12  C   UNL     1      32.454 -24.093 -14.310  0.00  0.00    +0.200 C 
ATOM     13  H   UNL     1      31.154 -23.952 -15.884  0.00  0.00    +0.149 HD
BRANCH  11  14
ATOM     14  C   UNL     1      30.281 -25.287 -14.518  0.00  0.00    +0.090 C 
BRANCH  14  15
ATOM     15  C   UNL     1      28.872 -24.898 -14.964  0.00  0.00    +0.033 C 
BRANCH  15  16
ATOM     16  C   UNL     1      28.872 -24.109 -16.271  0.00  0.00    +0.055 C 
BRANCH  16  17
ATOM     17  S   UNL     1      27.861 -22.607 -16.112  0.00  0.00    -0.168 S 
ATOM     18  H   UNL     1      28.031 -22.075 -14.873  0.00  0.00    +0.102 HD
ENDBRANCH  16  17
ENDBRANCH  15  16
ENDBRANCH  14  15
ENDBRANCH  11  14
ENDBRANCH   3  12
BRANCH   1  19
ATOM     19  C   UNL     1      34.198 -22.890 -18.720  0.00  0.00    -0.050 C 
BRANCH  19  21
ATOM     20  F   UNL     1      34.154 -18.155 -21.776  0.00  0.00    -0.204 F 
ATOM     21  C   UNL     1      34.187 -21.624 -19.536  0.00  0.00    -0.043 C 
ATOM     22  C   UNL     1      32.977 -20.995 -19.830  0.00  0.00    -0.004 C 
ATOM     23  C   UNL     1      35.385 -21.081 -19.998  0.00  0.00    -0.004 C 
ATOM     24  C   UNL     1      32.966 -19.823 -20.586  0.00  0.00    +0.029 C 
ATOM     25  C   UNL     1      35.374 -19.910 -20.755  0.00  0.00    +0.029 C 
ATOM     26  C   UNL     1      34.165 -19.281 -21.048  0.00  0.00    +0.140 C 
ENDBRANCH  19  21
ENDBRANCH   1  19
TORSDOF 7
ENDMDL
MODEL 5
REMARK VINA RESULT:      -8.3      1.655      2.397
REMARK  Name = 25134252
REMARK  7 active torsions:
REMARK  status: ('A' for Active; 'I' for Inactive)
REMARK    1  A    between atoms: N_1  and  C_19
REMARK    2  A    between atoms: C_3  and  C_12
REMARK    3  A    between atoms: N_11  and  C_14
REMARK    4  A    between atoms: C_14  and  C_15
REMARK    5  A    between atoms: C_15  and  C_16
REMARK    6  A    between atoms: C_16  and  S_17
REMARK    7  A    between atoms: C_19  and  C_21
REMARK                            x       y       z     vdW  Elec       q    Type
REMARK                         _______ _______ _______ _____ _____    ______ ____
ROOT
ATOM      1  N   UNL     1      34.751 -17.129 -22.269  0.00  0.00    +0.387 N 
ATOM      2  N   UNL     1      33.928 -14.430 -21.634  0.00  0.00    +0.388 N 
ATOM      3  C   UNL     1      34.501 -14.768 -22.936  0.00  0.00    -0.005 C 
ATOM      4  C   UNL     1      34.230 -16.229 -23.307  0.00  0.00    -0.090 C 
ATOM      5  C   UNL     1      34.161 -16.800 -20.965  0.00  0.00    -0.101 C 
ATOM      6  C   UNL     1      34.428 -15.338 -20.602  0.00  0.00    -0.104 C 
ATOM      7  H   UNL     1      35.761 -17.000 -22.208  0.00  0.00    -0.079 HD
ATOM      8  H   UNL     1      32.912 -14.507 -21.685  0.00  0.00    -0.084 HD
ATOM      9  H   UNL     1      34.198 -13.476 -21.393  0.00  0.00    -0.084 HD
ENDROOT
BRANCH   3  12
ATOM     10  O   UNL     1      33.076 -14.279 -24.784  0.00  0.00    -0.277 OA
ATOM     11  N   UNL     1      34.245 -12.540 -23.770  0.00  0.00    -0.306 N 
ATOM     12  C   UNL     1      33.850 -13.857 -23.930  0.00  0.00    +0.200 C 
ATOM     13  H   UNL     1      34.874 -12.323 -23.044  0.00  0.00    +0.149 HD
BRANCH  11  14
ATOM     14  C   UNL     1      33.779 -11.468 -24.619  0.00  0.00    +0.090 C 
BRANCH  14  15
ATOM     15  C   UNL     1      34.554 -10.168 -24.413  0.00  0.00    +0.033 C 
BRANCH  15  16
ATOM     16  C   UNL     1      33.763  -9.140 -23.606  0.00  0.00    +0.055 C 
BRANCH  16  17
ATOM     17  S   UNL     1      34.615  -7.535 -23.603  0.00  0.00    -0.168 S 
ATOM     18  H   UNL     1      35.243  -7.353 -24.794  0.00  0.00    +0.102 HD
ENDBRANCH  16  17
ENDBRANCH  15  16
ENDBRANCH  14  15
ENDBRANCH  11  14
ENDBRANCH   3  12
BRANCH   1  19
ATOM     19  C   UNL     1      34.496 -18.526 -22.617  0.00  0.00    -0.050 C 
BRANCH  19  21
ATOM     20  F   UNL     1      35.868 -22.021 -18.416  0.00  0.00    -0.204 F 
ATOM     21  C   UNL     1      34.862 -19.459 -21.494  0.00  0.00    -0.043 C 
ATOM     22  C   UNL     1      36.194 -19.590 -21.102  0.00  0.00    -0.004 C 
ATOM     23  C   UNL     1      33.870 -20.194 -20.846  0.00  0.00    -0.004 C 
ATOM     24  C   UNL     1      36.534 -20.455 -20.062  0.00  0.00    +0.029 C 
ATOM     25  C   UNL     1      34.209 -21.060 -19.806  0.00  0.00    +0.029 C 
ATOM     26  C   UNL     1      35.541 -21.189 -19.414  0.00  0.00    +0.140 C 
ENDBRANCH  19  21
ENDBRANCH   1  19
TORSDOF 7
ENDMDL
MODEL 6
REMARK VINA RESULT:      -8.3      2.268      2.654
REMARK  Name = 25134252
REMARK  7 active torsions:
REMARK  status: ('A' for Active; 'I' for Inactive)
REMARK    1  A    between atoms: N_1  and  C_19
REMARK    2  A    between atoms: C_3  and  C_12
REMARK    3  A    between atoms: N_11  and  C_14
REMARK    4  A    between atoms: C_14  and  C_15
REMARK    5  A    between atoms: C_15  and  C_16
REMARK    6  A    between atoms: C_16  and  S_17
REMARK    7  A    between atoms: C_19  and  C_21
REMARK                            x       y       z     vdW  Elec       q    Type
REMARK                         _______ _______ _______ _____ _____    ______ ____
ROOT
ATOM      1  N   UNL     1      35.163 -18.513 -21.834  0.00  0.00    +0.387 N 
ATOM      2  N   UNL     1      34.600 -16.016 -23.181  0.00  0.00    +0.388 N 
ATOM      3  C   UNL     1      34.046 -16.314 -21.862  0.00  0.00    -0.005 C 
ATOM      4  C   UNL     1      34.947 -17.272 -21.077  0.00  0.00    -0.090 C 
ATOM      5  C   UNL     1      35.736 -18.213 -23.153  0.00  0.00    -0.101 C 
ATOM      6  C   UNL     1      34.835 -17.250 -23.930  0.00  0.00    -0.104 C 
ATOM      7  H   UNL     1      34.261 -18.968 -21.971  0.00  0.00    -0.079 HD
ATOM      8  H   UNL     1      35.483 -15.517 -23.069  0.00  0.00    -0.084 HD
ATOM      9  H   UNL     1      33.933 -15.440 -23.696  0.00  0.00    -0.084 HD
ENDROOT
BRANCH   3  12
ATOM     10  O   UNL     1      34.856 -14.576 -20.443  0.00  0.00    -0.277 OA
ATOM     11  N   UNL     1      32.722 -14.387 -21.354  0.00  0.00    -0.306 N 
ATOM     12  C   UNL     1      33.943 -15.005 -21.144  0.00  0.00    +0.200 C 
ATOM     13  H   UNL     1      32.067 -14.831 -21.940  0.00  0.00    +0.149 HD
BRANCH  11  14
ATOM     14  C   UNL     1      32.362 -13.123 -20.753  0.00  0.00    +0.090 C 
BRANCH  14  15
ATOM     15  C   UNL     1      31.690 -12.168 -21.738  0.00  0.00    +0.033 C 
BRANCH  15  16
ATOM     16  C   UNL     1      31.125 -10.927 -21.051  0.00  0.00    +0.055 C 
BRANCH  16  17
ATOM     17  S   UNL     1      31.952  -9.427 -21.658  0.00  0.00    -0.168 S 
ATOM     18  H   UNL     1      32.633  -9.714 -22.798  0.00  0.00    +0.102 HD
ENDBRANCH  16  17
ENDBRANCH  15  16
ENDBRANCH  14  15
ENDBRANCH  11  14
ENDBRANCH   3  12
BRANCH   1  19
ATOM     19  C   UNL     1      36.023 -19.432 -21.091  0.00  0.00    -0.050 C 
BRANCH  19  21
ATOM     20  F   UNL     1      33.030 -23.103 -18.038  0.00  0.00    -0.204 F 
ATOM     21  C   UNL     1      35.223 -20.412 -20.275  0.00  0.00    -0.043 C 
ATOM     22  C   UNL     1      35.874 -21.308 -19.426  0.00  0.00    -0.004 C 
ATOM     23  C   UNL     1      33.832 -20.425 -20.367  0.00  0.00    -0.004 C 
ATOM     24  C   UNL     1      35.133 -22.217 -18.671  0.00  0.00    +0.029 C 
ATOM     25  C   UNL     1      33.091 -21.334 -19.612  0.00  0.00    +0.029 C 
ATOM     26  C   UNL     1      33.742 -22.229 -18.763  0.00  0.00    +0.140 C 
ENDBRANCH  19  21
ENDBRANCH   1  19
TORSDOF 7
ENDMDL
MODEL 7
REMARK VINA RESULT:      -8.2      1.616      2.163
REMARK  Name = 25134252
REMARK  7 active torsions:
REMARK  status: ('A' for Active; 'I' for Inactive)
REMARK    1  A    between atoms: N_1  and  C_19
REMARK    2  A    between atoms: C_3  and  C_12
REMARK    3  A    between atoms: N_11  and  C_14
REMARK    4  A    between atoms: C_14  and  C_15
REMARK    5  A    between atoms: C_15  and  C_16
REMARK    6  A    between atoms: C_16  and  S_17
REMARK    7  A    between atoms: C_19  and  C_21
REMARK                            x       y       z     vdW  Elec       q    Type
REMARK                         _______ _______ _______ _____ _____    ______ ____
ROOT
ATOM      1  N   UNL     1      34.444 -16.673 -23.010  0.00  0.00    +0.387 N 
ATOM      2  N   UNL     1      33.933 -15.814 -25.724  0.00  0.00    +0.388 N 
ATOM      3  C   UNL     1      33.461 -15.042 -24.577  0.00  0.00    -0.005 C 
ATOM      4  C   UNL     1      34.359 -15.247 -23.353  0.00  0.00    -0.090 C 
ATOM      5  C   UNL     1      34.936 -17.446 -24.157  0.00  0.00    -0.101 C 
ATOM      6  C   UNL     1      34.040 -17.232 -25.380  0.00  0.00    -0.104 C 
ATOM      7  H   UNL     1      33.509 -17.004 -22.775  0.00  0.00    -0.079 HD
ATOM      8  H   UNL     1      34.851 -15.468 -26.007  0.00  0.00    -0.084 HD
ATOM      9  H   UNL     1      33.266 -15.710 -26.489  0.00  0.00    -0.084 HD
ENDROOT
BRANCH   3  12
ATOM     10  O   UNL     1      33.285 -13.268 -26.161  0.00  0.00    -0.277 OA
ATOM     11  N   UNL     1      33.785 -12.757 -23.945  0.00  0.00    -0.306 N 
ATOM     12  C   UNL     1      33.489 -13.606 -24.998  0.00  0.00    +0.200 C 
ATOM     13  H   UNL     1      33.928 -13.148 -23.053  0.00  0.00    +0.149 HD
BRANCH  11  14
ATOM     14  C   UNL     1      33.894 -11.324 -24.093  0.00  0.00    +0.090 C 
BRANCH  14  15
ATOM     15  C   UNL     1      32.904 -10.559 -23.216  0.00  0.00    +0.033 C 
BRANCH  15  16
ATOM     16  C   UNL     1      32.792  -9.088 -23.612  0.00  0.00    +0.055 C 
BRANCH  16  17
ATOM     17  S   UNL     1      34.440  -8.361 -23.848  0.00  0.00    -0.168 S 
ATOM     18  H   UNL     1      34.487  -7.724 -25.048  0.00  0.00    +0.102 HD
ENDBRANCH  16  17
ENDBRANCH  15  16
ENDBRANCH  14  15
ENDBRANCH  11  14
ENDBRANCH   3  12
BRANCH   1  19
ATOM     19  C   UNL     1      35.300 -16.876 -21.842  0.00  0.00    -0.050 C 
BRANCH  19  21
ATOM     20  F   UNL     1      34.712 -22.049 -19.685  0.00  0.00    -0.204 F 
ATOM     21  C   UNL     1      35.143 -18.258 -21.265  0.00  0.00    -0.043 C 
ATOM     22  C   UNL     1      36.270 -18.996 -20.906  0.00  0.00    -0.004 C 
ATOM     23  C   UNL     1      33.870 -18.800 -21.090  0.00  0.00    -0.004 C 
ATOM     24  C   UNL     1      36.125 -20.277 -20.372  0.00  0.00    +0.029 C 
ATOM     25  C   UNL     1      33.724 -20.081 -20.557  0.00  0.00    +0.029 C 
ATOM     26  C   UNL     1      34.852 -20.818 -20.198  0.00  0.00    +0.140 C 
ENDBRANCH  19  21
ENDBRANCH   1  19
TORSDOF 7
ENDMDL
MODEL 8
REMARK VINA RESULT:      -8.2      4.686      8.653
REMARK  Name = 25134252
REMARK  7 active torsions:
REMARK  status: ('A' for Active; 'I' for Inactive)
REMARK    1  A    between atoms: N_1  and  C_19
REMARK    2  A    between atoms: C_3  and  C_12
REMARK    3  A    between atoms: N_11  and  C_14
REMARK    4  A    between atoms: C_14  and  C_15
REMARK    5  A    between atoms: C_15  and  C_16
REMARK    6  A    between atoms: C_16  and  S_17
REMARK    7  A    between atoms: C_19  and  C_21
REMARK                            x       y       z     vdW  Elec       q    Type
REMARK                         _______ _______ _______ _____ _____    ______ ____
ROOT
ATOM      1  N   UNL     1      33.738 -14.422 -23.829  0.00  0.00    +0.387 N 
ATOM      2  N   UNL     1      34.724 -17.139 -23.939  0.00  0.00    +0.388 N 
ATOM      3  C   UNL     1      34.968 -16.285 -22.779  0.00  0.00    -0.005 C 
ATOM      4  C   UNL     1      33.866 -15.235 -22.611  0.00  0.00    -0.090 C 
ATOM      5  C   UNL     1      33.475 -15.281 -24.991  0.00  0.00    -0.101 C 
ATOM      6  C   UNL     1      34.576 -16.332 -25.150  0.00  0.00    -0.104 C 
ATOM      7  H   UNL     1      34.620 -13.933 -23.983  0.00  0.00    -0.079 HD
ATOM      8  H   UNL     1      33.869 -17.675 -23.787  0.00  0.00    -0.084 HD
ATOM      9  H   UNL     1      35.517 -17.769 -24.059  0.00  0.00    -0.084 HD
ENDROOT
BRANCH   3  12
ATOM     10  O   UNL     1      35.227 -16.768 -20.459  0.00  0.00    -0.277 OA
ATOM     11  N   UNL     1      34.767 -18.512 -21.930  0.00  0.00    -0.306 N 
ATOM     12  C   UNL     1      34.999 -17.191 -21.589  0.00  0.00    +0.200 C 
ATOM     13  H   UNL     1      34.595 -18.729 -22.875  0.00  0.00    +0.149 HD
BRANCH  11  14
ATOM     14  C   UNL     1      34.767 -19.588 -20.966  0.00  0.00    +0.090 C 
BRANCH  14  15
ATOM     15  C   UNL     1      33.362 -20.089 -20.635  0.00  0.00    +0.033 C 
BRANCH  15  16
ATOM     16  C   UNL     1      33.373 -21.211 -19.599  0.00  0.00    +0.055 C 
BRANCH  16  17
ATOM     17  S   UNL     1      35.061 -21.834 -19.348  0.00  0.00    -0.168 S 
ATOM     18  H   UNL     1      35.671 -21.991 -20.553  0.00  0.00    +0.102 HD
ENDBRANCH  16  17
ENDBRANCH  15  16
ENDBRANCH  14  15
ENDBRANCH  11  14
ENDBRANCH   3  12
BRANCH   1  19
ATOM     19  C   UNL     1      32.687 -13.418 -23.676  0.00  0.00    -0.050 C 
BRANCH  19  21
ATOM     20  F   UNL     1      34.691  -8.179 -24.208  0.00  0.00    -0.204 F 
ATOM     21  C   UNL     1      33.223 -12.019 -23.818  0.00  0.00    -0.043 C 
ATOM     22  C   UNL     1      32.701 -10.989 -23.035  0.00  0.00    -0.004 C 
ATOM     23  C   UNL     1      34.241 -11.751 -24.732  0.00  0.00    -0.004 C 
ATOM     24  C   UNL     1      33.197  -9.692 -23.166  0.00  0.00    +0.029 C 
ATOM     25  C   UNL     1      34.737 -10.454 -24.865  0.00  0.00    +0.029 C 
ATOM     26  C   UNL     1      34.215  -9.425 -24.081  0.00  0.00    +0.140 C 
ENDBRANCH  19  21
ENDBRANCH   1  19
TORSDOF 7
ENDMDL
MODEL 9
REMARK VINA RESULT:      -8.2      5.225      8.735
REMARK  Name = 25134252
REMARK  7 active torsions:
REMARK  status: ('A' for Active; 'I' for Inactive)
REMARK    1  A    between atoms: N_1  and  C_19
REMARK    2  A    between atoms: C_3  and  C_12
REMARK    3  A    between atoms: N_11  and  C_14
REMARK    4  A    between atoms: C_14  and  C_15
REMARK    5  A    between atoms: C_15  and  C_16
REMARK    6  A    between atoms: C_16  and  S_17
REMARK    7  A    between atoms: C_19  and  C_21
REMARK                            x       y       z     vdW  Elec       q    Type
REMARK                         _______ _______ _______ _____ _____    ______ ____
ROOT
ATOM      1  N   UNL     1      32.711 -13.063 -22.263  0.00  0.00    +0.387 N 
ATOM      2  N   UNL     1      34.276 -15.290 -23.242  0.00  0.00    +0.388 N 
ATOM      3  C   UNL     1      34.400 -14.816 -21.865  0.00  0.00    -0.005 C 
ATOM      4  C   UNL     1      33.103 -14.166 -21.375  0.00  0.00    -0.090 C 
ATOM      5  C   UNL     1      32.569 -13.545 -23.643  0.00  0.00    -0.101 C 
ATOM      6  C   UNL     1      33.866 -14.199 -24.126  0.00  0.00    -0.104 C 
ATOM      7  H   UNL     1      33.446 -12.356 -22.242  0.00  0.00    -0.079 HD
ATOM      8  H   UNL     1      33.577 -16.033 -23.279  0.00  0.00    -0.084 HD
ATOM      9  H   UNL     1      35.181 -15.643 -23.553  0.00  0.00    -0.084 HD
ENDROOT
BRANCH   3  12
ATOM     10  O   UNL     1      34.985 -15.928 -19.839  0.00  0.00    -0.277 OA
ATOM     11  N   UNL     1      34.689 -17.190 -21.773  0.00  0.00    -0.306 N 
ATOM     12  C   UNL     1      34.717 -16.020 -21.034  0.00  0.00    +0.200 C 
ATOM     13  H   UNL     1      34.459 -17.135 -22.729  0.00  0.00    +0.149 HD
BRANCH  11  14
ATOM     14  C   UNL     1      34.982 -18.487 -21.209  0.00  0.00    +0.090 C 
BRANCH  14  15
ATOM     15  C   UNL     1      33.811 -19.461 -21.321  0.00  0.00    +0.033 C 
BRANCH  15  16
ATOM     16  C   UNL     1      33.821 -20.514 -20.214  0.00  0.00    +0.055 C 
BRANCH  16  17
ATOM     17  S   UNL     1      35.516 -21.083 -19.888  0.00  0.00    -0.168 S 
ATOM     18  H   UNL     1      35.678 -22.336 -20.388  0.00  0.00    +0.102 HD
ENDBRANCH  16  17
ENDBRANCH  15  16
ENDBRANCH  14  15
ENDBRANCH  11  14
ENDBRANCH   3  12
BRANCH   1  19
ATOM     19  C   UNL     1      31.473 -12.439 -21.801  0.00  0.00    -0.050 C 
BRANCH  19  21
ATOM     20  F   UNL     1      32.376  -7.271 -19.742  0.00  0.00    -0.204 F 
ATOM     21  C   UNL     1      31.713 -11.058 -21.250  0.00  0.00    -0.043 C 
ATOM     22  C   UNL     1      32.054 -10.014 -22.110  0.00  0.00    -0.004 C 
ATOM     23  C   UNL     1      31.596 -10.822 -19.881  0.00  0.00    -0.004 C 
ATOM     24  C   UNL     1      32.278  -8.735 -21.601  0.00  0.00    +0.029 C 
ATOM     25  C   UNL     1      31.820  -9.543 -19.371  0.00  0.00    +0.029 C 
ATOM     26  C   UNL     1      32.160  -8.500 -20.232  0.00  0.00    +0.140 C 
ENDBRANCH  19  21
ENDBRANCH   1  19
TORSDOF 7
ENDMDL
