MODEL 1
REMARK VINA RESULT:      -9.6      0.000      0.000
REMARK  Name = 5288588
REMARK  2 active torsions:
REMARK  status: ('A' for Active; 'I' for Inactive)
REMARK    1  A    between atoms: C_9  and  C_22
REMARK    2  A    between atoms: C_12  and  N_19
REMARK                            x       y       z     vdW  Elec       q    Type
REMARK                         _______ _______ _______ _____ _____    ______ ____
ROOT
ATOM      1 CL   UNL     1      29.127 -25.058 -14.995  0.00  0.00    -0.082 Cl
ATOM      2  N   UNL     1      33.652 -24.593 -12.750  0.00  0.00    -0.410 NA
ATOM      3  C   UNL     1      36.970 -22.992 -13.728  0.00  0.00    +0.030 C 
ATOM      4  C   UNL     1      37.228 -24.235 -11.597  0.00  0.00    +0.029 C 
ATOM      5  C   UNL     1      37.450 -22.877 -12.276  0.00  0.00    +0.010 C 
ATOM      6  C   UNL     1      37.876 -23.994 -14.481  0.00  0.00    +0.026 C 
ATOM      7  C   UNL     1      35.715 -24.482 -11.467  0.00  0.00    +0.063 C 
ATOM      8  C   UNL     1      35.520 -23.438 -13.768  0.00  0.00    +0.013 C 
ATOM      9  C   UNL     1      38.192 -25.246 -13.688  0.00  0.00    -0.048 C 
ATOM     10  C   UNL     1      34.940 -24.164 -12.725  0.00  0.00    +0.106 C 
ATOM     11  C   UNL     1      37.879 -25.351 -12.383  0.00  0.00    -0.034 C 
ATOM     12  C   UNL     1      34.723 -23.167 -14.880  0.00  0.00    +0.027 C 
ATOM     13  C   UNL     1      33.394 -23.604 -14.929  0.00  0.00    +0.109 C 
ATOM     14  C   UNL     1      32.893 -24.323 -13.828  0.00  0.00    +0.118 C 
ATOM     15  C   UNL     1      32.574 -23.342 -16.040  0.00  0.00    -0.013 C 
ATOM     16  C   UNL     1      31.572 -24.759 -13.876  0.00  0.00    +0.040 C 
ATOM     17  C   UNL     1      31.255 -23.789 -16.062  0.00  0.00    +0.008 C 
ATOM     18  C   UNL     1      30.754 -24.499 -14.978  0.00  0.00    +0.060 C 
ENDROOT
BRANCH  12  19
ATOM     19  N   UNL     1      35.272 -22.439 -15.970  0.00  0.00    -0.360 N 
ATOM     20  H   UNL     1      35.200 -21.457 -15.992  0.00  0.00    +0.142 HD
ATOM     21  H   UNL     1      35.724 -22.916 -16.703  0.00  0.00    +0.142 HD
ENDBRANCH  12  19
BRANCH   9  22
ATOM     22  C   UNL     1      38.864 -26.356 -14.439  0.00  0.00    +0.022 C 
ATOM     23  C   UNL     1      40.353 -26.112 -14.584  0.00  0.00    +0.005 C 
ENDBRANCH   9  22
TORSDOF 2
ENDMDL
MODEL 2
REMARK VINA RESULT:      -8.3     15.869     18.184
REMARK  Name = 5288588
REMARK  2 active torsions:
REMARK  status: ('A' for Active; 'I' for Inactive)
REMARK    1  A    between atoms: C_9  and  C_22
REMARK    2  A    between atoms: C_12  and  N_19
REMARK                            x       y       z     vdW  Elec       q    Type
REMARK                         _______ _______ _______ _____ _____    ______ ____
ROOT
ATOM      1 CL   UNL     1      33.491 -15.644 -25.673  0.00  0.00    -0.082 Cl
ATOM      2  N   UNL     1      34.350 -10.749 -24.657  0.00  0.00    -0.410 NA
ATOM      3  C   UNL     1      33.015  -8.279 -22.078  0.00  0.00    +0.030 C 
ATOM      4  C   UNL     1      34.464  -7.098 -23.707  0.00  0.00    +0.029 C 
ATOM      5  C   UNL     1      34.221  -7.342 -22.212  0.00  0.00    +0.010 C 
ATOM      6  C   UNL     1      31.752  -7.553 -22.597  0.00  0.00    +0.026 C 
ATOM      7  C   UNL     1      34.942  -8.410 -24.353  0.00  0.00    +0.063 C 
ATOM      8  C   UNL     1      33.258  -9.562 -22.851  0.00  0.00    +0.013 C 
ATOM      9  C   UNL     1      31.975  -6.788 -23.886  0.00  0.00    -0.048 C 
ATOM     10  C   UNL     1      34.134  -9.618 -23.937  0.00  0.00    +0.106 C 
ATOM     11  C   UNL     1      33.209  -6.600 -24.389  0.00  0.00    -0.034 C 
ATOM     12  C   UNL     1      32.573 -10.732 -22.520  0.00  0.00    +0.027 C 
ATOM     13  C   UNL     1      32.775 -11.908 -23.253  0.00  0.00    +0.109 C 
ATOM     14  C   UNL     1      33.684 -11.870 -24.327  0.00  0.00    +0.118 C 
ATOM     15  C   UNL     1      32.097 -13.097 -22.937  0.00  0.00    -0.013 C 
ATOM     16  C   UNL     1      33.885 -13.039 -25.056  0.00  0.00    +0.040 C 
ATOM     17  C   UNL     1      32.316 -14.252 -23.682  0.00  0.00    +0.008 C 
ATOM     18  C   UNL     1      33.212 -14.223 -24.744  0.00  0.00    +0.060 C 
ENDROOT
BRANCH  12  19
ATOM     19  N   UNL     1      31.664 -10.722 -21.429  0.00  0.00    -0.360 N 
ATOM     20  H   UNL     1      30.714 -10.933 -21.578  0.00  0.00    +0.142 HD
ATOM     21  H   UNL     1      31.984 -10.504 -20.523  0.00  0.00    +0.142 HD
ENDBRANCH  12  19
BRANCH   9  22
ATOM     22  C   UNL     1      30.748  -6.260 -24.565  0.00  0.00    +0.022 C 
ATOM     23  C   UNL     1      30.830  -4.763 -24.786  0.00  0.00    +0.005 C 
ENDBRANCH   9  22
TORSDOF 2
ENDMDL
MODEL 3
REMARK VINA RESULT:      -8.0     12.930     15.273
REMARK  Name = 5288588
REMARK  2 active torsions:
REMARK  status: ('A' for Active; 'I' for Inactive)
REMARK    1  A    between atoms: C_9  and  C_22
REMARK    2  A    between atoms: C_12  and  N_19
REMARK                            x       y       z     vdW  Elec       q    Type
REMARK                         _______ _______ _______ _____ _____    ______ ____
ROOT
ATOM      1 CL   UNL     1      35.706 -17.809 -20.996  0.00  0.00    -0.082 Cl
ATOM      2  N   UNL     1      32.845 -13.643 -20.557  0.00  0.00    -0.410 NA
ATOM      3  C   UNL     1      31.518 -11.042 -23.006  0.00  0.00    +0.030 C 
ATOM      4  C   UNL     1      30.992 -10.357 -20.682  0.00  0.00    +0.029 C 
ATOM      5  C   UNL     1      30.387 -10.600 -22.070  0.00  0.00    +0.010 C 
ATOM      6  C   UNL     1      32.515  -9.872 -23.179  0.00  0.00    +0.026 C 
ATOM      7  C   UNL     1      31.449 -11.706 -20.098  0.00  0.00    +0.063 C 
ATOM      8  C   UNL     1      32.214 -12.268 -22.447  0.00  0.00    +0.013 C 
ATOM      9  C   UNL     1      32.842  -9.153 -21.886  0.00  0.00    -0.048 C 
ATOM     10  C   UNL     1      32.211 -12.563 -21.083  0.00  0.00    +0.106 C 
ATOM     11  C   UNL     1      32.154  -9.392 -20.754  0.00  0.00    -0.034 C 
ATOM     12  C   UNL     1      32.920 -13.129 -23.287  0.00  0.00    +0.027 C 
ATOM     13  C   UNL     1      33.588 -14.245 -22.767  0.00  0.00    +0.109 C 
ATOM     14  C   UNL     1      33.523 -14.466 -21.378  0.00  0.00    +0.118 C 
ATOM     15  C   UNL     1      34.305 -15.125 -23.594  0.00  0.00    -0.013 C 
ATOM     16  C   UNL     1      34.186 -15.574 -20.860  0.00  0.00    +0.040 C 
ATOM     17  C   UNL     1      34.960 -16.227 -23.050  0.00  0.00    +0.008 C 
ATOM     18  C   UNL     1      34.900 -16.452 -21.680  0.00  0.00    +0.060 C 
ENDROOT
BRANCH  12  19
ATOM     19  N   UNL     1      32.960 -12.865 -24.682  0.00  0.00    -0.360 N 
ATOM     20  H   UNL     1      32.758 -13.583 -25.325  0.00  0.00    +0.142 HD
ATOM     21  H   UNL     1      33.189 -11.964 -25.007  0.00  0.00    +0.142 HD
ENDBRANCH  12  19
BRANCH   9  22
ATOM     22  C   UNL     1      33.972  -8.170 -21.940  0.00  0.00    +0.022 C 
ATOM     23  C   UNL     1      34.399  -7.885 -23.367  0.00  0.00    +0.005 C 
ENDBRANCH   9  22
TORSDOF 2
ENDMDL
MODEL 4
REMARK VINA RESULT:      -7.9     11.952     14.373
REMARK  Name = 5288588
REMARK  2 active torsions:
REMARK  status: ('A' for Active; 'I' for Inactive)
REMARK    1  A    between atoms: C_9  and  C_22
REMARK    2  A    between atoms: C_12  and  N_19
REMARK                            x       y       z     vdW  Elec       q    Type
REMARK                         _______ _______ _______ _____ _____    ______ ____
ROOT
ATOM      1 CL   UNL     1      36.805 -19.429 -20.624  0.00  0.00    -0.082 Cl
ATOM      2  N   UNL     1      34.035 -15.269 -21.496  0.00  0.00    -0.410 NA
ATOM      3  C   UNL     1      32.549 -13.651 -24.610  0.00  0.00    +0.030 C 
ATOM      4  C   UNL     1      32.214 -12.171 -22.649  0.00  0.00    +0.029 C 
ATOM      5  C   UNL     1      31.500 -12.865 -23.816  0.00  0.00    +0.010 C 
ATOM      6  C   UNL     1      33.543 -12.657 -25.255  0.00  0.00    +0.026 C 
ATOM      7  C   UNL     1      32.700 -13.244 -21.658  0.00  0.00    +0.063 C 
ATOM      8  C   UNL     1      33.273 -14.627 -23.702  0.00  0.00    +0.013 C 
ATOM      9  C   UNL     1      33.978 -11.541 -24.327  0.00  0.00    -0.048 C 
ATOM     10  C   UNL     1      33.373 -14.422 -22.324  0.00  0.00    +0.106 C 
ATOM     11  C   UNL     1      33.378 -11.339 -23.139  0.00  0.00    -0.034 C 
ATOM     12  C   UNL     1      33.902 -15.755 -24.228  0.00  0.00    +0.027 C 
ATOM     13  C   UNL     1      34.596 -16.640 -23.394  0.00  0.00    +0.109 C 
ATOM     14  C   UNL     1      34.637 -16.354 -22.016  0.00  0.00    +0.118 C 
ATOM     15  C   UNL     1      35.237 -17.782 -23.903  0.00  0.00    -0.013 C 
ATOM     16  C   UNL     1      35.326 -17.233 -21.185  0.00  0.00    +0.040 C 
ATOM     17  C   UNL     1      35.920 -18.645 -23.050  0.00  0.00    +0.008 C 
ATOM     18  C   UNL     1      35.964 -18.370 -21.688  0.00  0.00    +0.060 C 
ENDROOT
BRANCH  12  19
ATOM     19  N   UNL     1      33.836 -16.002 -25.626  0.00  0.00    -0.360 N 
ATOM     20  H   UNL     1      33.725 -15.251 -26.253  0.00  0.00    +0.142 HD
ATOM     21  H   UNL     1      33.899 -16.923 -25.967  0.00  0.00    +0.142 HD
ENDBRANCH  12  19
BRANCH   9  22
ATOM     22  C   UNL     1      35.111 -10.684 -24.804  0.00  0.00    +0.022 C 
ATOM     23  C   UNL     1      34.972  -9.253 -24.323  0.00  0.00    +0.005 C 
ENDBRANCH   9  22
TORSDOF 2
ENDMDL
MODEL 5
REMARK VINA RESULT:      -7.7      5.906      8.531
REMARK  Name = 5288588
REMARK  2 active torsions:
REMARK  status: ('A' for Active; 'I' for Inactive)
REMARK    1  A    between atoms: C_9  and  C_22
REMARK    2  A    between atoms: C_12  and  N_19
REMARK                            x       y       z     vdW  Elec       q    Type
REMARK                         _______ _______ _______ _____ _____    ______ ____
ROOT
ATOM      1 CL   UNL     1      32.614 -24.186 -15.157  0.00  0.00    -0.082 Cl
ATOM      2  N   UNL     1      32.793 -21.352 -19.361  0.00  0.00    -0.410 NA
ATOM      3  C   UNL     1      35.597 -19.783 -21.410  0.00  0.00    +0.030 C 
ATOM      4  C   UNL     1      33.398 -19.033 -22.276  0.00  0.00    +0.029 C 
ATOM      5  C   UNL     1      34.737 -19.667 -22.673  0.00  0.00    +0.010 C 
ATOM      6  C   UNL     1      35.938 -18.363 -20.900  0.00  0.00    +0.026 C 
ATOM      7  C   UNL     1      32.623 -20.025 -21.391  0.00  0.00    +0.063 C 
ATOM      8  C   UNL     1      34.864 -20.578 -20.346  0.00  0.00    +0.013 C 
ATOM      9  C   UNL     1      34.764 -17.406 -20.930  0.00  0.00    -0.048 C 
ATOM     10  C   UNL     1      33.471 -20.665 -20.316  0.00  0.00    +0.106 C 
ATOM     11  C   UNL     1      33.610 -17.726 -21.544  0.00  0.00    -0.034 C 
ATOM     12  C   UNL     1      35.568 -21.223 -19.329  0.00  0.00    +0.027 C 
ATOM     13  C   UNL     1      34.889 -21.931 -18.330  0.00  0.00    +0.109 C 
ATOM     14  C   UNL     1      33.483 -21.970 -18.386  0.00  0.00    +0.118 C 
ATOM     15  C   UNL     1      35.579 -22.588 -17.296  0.00  0.00    -0.013 C 
ATOM     16  C   UNL     1      32.808 -22.674 -17.393  0.00  0.00    +0.040 C 
ATOM     17  C   UNL     1      34.879 -23.285 -16.315  0.00  0.00    +0.008 C 
ATOM     18  C   UNL     1      33.490 -23.328 -16.364  0.00  0.00    +0.060 C 
ENDROOT
BRANCH  12  19
ATOM     19  N   UNL     1      36.987 -21.154 -19.312  0.00  0.00    -0.360 N 
ATOM     20  H   UNL     1      37.464 -20.650 -20.010  0.00  0.00    +0.142 HD
ATOM     21  H   UNL     1      37.494 -21.612 -18.602  0.00  0.00    +0.142 HD
ENDBRANCH  12  19
BRANCH   9  22
ATOM     22  C   UNL     1      34.960 -16.092 -20.235  0.00  0.00    +0.022 C 
ATOM     23  C   UNL     1      34.219 -14.971 -20.937  0.00  0.00    +0.005 C 
ENDBRANCH   9  22
TORSDOF 2
ENDMDL
MODEL 6
REMARK VINA RESULT:      -7.3     10.436     12.470
REMARK  Name = 5288588
REMARK  2 active torsions:
REMARK  status: ('A' for Active; 'I' for Inactive)
REMARK    1  A    between atoms: C_9  and  C_22
REMARK    2  A    between atoms: C_12  and  N_19
REMARK                            x       y       z     vdW  Elec       q    Type
REMARK                         _______ _______ _______ _____ _____    ______ ____
ROOT
ATOM      1 CL   UNL     1      32.915 -10.920 -24.146  0.00  0.00    -0.082 Cl
ATOM      2  N   UNL     1      34.961 -15.163 -22.263  0.00  0.00    -0.410 NA
ATOM      3  C   UNL     1      35.247 -18.763 -23.482  0.00  0.00    +0.030 C 
ATOM      4  C   UNL     1      36.093 -18.589 -21.158  0.00  0.00    +0.029 C 
ATOM      5  C   UNL     1      36.439 -19.076 -22.571  0.00  0.00    +0.010 C 
ATOM      6  C   UNL     1      34.031 -19.606 -23.031  0.00  0.00    +0.026 C 
ATOM      7  C   UNL     1      36.028 -17.052 -21.165  0.00  0.00    +0.063 C 
ATOM      8  C   UNL     1      34.924 -17.281 -23.435  0.00  0.00    +0.013 C 
ATOM      9  C   UNL     1      33.843 -19.649 -21.529  0.00  0.00    -0.048 C 
ATOM     10  C   UNL     1      35.260 -16.485 -22.337  0.00  0.00    +0.106 C 
ATOM     11  C   UNL     1      34.778 -19.171 -20.687  0.00  0.00    -0.034 C 
ATOM     12  C   UNL     1      34.238 -16.668 -24.484  0.00  0.00    +0.027 C 
ATOM     13  C   UNL     1      33.915 -15.307 -24.426  0.00  0.00    +0.109 C 
ATOM     14  C   UNL     1      34.300 -14.584 -23.282  0.00  0.00    +0.118 C 
ATOM     15  C   UNL     1      33.225 -14.670 -25.471  0.00  0.00    -0.013 C 
ATOM     16  C   UNL     1      33.979 -13.231 -23.224  0.00  0.00    +0.040 C 
ATOM     17  C   UNL     1      32.915 -13.315 -25.388  0.00  0.00    +0.008 C 
ATOM     18  C   UNL     1      33.293 -12.595 -24.262  0.00  0.00    +0.060 C 
ENDROOT
BRANCH  12  19
ATOM     19  N   UNL     1      33.868 -17.439 -25.618  0.00  0.00    -0.360 N 
ATOM     20  H   UNL     1      33.083 -17.181 -26.154  0.00  0.00    +0.142 HD
ATOM     21  H   UNL     1      34.395 -18.232 -25.868  0.00  0.00    +0.142 HD
ENDBRANCH  12  19
BRANCH   9  22
ATOM     22  C   UNL     1      32.559 -20.248 -21.037  0.00  0.00    +0.022 C 
ATOM     23  C   UNL     1      32.737 -20.928 -19.694  0.00  0.00    +0.005 C 
ENDBRANCH   9  22
TORSDOF 2
ENDMDL
MODEL 7
REMARK VINA RESULT:      -7.3      3.823      4.927
REMARK  Name = 5288588
REMARK  2 active torsions:
REMARK  status: ('A' for Active; 'I' for Inactive)
REMARK    1  A    between atoms: C_9  and  C_22
REMARK    2  A    between atoms: C_12  and  N_19
REMARK                            x       y       z     vdW  Elec       q    Type
REMARK                         _______ _______ _______ _____ _____    ______ ____
ROOT
ATOM      1 CL   UNL     1      34.857 -20.335 -22.172  0.00  0.00    -0.082 Cl
ATOM      2  N   UNL     1      34.389 -22.754 -17.738  0.00  0.00    -0.410 NA
ATOM      3  C   UNL     1      36.496 -22.958 -14.568  0.00  0.00    +0.030 C 
ATOM      4  C   UNL     1      34.600 -24.550 -14.425  0.00  0.00    +0.029 C 
ATOM      5  C   UNL     1      35.315 -23.403 -13.699  0.00  0.00    +0.010 C 
ATOM      6  C   UNL     1      37.524 -24.110 -14.651  0.00  0.00    +0.026 C 
ATOM      7  C   UNL     1      33.934 -23.993 -15.696  0.00  0.00    +0.063 C 
ATOM      8  C   UNL     1      36.012 -22.565 -15.952  0.00  0.00    +0.013 C 
ATOM      9  C   UNL     1      36.897 -25.473 -14.868  0.00  0.00    -0.048 C 
ATOM     10  C   UNL     1      34.830 -23.074 -16.494  0.00  0.00    +0.106 C 
ATOM     11  C   UNL     1      35.567 -25.658 -14.778  0.00  0.00    -0.034 C 
ATOM     12  C   UNL     1      36.763 -21.702 -16.749  0.00  0.00    +0.027 C 
ATOM     13  C   UNL     1      36.331 -21.363 -18.037  0.00  0.00    +0.109 C 
ATOM     14  C   UNL     1      35.122 -21.920 -18.497  0.00  0.00    +0.118 C 
ATOM     15  C   UNL     1      37.072 -20.496 -18.858  0.00  0.00    -0.013 C 
ATOM     16  C   UNL     1      34.692 -21.584 -19.777  0.00  0.00    +0.040 C 
ATOM     17  C   UNL     1      36.619 -20.176 -20.135  0.00  0.00    +0.008 C 
ATOM     18  C   UNL     1      35.427 -20.721 -20.595  0.00  0.00    +0.060 C 
ENDROOT
BRANCH  12  19
ATOM     19  N   UNL     1      37.978 -21.166 -16.244  0.00  0.00    -0.360 N 
ATOM     20  H   UNL     1      38.026 -20.847 -15.314  0.00  0.00    +0.142 HD
ATOM     21  H   UNL     1      38.772 -21.113 -16.824  0.00  0.00    +0.142 HD
ENDBRANCH  12  19
BRANCH   9  22
ATOM     22  C   UNL     1      37.839 -26.593 -15.191  0.00  0.00    +0.022 C 
ATOM     23  C   UNL     1      39.272 -26.238 -14.847  0.00  0.00    +0.005 C 
ENDBRANCH   9  22
TORSDOF 2
ENDMDL
MODEL 8
REMARK VINA RESULT:      -7.2     18.885     20.781
REMARK  Name = 5288588
REMARK  2 active torsions:
REMARK  status: ('A' for Active; 'I' for Inactive)
REMARK    1  A    between atoms: C_9  and  C_22
REMARK    2  A    between atoms: C_12  and  N_19
REMARK                            x       y       z     vdW  Elec       q    Type
REMARK                         _______ _______ _______ _____ _____    ______ ____
ROOT
ATOM      1 CL   UNL     1      30.191  -1.786 -26.899  0.00  0.00    -0.082 Cl
ATOM      2  N   UNL     1      31.408  -4.849 -23.042  0.00  0.00    -0.410 NA
ATOM      3  C   UNL     1      33.890  -7.703 -22.575  0.00  0.00    +0.030 C 
ATOM      4  C   UNL     1      32.451  -7.499 -20.566  0.00  0.00    +0.029 C 
ATOM      5  C   UNL     1      33.905  -7.565 -21.049  0.00  0.00    +0.010 C 
ATOM      6  C   UNL     1      33.258  -9.063 -22.953  0.00  0.00    +0.026 C 
ATOM      7  C   UNL     1      31.828  -6.178 -21.050  0.00  0.00    +0.063 C 
ATOM      8  C   UNL     1      33.116  -6.556 -23.199  0.00  0.00    +0.013 C 
ATOM      9  C   UNL     1      32.019  -9.404 -22.151  0.00  0.00    -0.048 C 
ATOM     10  C   UNL     1      32.128  -5.863 -22.497  0.00  0.00    +0.106 C 
ATOM     11  C   UNL     1      31.653  -8.678 -21.078  0.00  0.00    -0.034 C 
ATOM     12  C   UNL     1      33.346  -6.180 -24.522  0.00  0.00    +0.027 C 
ATOM     13  C   UNL     1      32.611  -5.141 -25.107  0.00  0.00    +0.109 C 
ATOM     14  C   UNL     1      31.639  -4.495 -24.319  0.00  0.00    +0.118 C 
ATOM     15  C   UNL     1      32.825  -4.747 -26.438  0.00  0.00    -0.013 C 
ATOM     16  C   UNL     1      30.908  -3.462 -24.899  0.00  0.00    +0.040 C 
ATOM     17  C   UNL     1      32.079  -3.711 -26.994  0.00  0.00    +0.008 C 
ATOM     18  C   UNL     1      31.119  -3.067 -26.223  0.00  0.00    +0.060 C 
ENDROOT
BRANCH  12  19
ATOM     19  N   UNL     1      34.335  -6.863 -25.279  0.00  0.00    -0.360 N 
ATOM     20  H   UNL     1      35.272  -6.563 -25.249  0.00  0.00    +0.142 HD
ATOM     21  H   UNL     1      34.084  -7.636 -25.835  0.00  0.00    +0.142 HD
ENDBRANCH  12  19
BRANCH   9  22
ATOM     22  C   UNL     1      31.227 -10.586 -22.622  0.00  0.00    +0.022 C 
ATOM     23  C   UNL     1      30.893 -11.528 -21.481  0.00  0.00    +0.005 C 
ENDBRANCH   9  22
TORSDOF 2
ENDMDL
MODEL 9
REMARK VINA RESULT:      -6.6      2.528      4.161
REMARK  Name = 5288588
REMARK  2 active torsions:
REMARK  status: ('A' for Active; 'I' for Inactive)
REMARK    1  A    between atoms: C_9  and  C_22
REMARK    2  A    between atoms: C_12  and  N_19
REMARK                            x       y       z     vdW  Elec       q    Type
REMARK                         _______ _______ _______ _____ _____    ______ ____
ROOT
ATOM      1 CL   UNL     1      33.867 -20.784 -19.804  0.00  0.00    -0.082 Cl
ATOM      2  N   UNL     1      36.879 -23.133 -16.466  0.00  0.00    -0.410 NA
ATOM      3  C   UNL     1      36.315 -25.674 -13.683  0.00  0.00    +0.030 C 
ATOM      4  C   UNL     1      38.670 -24.899 -13.652  0.00  0.00    +0.029 C 
ATOM      5  C   UNL     1      37.774 -26.144 -13.687  0.00  0.00    +0.010 C 
ATOM      6  C   UNL     1      36.014 -24.975 -12.336  0.00  0.00    +0.026 C 
ATOM      7  C   UNL     1      38.521 -24.145 -14.985  0.00  0.00    +0.063 C 
ATOM      8  C   UNL     1      36.061 -24.737 -14.848  0.00  0.00    +0.013 C 
ATOM      9  C   UNL     1      37.111 -24.036 -11.878  0.00  0.00    -0.048 C 
ATOM     10  C   UNL     1      37.087 -23.995 -15.438  0.00  0.00    +0.106 C 
ATOM     11  C   UNL     1      38.308 -23.998 -12.492  0.00  0.00    -0.034 C 
ATOM     12  C   UNL     1      34.771 -24.556 -15.347  0.00  0.00    +0.027 C 
ATOM     13  C   UNL     1      34.533 -23.668 -16.403  0.00  0.00    +0.109 C 
ATOM     14  C   UNL     1      35.631 -22.968 -16.939  0.00  0.00    +0.118 C 
ATOM     15  C   UNL     1      33.242 -23.470 -16.921  0.00  0.00    -0.013 C 
ATOM     16  C   UNL     1      35.395 -22.085 -17.989  0.00  0.00    +0.040 C 
ATOM     17  C   UNL     1      33.033 -22.580 -17.971  0.00  0.00    +0.008 C 
ATOM     18  C   UNL     1      34.112 -21.886 -18.506  0.00  0.00    +0.060 C 
ENDROOT
BRANCH  12  19
ATOM     19  N   UNL     1      33.694 -25.282 -14.773  0.00  0.00    -0.360 N 
ATOM     20  H   UNL     1      33.636 -26.257 -14.897  0.00  0.00    +0.142 HD
ATOM     21  H   UNL     1      33.004 -24.810 -14.252  0.00  0.00    +0.142 HD
ENDBRANCH  12  19
BRANCH   9  22
ATOM     22  C   UNL     1      36.785 -23.153 -10.712  0.00  0.00    +0.022 C 
ATOM     23  C   UNL     1      35.666 -23.731  -9.867  0.00  0.00    +0.005 C 
ENDBRANCH   9  22
TORSDOF 2
ENDMDL
