MODEL 1
REMARK VINA RESULT:      -9.8      0.000      0.000
REMARK  Name = 3345
REMARK  6 active torsions:
REMARK  status: ('A' for Active; 'I' for Inactive)
REMARK    1  A    between atoms: N_1  and  C_19
REMARK    2  A    between atoms: C_2  and  N_9
REMARK    3  A    between atoms: N_9  and  C_11
REMARK    4  A    between atoms: C_10  and  C_17
REMARK    5  A    between atoms: C_19  and  C_20
REMARK    6  A    between atoms: C_20  and  C_21
REMARK                            x       y       z     vdW  Elec       q    Type
REMARK                         _______ _______ _______ _____ _____    ______ ____
ROOT
ATOM      1  N   UNL     1      34.897 -20.852 -19.431  0.00  0.00    +0.387 N 
ATOM      2  C   UNL     1      34.623 -19.232 -21.853  0.00  0.00    +0.076 C 
ATOM      3  C   UNL     1      35.929 -19.302 -21.061  0.00  0.00    -0.003 C 
ATOM      4  C   UNL     1      33.436 -19.547 -20.942  0.00  0.00    -0.003 C 
ATOM      5  C   UNL     1      36.054 -20.629 -20.312  0.00  0.00    -0.076 C 
ATOM      6  C   UNL     1      33.643 -20.867 -20.197  0.00  0.00    -0.076 C 
ATOM      7  H   UNL     1      34.853 -20.078 -18.769  0.00  0.00    -0.080 HD
ENDROOT
BRANCH   2   9
ATOM      8  O   UNL     1      35.152 -18.547 -24.665  0.00  0.00    -0.275 OA
ATOM      9  N   UNL     1      34.469 -17.943 -22.478  0.00  0.00    -0.260 N 
ATOM     10  C   UNL     1      34.753 -17.706 -23.856  0.00  0.00    +0.229 C 
BRANCH   9  11
ATOM     11  C   UNL     1      34.002 -16.823 -21.661  0.00  0.00    +0.054 C 
ATOM     12  C   UNL     1      34.942 -15.963 -21.173  0.00  0.00    +0.015 C 
ATOM     13  C   UNL     1      32.662 -16.715 -21.446  0.00  0.00    +0.015 C 
ATOM     14  C   UNL     1      34.496 -14.895 -20.396  0.00  0.00    +0.001 C 
ATOM     15  C   UNL     1      32.217 -15.646 -20.669  0.00  0.00    +0.001 C 
ATOM     16  C   UNL     1      33.133 -14.736 -20.143  0.00  0.00    +0.000 C 
ENDBRANCH   9  11
BRANCH  10  17
ATOM     17  C   UNL     1      34.572 -16.260 -24.312  0.00  0.00    +0.086 C 
ATOM     18  C   UNL     1      33.768 -16.145 -25.599  0.00  0.00    +0.010 C 
ENDBRANCH  10  17
ENDBRANCH   2   9
BRANCH   1  19
ATOM     19  C   UNL     1      35.056 -22.101 -18.685  0.00  0.00    -0.073 C 
BRANCH  19  20
ATOM     20  C   UNL     1      33.737 -22.872 -18.623  0.00  0.00    +0.004 C 
BRANCH  20  21
ATOM     21  C   UNL     1      33.270 -23.055 -17.201  0.00  0.00    -0.024 C 
ATOM     22  C   UNL     1      34.202 -23.281 -16.201  0.00  0.00    -0.004 C 
ATOM     23  C   UNL     1      31.913 -22.994 -16.918  0.00  0.00    -0.004 C 
ATOM     24  C   UNL     1      33.769 -23.451 -14.885  0.00  0.00    -0.000 C 
ATOM     25  C   UNL     1      31.480 -23.163 -15.603  0.00  0.00    -0.000 C 
ATOM     26  C   UNL     1      32.408 -23.391 -14.587  0.00  0.00    -0.000 C 
ENDBRANCH  20  21
ENDBRANCH  19  20
ENDBRANCH   1  19
TORSDOF 6
ENDMDL
MODEL 2
REMARK VINA RESULT:      -9.8      2.845      5.179
REMARK  Name = 3345
REMARK  6 active torsions:
REMARK  status: ('A' for Active; 'I' for Inactive)
REMARK    1  A    between atoms: N_1  and  C_19
REMARK    2  A    between atoms: C_2  and  N_9
REMARK    3  A    between atoms: N_9  and  C_11
REMARK    4  A    between atoms: C_10  and  C_17
REMARK    5  A    between atoms: C_19  and  C_20
REMARK    6  A    between atoms: C_20  and  C_21
REMARK                            x       y       z     vdW  Elec       q    Type
REMARK                         _______ _______ _______ _____ _____    ______ ____
ROOT
ATOM      1  N   UNL     1      35.560 -17.153 -21.968  0.00  0.00    +0.387 N 
ATOM      2  C   UNL     1      33.437 -15.260 -22.659  0.00  0.00    +0.076 C 
ATOM      3  C   UNL     1      34.459 -15.752 -23.685  0.00  0.00    -0.003 C 
ATOM      4  C   UNL     1      34.019 -15.356 -21.249  0.00  0.00    -0.003 C 
ATOM      5  C   UNL     1      34.987 -17.141 -23.322  0.00  0.00    -0.076 C 
ATOM      6  C   UNL     1      34.560 -16.759 -20.966  0.00  0.00    -0.076 C 
ATOM      7  H   UNL     1      36.318 -16.471 -21.942  0.00  0.00    -0.080 HD
ENDROOT
BRANCH   2   9
ATOM      8  O   UNL     1      32.152 -13.354 -20.823  0.00  0.00    -0.275 OA
ATOM      9  N   UNL     1      33.017 -13.915 -22.957  0.00  0.00    -0.260 N 
ATOM     10  C   UNL     1      32.398 -13.061 -21.995  0.00  0.00    +0.229 C 
BRANCH   9  11
ATOM     11  C   UNL     1      33.234 -13.399 -24.308  0.00  0.00    +0.054 C 
ATOM     12  C   UNL     1      33.926 -12.231 -24.434  0.00  0.00    +0.015 C 
ATOM     13  C   UNL     1      32.732 -14.123 -25.348  0.00  0.00    +0.015 C 
ATOM     14  C   UNL     1      34.133 -11.740 -25.722  0.00  0.00    +0.001 C 
ATOM     15  C   UNL     1      32.942 -13.632 -26.636  0.00  0.00    +0.001 C 
ATOM     16  C   UNL     1      33.641 -12.440 -26.825  0.00  0.00    +0.000 C 
ENDBRANCH   9  11
BRANCH  10  17
ATOM     17  C   UNL     1      31.985 -11.689 -22.523  0.00  0.00    +0.086 C 
ATOM     18  C   UNL     1      30.904 -11.034 -21.676  0.00  0.00    +0.010 C 
ENDBRANCH  10  17
ENDBRANCH   2   9
BRANCH   1  19
ATOM     19  C   UNL     1      36.105 -18.474 -21.656  0.00  0.00    -0.073 C 
BRANCH  19  20
ATOM     20  C   UNL     1      35.048 -19.562 -21.850  0.00  0.00    +0.004 C 
BRANCH  20  21
ATOM     21  C   UNL     1      34.964 -20.472 -20.651  0.00  0.00    -0.024 C 
ATOM     22  C   UNL     1      36.128 -20.848 -19.998  0.00  0.00    -0.004 C 
ATOM     23  C   UNL     1      33.724 -20.919 -20.221  0.00  0.00    -0.004 C 
ATOM     24  C   UNL     1      36.050 -21.691 -18.889  0.00  0.00    -0.000 C 
ATOM     25  C   UNL     1      33.645 -21.760 -19.112  0.00  0.00    -0.000 C 
ATOM     26  C   UNL     1      34.809 -22.146 -18.446  0.00  0.00    -0.000 C 
ENDBRANCH  20  21
ENDBRANCH  19  20
ENDBRANCH   1  19
TORSDOF 6
ENDMDL
MODEL 3
REMARK VINA RESULT:      -9.6      2.475      3.996
REMARK  Name = 3345
REMARK  6 active torsions:
REMARK  status: ('A' for Active; 'I' for Inactive)
REMARK    1  A    between atoms: N_1  and  C_19
REMARK    2  A    between atoms: C_2  and  N_9
REMARK    3  A    between atoms: N_9  and  C_11
REMARK    4  A    between atoms: C_10  and  C_17
REMARK    5  A    between atoms: C_19  and  C_20
REMARK    6  A    between atoms: C_20  and  C_21
REMARK                            x       y       z     vdW  Elec       q    Type
REMARK                         _______ _______ _______ _____ _____    ______ ____
ROOT
ATOM      1  N   UNL     1      34.902 -17.903 -21.699  0.00  0.00    +0.387 N 
ATOM      2  C   UNL     1      34.623 -15.572 -23.445  0.00  0.00    +0.076 C 
ATOM      3  C   UNL     1      34.107 -15.581 -22.006  0.00  0.00    -0.003 C 
ATOM      4  C   UNL     1      34.687 -16.999 -23.991  0.00  0.00    -0.003 C 
ATOM      5  C   UNL     1      34.910 -16.546 -21.133  0.00  0.00    -0.076 C 
ATOM      6  C   UNL     1      35.472 -17.917 -23.053  0.00  0.00    -0.076 C 
ATOM      7  H   UNL     1      33.932 -18.211 -21.762  0.00  0.00    -0.080 HD
ENDROOT
BRANCH   2   9
ATOM      8  O   UNL     1      33.743 -16.126 -26.198  0.00  0.00    -0.275 OA
ATOM      9  N   UNL     1      33.802 -14.733 -24.281  0.00  0.00    -0.260 N 
ATOM     10  C   UNL     1      33.426 -15.088 -25.611  0.00  0.00    +0.229 C 
BRANCH   9  11
ATOM     11  C   UNL     1      33.333 -13.457 -23.742  0.00  0.00    +0.054 C 
ATOM     12  C   UNL     1      33.974 -12.326 -24.152  0.00  0.00    +0.015 C 
ATOM     13  C   UNL     1      32.287 -13.487 -22.870  0.00  0.00    +0.015 C 
ATOM     14  C   UNL     1      33.526 -11.109 -23.639  0.00  0.00    +0.001 C 
ATOM     15  C   UNL     1      31.839 -12.270 -22.358  0.00  0.00    +0.001 C 
ATOM     16  C   UNL     1      32.458 -11.080 -22.741  0.00  0.00    +0.000 C 
ENDBRANCH   9  11
BRANCH  10  17
ATOM     17  C   UNL     1      32.592 -14.042 -26.346  0.00  0.00    +0.086 C 
ATOM     18  C   UNL     1      33.374 -13.328 -27.439  0.00  0.00    +0.010 C 
ENDBRANCH  10  17
ENDBRANCH   2   9
BRANCH   1  19
ATOM     19  C   UNL     1      35.631 -18.824 -20.826  0.00  0.00    -0.073 C 
BRANCH  19  20
ATOM     20  C   UNL     1      35.236 -20.274 -21.109  0.00  0.00    +0.004 C 
BRANCH  20  21
ATOM     21  C   UNL     1      35.176 -21.088 -19.842  0.00  0.00    -0.024 C 
ATOM     22  C   UNL     1      36.305 -21.192 -19.044  0.00  0.00    -0.004 C 
ATOM     23  C   UNL     1      33.992 -21.722 -19.495  0.00  0.00    -0.004 C 
ATOM     24  C   UNL     1      36.250 -21.945 -17.871  0.00  0.00    -0.000 C 
ATOM     25  C   UNL     1      33.936 -22.475 -18.323  0.00  0.00    -0.000 C 
ATOM     26  C   UNL     1      35.065 -22.587 -17.511  0.00  0.00    -0.000 C 
ENDBRANCH  20  21
ENDBRANCH  19  20
ENDBRANCH   1  19
TORSDOF 6
ENDMDL
MODEL 4
REMARK VINA RESULT:      -9.6      0.921      1.454
REMARK  Name = 3345
REMARK  6 active torsions:
REMARK  status: ('A' for Active; 'I' for Inactive)
REMARK    1  A    between atoms: N_1  and  C_19
REMARK    2  A    between atoms: C_2  and  N_9
REMARK    3  A    between atoms: N_9  and  C_11
REMARK    4  A    between atoms: C_10  and  C_17
REMARK    5  A    between atoms: C_19  and  C_20
REMARK    6  A    between atoms: C_20  and  C_21
REMARK                            x       y       z     vdW  Elec       q    Type
REMARK                         _______ _______ _______ _____ _____    ______ ____
ROOT
ATOM      1  N   UNL     1      34.037 -22.101 -19.771  0.00  0.00    +0.387 N 
ATOM      2  C   UNL     1      34.178 -19.285 -20.556  0.00  0.00    +0.076 C 
ATOM      3  C   UNL     1      32.902 -20.113 -20.710  0.00  0.00    -0.003 C 
ATOM      4  C   UNL     1      35.404 -20.198 -20.567  0.00  0.00    -0.003 C 
ATOM      5  C   UNL     1      32.845 -21.245 -19.683  0.00  0.00    -0.076 C 
ATOM      6  C   UNL     1      35.265 -21.326 -19.543  0.00  0.00    -0.076 C 
ATOM      7  H   UNL     1      34.078 -22.485 -20.715  0.00  0.00    -0.080 HD
ENDROOT
BRANCH   2   9
ATOM      8  O   UNL     1      35.027 -19.678 -23.345  0.00  0.00    -0.275 OA
ATOM      9  N   UNL     1      34.268 -18.283 -21.587  0.00  0.00    -0.260 N 
ATOM     10  C   UNL     1      34.693 -18.571 -22.918  0.00  0.00    +0.229 C 
BRANCH   9  11
ATOM     11  C   UNL     1      33.907 -16.905 -21.253  0.00  0.00    +0.054 C 
ATOM     12  C   UNL     1      34.923 -16.033 -20.995  0.00  0.00    +0.015 C 
ATOM     13  C   UNL     1      32.583 -16.588 -21.227  0.00  0.00    +0.015 C 
ATOM     14  C   UNL     1      34.579 -14.719 -20.679  0.00  0.00    +0.001 C 
ATOM     15  C   UNL     1      32.240 -15.273 -20.911  0.00  0.00    +0.001 C 
ATOM     16  C   UNL     1      33.238 -14.339 -20.636  0.00  0.00    +0.000 C 
ENDBRANCH   9  11
BRANCH  10  17
ATOM     17  C   UNL     1      34.766 -17.361 -23.847  0.00  0.00    +0.086 C 
ATOM     18  C   UNL     1      34.275 -17.669 -25.254  0.00  0.00    +0.010 C 
ENDBRANCH  10  17
ENDBRANCH   2   9
BRANCH   1  19
ATOM     19  C   UNL     1      33.944 -23.206 -18.817  0.00  0.00    -0.073 C 
BRANCH  19  20
ATOM     20  C   UNL     1      34.449 -22.782 -17.438  0.00  0.00    +0.004 C 
BRANCH  20  21
ATOM     21  C   UNL     1      33.487 -23.183 -16.349  0.00  0.00    -0.024 C 
ATOM     22  C   UNL     1      33.974 -23.498 -15.090  0.00  0.00    -0.004 C 
ATOM     23  C   UNL     1      32.128 -23.230 -16.624  0.00  0.00    -0.004 C 
ATOM     24  C   UNL     1      33.083 -23.869 -14.082  0.00  0.00    -0.000 C 
ATOM     25  C   UNL     1      31.237 -23.600 -15.618  0.00  0.00    -0.000 C 
ATOM     26  C   UNL     1      31.715 -23.920 -14.347  0.00  0.00    -0.000 C 
ENDBRANCH  20  21
ENDBRANCH  19  20
ENDBRANCH   1  19
TORSDOF 6
ENDMDL
MODEL 5
REMARK VINA RESULT:      -9.5      3.858      6.447
REMARK  Name = 3345
REMARK  6 active torsions:
REMARK  status: ('A' for Active; 'I' for Inactive)
REMARK    1  A    between atoms: N_1  and  C_19
REMARK    2  A    between atoms: C_2  and  N_9
REMARK    3  A    between atoms: N_9  and  C_11
REMARK    4  A    between atoms: C_10  and  C_17
REMARK    5  A    between atoms: C_19  and  C_20
REMARK    6  A    between atoms: C_20  and  C_21
REMARK                            x       y       z     vdW  Elec       q    Type
REMARK                         _______ _______ _______ _____ _____    ______ ____
ROOT
ATOM      1  N   UNL     1      34.885 -16.224 -23.343  0.00  0.00    +0.387 N 
ATOM      2  C   UNL     1      33.202 -13.835 -23.177  0.00  0.00    +0.076 C 
ATOM      3  C   UNL     1      33.540 -14.505 -24.509  0.00  0.00    -0.003 C 
ATOM      4  C   UNL     1      34.283 -14.147 -22.141  0.00  0.00    -0.003 C 
ATOM      5  C   UNL     1      33.815 -15.999 -24.326  0.00  0.00    -0.076 C 
ATOM      6  C   UNL     1      34.532 -15.652 -22.035  0.00  0.00    -0.076 C 
ATOM      7  H   UNL     1      35.724 -15.750 -23.677  0.00  0.00    -0.080 HD
ENDROOT
BRANCH   2   9
ATOM      8  O   UNL     1      31.386 -12.069 -21.680  0.00  0.00    -0.275 OA
ATOM      9  N   UNL     1      33.038 -12.413 -23.343  0.00  0.00    -0.260 N 
ATOM     10  C   UNL     1      32.126 -11.638 -22.566  0.00  0.00    +0.229 C 
BRANCH   9  11
ATOM     11  C   UNL     1      33.843 -11.733 -24.357  0.00  0.00    +0.054 C 
ATOM     12  C   UNL     1      33.759 -12.190 -25.639  0.00  0.00    +0.015 C 
ATOM     13  C   UNL     1      34.618 -10.689 -23.952  0.00  0.00    +0.015 C 
ATOM     14  C   UNL     1      34.525 -11.540 -26.606  0.00  0.00    +0.001 C 
ATOM     15  C   UNL     1      35.383 -10.039 -24.920  0.00  0.00    +0.001 C 
ATOM     16  C   UNL     1      35.338 -10.464 -26.247  0.00  0.00    +0.000 C 
ENDBRANCH   9  11
BRANCH  10  17
ATOM     17  C   UNL     1      32.068 -10.156 -22.931  0.00  0.00    +0.086 C 
ATOM     18  C   UNL     1      32.027  -9.251 -21.709  0.00  0.00    +0.010 C 
ENDBRANCH  10  17
ENDBRANCH   2   9
BRANCH   1  19
ATOM     19  C   UNL     1      35.170 -17.653 -23.217  0.00  0.00    -0.073 C 
BRANCH  19  20
ATOM     20  C   UNL     1      35.801 -17.967 -21.859  0.00  0.00    +0.004 C 
BRANCH  20  21
ATOM     21  C   UNL     1      35.067 -19.078 -21.152  0.00  0.00    -0.024 C 
ATOM     22  C   UNL     1      35.789 -20.077 -20.517  0.00  0.00    -0.004 C 
ATOM     23  C   UNL     1      33.680 -19.084 -21.149  0.00  0.00    -0.004 C 
ATOM     24  C   UNL     1      35.110 -21.105 -19.863  0.00  0.00    -0.000 C 
ATOM     25  C   UNL     1      33.000 -20.111 -20.495  0.00  0.00    -0.000 C 
ATOM     26  C   UNL     1      33.716 -21.122 -19.852  0.00  0.00    -0.000 C 
ENDBRANCH  20  21
ENDBRANCH  19  20
ENDBRANCH   1  19
TORSDOF 6
ENDMDL
MODEL 6
REMARK VINA RESULT:      -9.5      6.087      9.077
REMARK  Name = 3345
REMARK  6 active torsions:
REMARK  status: ('A' for Active; 'I' for Inactive)
REMARK    1  A    between atoms: N_1  and  C_19
REMARK    2  A    between atoms: C_2  and  N_9
REMARK    3  A    between atoms: N_9  and  C_11
REMARK    4  A    between atoms: C_10  and  C_17
REMARK    5  A    between atoms: C_19  and  C_20
REMARK    6  A    between atoms: C_20  and  C_21
REMARK                            x       y       z     vdW  Elec       q    Type
REMARK                         _______ _______ _______ _____ _____    ______ ____
ROOT
ATOM      1  N   UNL     1      32.882 -13.143 -22.227  0.00  0.00    +0.387 N 
ATOM      2  C   UNL     1      32.688 -10.418 -23.277  0.00  0.00    +0.076 C 
ATOM      3  C   UNL     1      33.726 -11.418 -23.787  0.00  0.00    -0.003 C 
ATOM      4  C   UNL     1      32.267 -10.776 -21.852  0.00  0.00    -0.003 C 
ATOM      5  C   UNL     1      33.238 -12.858 -23.625  0.00  0.00    -0.076 C 
ATOM      6  C   UNL     1      31.825 -12.238 -21.754  0.00  0.00    -0.076 C 
ATOM      7  H   UNL     1      33.710 -12.987 -21.654  0.00  0.00    -0.080 HD
ENDROOT
BRANCH   2   9
ATOM      8  O   UNL     1      35.320  -9.559 -24.274  0.00  0.00    -0.275 OA
ATOM      9  N   UNL     1      33.195  -9.071 -23.345  0.00  0.00    -0.260 N 
ATOM     10  C   UNL     1      34.492  -8.751 -23.847  0.00  0.00    +0.229 C 
BRANCH   9  11
ATOM     11  C   UNL     1      32.341  -7.980 -22.877  0.00  0.00    +0.054 C 
ATOM     12  C   UNL     1      32.612  -7.449 -21.650  0.00  0.00    +0.015 C 
ATOM     13  C   UNL     1      31.336  -7.568 -23.699  0.00  0.00    +0.015 C 
ATOM     14  C   UNL     1      31.798  -6.408 -21.205  0.00  0.00    +0.001 C 
ATOM     15  C   UNL     1      30.524  -6.526 -23.253  0.00  0.00    +0.001 C 
ATOM     16  C   UNL     1      30.754  -5.946 -22.006  0.00  0.00    +0.000 C 
ENDBRANCH   9  11
BRANCH  10  17
ATOM     17  C   UNL     1      34.858  -7.270 -23.790  0.00  0.00    +0.086 C 
ATOM     18  C   UNL     1      34.585  -6.545 -25.100  0.00  0.00    +0.010 C 
ENDBRANCH  10  17
ENDBRANCH   2   9
BRANCH   1  19
ATOM     19  C   UNL     1      32.464 -14.538 -22.081  0.00  0.00    -0.073 C 
BRANCH  19  20
ATOM     20  C   UNL     1      33.353 -15.272 -21.076  0.00  0.00    +0.004 C 
BRANCH  20  21
ATOM     21  C   UNL     1      34.200 -16.322 -21.750  0.00  0.00    -0.024 C 
ATOM     22  C   UNL     1      34.243 -16.377 -23.135  0.00  0.00    -0.004 C 
ATOM     23  C   UNL     1      34.921 -17.216 -20.973  0.00  0.00    -0.004 C 
ATOM     24  C   UNL     1      35.026 -17.349 -23.758  0.00  0.00    -0.000 C 
ATOM     25  C   UNL     1      35.705 -18.187 -21.596  0.00  0.00    -0.000 C 
ATOM     26  C   UNL     1      35.757 -18.254 -22.989  0.00  0.00    -0.000 C 
ENDBRANCH  20  21
ENDBRANCH  19  20
ENDBRANCH   1  19
TORSDOF 6
ENDMDL
MODEL 7
REMARK VINA RESULT:      -9.5      3.380      8.985
REMARK  Name = 3345
REMARK  6 active torsions:
REMARK  status: ('A' for Active; 'I' for Inactive)
REMARK    1  A    between atoms: N_1  and  C_19
REMARK    2  A    between atoms: C_2  and  N_9
REMARK    3  A    between atoms: N_9  and  C_11
REMARK    4  A    between atoms: C_10  and  C_17
REMARK    5  A    between atoms: C_19  and  C_20
REMARK    6  A    between atoms: C_20  and  C_21
REMARK                            x       y       z     vdW  Elec       q    Type
REMARK                         _______ _______ _______ _____ _____    ______ ____
ROOT
ATOM      1  N   UNL     1      32.595 -13.865 -21.176  0.00  0.00    +0.387 N 
ATOM      2  C   UNL     1      34.282 -16.247 -21.383  0.00  0.00    +0.076 C 
ATOM      3  C   UNL     1      34.529 -14.996 -22.226  0.00  0.00    -0.003 C 
ATOM      4  C   UNL     1      32.814 -16.320 -20.965  0.00  0.00    -0.003 C 
ATOM      5  C   UNL     1      34.019 -13.739 -21.519  0.00  0.00    -0.076 C 
ATOM      6  C   UNL     1      32.361 -15.020 -20.298  0.00  0.00    -0.076 C 
ATOM      7  H   UNL     1      32.076 -14.016 -22.041  0.00  0.00    -0.080 HD
ENDROOT
BRANCH   2   9
ATOM      8  O   UNL     1      34.563 -16.557 -24.295  0.00  0.00    -0.275 OA
ATOM      9  N   UNL     1      34.679 -17.434 -22.097  0.00  0.00    -0.260 N 
ATOM     10  C   UNL     1      34.786 -17.489 -23.519  0.00  0.00    +0.229 C 
BRANCH   9  11
ATOM     11  C   UNL     1      34.983 -18.641 -21.329  0.00  0.00    +0.054 C 
ATOM     12  C   UNL     1      33.942 -19.453 -20.991  0.00  0.00    +0.015 C 
ATOM     13  C   UNL     1      36.287 -18.871 -21.008  0.00  0.00    +0.015 C 
ATOM     14  C   UNL     1      34.233 -20.604 -20.260  0.00  0.00    +0.001 C 
ATOM     15  C   UNL     1      36.577 -20.024 -20.277  0.00  0.00    +0.001 C 
ATOM     16  C   UNL     1      35.551 -20.890 -19.902  0.00  0.00    +0.000 C 
ENDBRANCH   9  11
BRANCH  10  17
ATOM     17  C   UNL     1      35.174 -18.852 -24.084  0.00  0.00    +0.086 C 
ATOM     18  C   UNL     1      34.177 -19.371 -25.110  0.00  0.00    +0.010 C 
ENDBRANCH  10  17
ENDBRANCH   2   9
BRANCH   1  19
ATOM     19  C   UNL     1      32.111 -12.637 -20.546  0.00  0.00    -0.073 C 
BRANCH  19  20
ATOM     20  C   UNL     1      31.395 -11.746 -21.562  0.00  0.00    +0.004 C 
BRANCH  20  21
ATOM     21  C   UNL     1      31.815 -10.305 -21.428  0.00  0.00    -0.024 C 
ATOM     22  C   UNL     1      31.820  -9.709 -20.176  0.00  0.00    -0.004 C 
ATOM     23  C   UNL     1      32.191  -9.597 -22.560  0.00  0.00    -0.004 C 
ATOM     24  C   UNL     1      32.209  -8.375 -20.052  0.00  0.00    -0.000 C 
ATOM     25  C   UNL     1      32.580  -8.264 -22.437  0.00  0.00    -0.000 C 
ATOM     26  C   UNL     1      32.589  -7.653 -21.183  0.00  0.00    -0.000 C 
ENDBRANCH  20  21
ENDBRANCH  19  20
ENDBRANCH   1  19
TORSDOF 6
ENDMDL
MODEL 8
REMARK VINA RESULT:      -9.4      1.389      2.137
REMARK  Name = 3345
REMARK  6 active torsions:
REMARK  status: ('A' for Active; 'I' for Inactive)
REMARK    1  A    between atoms: N_1  and  C_19
REMARK    2  A    between atoms: C_2  and  N_9
REMARK    3  A    between atoms: N_9  and  C_11
REMARK    4  A    between atoms: C_10  and  C_17
REMARK    5  A    between atoms: C_19  and  C_20
REMARK    6  A    between atoms: C_20  and  C_21
REMARK                            x       y       z     vdW  Elec       q    Type
REMARK                         _______ _______ _______ _____ _____    ______ ____
ROOT
ATOM      1  N   UNL     1      35.423 -20.594 -19.558  0.00  0.00    +0.387 N 
ATOM      2  C   UNL     1      34.844 -19.001 -21.943  0.00  0.00    +0.076 C 
ATOM      3  C   UNL     1      36.187 -18.925 -21.216  0.00  0.00    -0.003 C 
ATOM      4  C   UNL     1      33.748 -19.456 -20.979  0.00  0.00    -0.003 C 
ATOM      5  C   UNL     1      36.501 -20.234 -20.490  0.00  0.00    -0.076 C 
ATOM      6  C   UNL     1      34.142 -20.749 -20.262  0.00  0.00    -0.076 C 
ATOM      7  H   UNL     1      35.323 -19.835 -18.885  0.00  0.00    -0.080 HD
ENDROOT
BRANCH   2   9
ATOM      8  O   UNL     1      35.096 -18.260 -24.780  0.00  0.00    -0.275 OA
ATOM      9  N   UNL     1      34.512 -17.734 -22.544  0.00  0.00    -0.260 N 
ATOM     10  C   UNL     1      34.670 -17.466 -23.937  0.00  0.00    +0.229 C 
BRANCH   9  11
ATOM     11  C   UNL     1      33.991 -16.670 -21.686  0.00  0.00    +0.054 C 
ATOM     12  C   UNL     1      32.660 -16.695 -21.390  0.00  0.00    +0.015 C 
ATOM     13  C   UNL     1      34.871 -15.730 -21.241  0.00  0.00    +0.015 C 
ATOM     14  C   UNL     1      32.163 -15.682 -20.571  0.00  0.00    +0.001 C 
ATOM     15  C   UNL     1      34.373 -14.718 -20.420  0.00  0.00    +0.001 C 
ATOM     16  C   UNL     1      33.020 -14.692 -20.086  0.00  0.00    +0.000 C 
ENDBRANCH   9  11
BRANCH  10  17
ATOM     17  C   UNL     1      34.307 -16.047 -24.366  0.00  0.00    +0.086 C 
ATOM     18  C   UNL     1      33.667 -15.994 -25.745  0.00  0.00    +0.010 C 
ENDBRANCH  10  17
ENDBRANCH   2   9
BRANCH   1  19
ATOM     19  C   UNL     1      35.761 -21.821 -18.835  0.00  0.00    -0.073 C 
BRANCH  19  20
ATOM     20  C   UNL     1      36.751 -21.535 -17.706  0.00  0.00    +0.004 C 
BRANCH  20  21
ATOM     21  C   UNL     1      36.538 -22.460 -16.535  0.00  0.00    -0.024 C 
ATOM     22  C   UNL     1      37.629 -22.883 -15.792  0.00  0.00    -0.004 C 
ATOM     23  C   UNL     1      35.251 -22.873 -16.220  0.00  0.00    -0.004 C 
ATOM     24  C   UNL     1      37.431 -23.739 -14.708  0.00  0.00    -0.000 C 
ATOM     25  C   UNL     1      35.052 -23.728 -15.137  0.00  0.00    -0.000 C 
ATOM     26  C   UNL     1      36.142 -24.162 -14.381  0.00  0.00    -0.000 C 
ENDBRANCH  20  21
ENDBRANCH  19  20
ENDBRANCH   1  19
TORSDOF 6
ENDMDL
MODEL 9
REMARK VINA RESULT:      -9.3      6.328      9.677
REMARK  Name = 3345
REMARK  6 active torsions:
REMARK  status: ('A' for Active; 'I' for Inactive)
REMARK    1  A    between atoms: N_1  and  C_19
REMARK    2  A    between atoms: C_2  and  N_9
REMARK    3  A    between atoms: N_9  and  C_11
REMARK    4  A    between atoms: C_10  and  C_17
REMARK    5  A    between atoms: C_19  and  C_20
REMARK    6  A    between atoms: C_20  and  C_21
REMARK                            x       y       z     vdW  Elec       q    Type
REMARK                         _______ _______ _______ _____ _____    ______ ____
ROOT
ATOM      1  N   UNL     1      33.621 -12.932 -23.378  0.00  0.00    +0.387 N 
ATOM      2  C   UNL     1      32.309 -10.319 -23.249  0.00  0.00    +0.076 C 
ATOM      3  C   UNL     1      33.693 -10.509 -23.871  0.00  0.00    -0.003 C 
ATOM      4  C   UNL     1      32.036 -11.423 -22.226  0.00  0.00    -0.003 C 
ATOM      5  C   UNL     1      33.867 -11.925 -24.421  0.00  0.00    -0.076 C 
ATOM      6  C   UNL     1      32.263 -12.809 -22.831  0.00  0.00    -0.076 C 
ATOM      7  H   UNL     1      34.282 -12.767 -22.620  0.00  0.00    -0.080 HD
ENDROOT
BRANCH   2   9
ATOM      8  O   UNL     1      31.889  -9.705 -20.402  0.00  0.00    -0.275 OA
ATOM      9  N   UNL     1      32.189  -9.015 -22.649  0.00  0.00    -0.260 N 
ATOM     10  C   UNL     1      31.985  -8.816 -21.250  0.00  0.00    +0.229 C 
BRANCH   9  11
ATOM     11  C   UNL     1      32.279  -7.839 -23.514  0.00  0.00    +0.054 C 
ATOM     12  C   UNL     1      33.525  -7.378 -23.824  0.00  0.00    +0.015 C 
ATOM     13  C   UNL     1      31.114  -7.286 -23.951  0.00  0.00    +0.015 C 
ATOM     14  C   UNL     1      33.610  -6.258 -24.649  0.00  0.00    +0.001 C 
ATOM     15  C   UNL     1      31.200  -6.166 -24.777  0.00  0.00    +0.001 C 
ATOM     16  C   UNL     1      32.448  -5.651 -25.127  0.00  0.00    +0.000 C 
ENDBRANCH   9  11
BRANCH  10  17
ATOM     17  C   UNL     1      31.836  -7.358 -20.822  0.00  0.00    +0.086 C 
ATOM     18  C   UNL     1      32.954  -6.899 -19.898  0.00  0.00    +0.010 C 
ENDBRANCH  10  17
ENDBRANCH   2   9
BRANCH   1  19
ATOM     19  C   UNL     1      33.840 -14.279 -23.907  0.00  0.00    -0.073 C 
BRANCH  19  20
ATOM     20  C   UNL     1      34.620 -15.138 -22.911  0.00  0.00    +0.004 C 
BRANCH  20  21
ATOM     21  C   UNL     1      34.689 -16.576 -23.356  0.00  0.00    -0.024 C 
ATOM     22  C   UNL     1      34.421 -16.895 -24.679  0.00  0.00    -0.004 C 
ATOM     23  C   UNL     1      35.019 -17.559 -22.435  0.00  0.00    -0.004 C 
ATOM     24  C   UNL     1      34.485 -18.226 -25.091  0.00  0.00    -0.000 C 
ATOM     25  C   UNL     1      35.084 -18.890 -22.845  0.00  0.00    -0.000 C 
ATOM     26  C   UNL     1      34.817 -19.223 -24.174  0.00  0.00    -0.000 C 
ENDBRANCH  20  21
ENDBRANCH  19  20
ENDBRANCH   1  19
TORSDOF 6
ENDMDL
