MODEL 1
REMARK VINA RESULT:     -10.4      0.000      0.000
REMARK  Name = 46937053
REMARK  3 active torsions:
REMARK  status: ('A' for Active; 'I' for Inactive)
REMARK    1  A    between atoms: C_3  and  C_18
REMARK    2  A    between atoms: C_8  and  N_12
REMARK    3  A    between atoms: C_18  and  C_21
REMARK                            x       y       z     vdW  Elec       q    Type
REMARK                         _______ _______ _______ _____ _____    ______ ____
ROOT
ATOM      1  O   UNL     1      35.319 -19.176 -23.999  0.00  0.00    -0.210 OA
ATOM      2  N   UNL     1      34.376 -17.533 -25.356  0.00  0.00    -0.333 NA
ATOM      3  C   UNL     1      34.806 -17.003 -23.127  0.00  0.00    +0.080 C 
ATOM      4  C   UNL     1      34.273 -15.919 -23.693  0.00  0.00    +0.040 C 
ATOM      5  C   UNL     1      34.029 -16.318 -25.082  0.00  0.00    +0.145 C 
ATOM      6  C   UNL     1      34.879 -18.051 -24.181  0.00  0.00    +0.201 C 
ATOM      7  C   UNL     1      33.944 -14.607 -23.229  0.00  0.00    +0.018 C 
ATOM      8  C   UNL     1      33.401 -13.728 -24.093  0.00  0.00    +0.052 C 
ATOM      9  C   UNL     1      33.431 -15.312 -25.982  0.00  0.00    +0.034 C 
ATOM     10  C   UNL     1      33.147 -14.098 -25.481  0.00  0.00    +0.017 C 
ENDROOT
BRANCH   8  12
ATOM     11  O   UNL     1      34.569 -11.283 -25.037  0.00  0.00    -0.253 OA
ATOM     12  N   UNL     1      33.068 -12.463 -23.699  0.00  0.00    -0.268 N 
ATOM     13  N   UNL     1      33.143 -10.170 -23.625  0.00  0.00    -0.313 N 
ATOM     14  C   UNL     1      33.673 -11.315 -24.196  0.00  0.00    +0.301 C 
ATOM     15  H   UNL     1      32.359 -12.359 -23.026  0.00  0.00    +0.156 HD
ATOM     16  H   UNL     1      33.484  -9.285 -23.890  0.00  0.00    +0.146 HD
ATOM     17  H   UNL     1      32.425 -10.241 -22.956  0.00  0.00    +0.146 HD
ENDBRANCH   8  12
BRANCH   3  18
ATOM     18  C   UNL     1      35.270 -17.240 -21.740  0.00  0.00    +0.070 C 
ATOM     19  C   UNL     1      34.937 -16.056 -20.815  0.00  0.00    +0.012 C 
BRANCH  18  21
ATOM     20  N   UNL     1      35.596 -19.521 -20.710  0.00  0.00    -0.315 N 
ATOM     21  C   UNL     1      34.744 -18.551 -21.169  0.00  0.00    +0.030 C 
ATOM     22  C   UNL     1      33.455 -19.006 -21.001  0.00  0.00    +0.012 C 
ATOM     23  C   UNL     1      34.871 -20.590 -20.251  0.00  0.00    +0.062 C 
ATOM     24  C   UNL     1      33.536 -20.296 -20.420  0.00  0.00    +0.017 C 
ATOM     25  H   UNL     1      36.578 -19.460 -20.709  0.00  0.00    +0.152 HD
ENDBRANCH  18  21
ENDBRANCH   3  18
TORSDOF 3
ENDMDL
MODEL 2
REMARK VINA RESULT:      -9.7      1.872      5.961
REMARK  Name = 46937053
REMARK  3 active torsions:
REMARK  status: ('A' for Active; 'I' for Inactive)
REMARK    1  A    between atoms: C_3  and  C_18
REMARK    2  A    between atoms: C_8  and  N_12
REMARK    3  A    between atoms: C_18  and  C_21
REMARK                            x       y       z     vdW  Elec       q    Type
REMARK                         _______ _______ _______ _____ _____    ______ ____
ROOT
ATOM      1  O   UNL     1      32.614 -13.973 -26.330  0.00  0.00    -0.210 OA
ATOM      2  N   UNL     1      33.197 -16.222 -26.145  0.00  0.00    -0.333 NA
ATOM      3  C   UNL     1      33.929 -14.756 -24.486  0.00  0.00    +0.080 C 
ATOM      4  C   UNL     1      34.383 -15.970 -24.168  0.00  0.00    +0.040 C 
ATOM      5  C   UNL     1      33.890 -16.835 -25.243  0.00  0.00    +0.145 C 
ATOM      6  C   UNL     1      33.165 -14.899 -25.756  0.00  0.00    +0.201 C 
ATOM      7  C   UNL     1      35.166 -16.494 -23.092  0.00  0.00    +0.018 C 
ATOM      8  C   UNL     1      35.451 -17.810 -23.076  0.00  0.00    +0.052 C 
ATOM      9  C   UNL     1      34.235 -18.269 -25.171  0.00  0.00    +0.034 C 
ATOM     10  C   UNL     1      34.974 -18.695 -24.133  0.00  0.00    +0.017 C 
ENDROOT
BRANCH   8  12
ATOM     11  O   UNL     1      34.471 -19.401 -20.898  0.00  0.00    -0.253 OA
ATOM     12  N   UNL     1      36.195 -18.361 -22.072  0.00  0.00    -0.268 N 
ATOM     13  N   UNL     1      36.640 -19.557 -20.163  0.00  0.00    -0.313 N 
ATOM     14  C   UNL     1      35.661 -19.125 -21.042  0.00  0.00    +0.301 C 
ATOM     15  H   UNL     1      37.167 -18.209 -22.079  0.00  0.00    +0.156 HD
ATOM     16  H   UNL     1      36.395 -20.109 -19.386  0.00  0.00    +0.146 HD
ATOM     17  H   UNL     1      37.581 -19.313 -20.317  0.00  0.00    +0.146 HD
ENDBRANCH   8  12
BRANCH   3  18
ATOM     18  C   UNL     1      34.088 -13.454 -23.798  0.00  0.00    +0.070 C 
ATOM     19  C   UNL     1      33.875 -12.270 -24.758  0.00  0.00    +0.012 C 
BRANCH  18  21
ATOM     20  N   UNL     1      32.239 -12.357 -22.476  0.00  0.00    -0.315 N 
ATOM     21  C   UNL     1      33.195 -13.334 -22.570  0.00  0.00    +0.030 C 
ATOM     22  C   UNL     1      33.146 -14.085 -21.416  0.00  0.00    +0.012 C 
ATOM     23  C   UNL     1      31.580 -12.473 -21.279  0.00  0.00    +0.062 C 
ATOM     24  C   UNL     1      32.124 -13.540 -20.600  0.00  0.00    +0.017 C 
ATOM     25  H   UNL     1      32.053 -11.677 -23.162  0.00  0.00    +0.152 HD
ENDBRANCH  18  21
ENDBRANCH   3  18
TORSDOF 3
ENDMDL
MODEL 3
REMARK VINA RESULT:      -9.6      4.609      9.883
REMARK  Name = 46937053
REMARK  3 active torsions:
REMARK  status: ('A' for Active; 'I' for Inactive)
REMARK    1  A    between atoms: C_3  and  C_18
REMARK    2  A    between atoms: C_8  and  N_12
REMARK    3  A    between atoms: C_18  and  C_21
REMARK                            x       y       z     vdW  Elec       q    Type
REMARK                         _______ _______ _______ _____ _____    ______ ____
ROOT
ATOM      1  O   UNL     1      32.762  -6.604 -19.521  0.00  0.00    -0.210 OA
ATOM      2  N   UNL     1      31.941  -8.773 -19.290  0.00  0.00    -0.333 NA
ATOM      3  C   UNL     1      32.806  -8.140 -21.361  0.00  0.00    +0.080 C 
ATOM      4  C   UNL     1      32.402  -9.407 -21.473  0.00  0.00    +0.040 C 
ATOM      5  C   UNL     1      31.874  -9.738 -20.146  0.00  0.00    +0.145 C 
ATOM      6  C   UNL     1      32.516  -7.715 -19.964  0.00  0.00    +0.201 C 
ATOM      7  C   UNL     1      32.400 -10.366 -22.534  0.00  0.00    +0.018 C 
ATOM      8  C   UNL     1      31.902 -11.594 -22.299  0.00  0.00    +0.052 C 
ATOM      9  C   UNL     1      31.341 -11.101 -19.950  0.00  0.00    +0.034 C 
ATOM     10  C   UNL     1      31.370 -11.953 -20.989  0.00  0.00    +0.017 C 
ENDROOT
BRANCH   8  12
ATOM     11  O   UNL     1      34.032 -13.387 -22.995  0.00  0.00    -0.253 OA
ATOM     12  N   UNL     1      31.876 -12.546 -23.279  0.00  0.00    -0.268 N 
ATOM     13  N   UNL     1      32.646 -14.254 -24.605  0.00  0.00    -0.313 N 
ATOM     14  C   UNL     1      32.944 -13.387 -23.568  0.00  0.00    +0.301 C 
ATOM     15  H   UNL     1      31.054 -12.643 -23.810  0.00  0.00    +0.156 HD
ATOM     16  H   UNL     1      33.318 -14.905 -24.911  0.00  0.00    +0.146 HD
ATOM     17  H   UNL     1      31.761 -14.221 -25.036  0.00  0.00    +0.146 HD
ENDBRANCH   8  12
BRANCH   3  18
ATOM     18  C   UNL     1      33.428  -7.232 -22.353  0.00  0.00    +0.070 C 
ATOM     19  C   UNL     1      34.244  -8.005 -23.403  0.00  0.00    +0.012 C 
BRANCH  18  21
ATOM     20  N   UNL     1      31.874  -5.243 -22.345  0.00  0.00    -0.315 N 
ATOM     21  C   UNL     1      32.410  -6.312 -23.015  0.00  0.00    +0.030 C 
ATOM     22  C   UNL     1      31.864  -6.335 -24.279  0.00  0.00    +0.012 C 
ATOM     23  C   UNL     1      30.992  -4.584 -23.162  0.00  0.00    +0.062 C 
ATOM     24  C   UNL     1      30.967  -5.242 -24.372  0.00  0.00    +0.017 C 
ATOM     25  H   UNL     1      32.088  -4.988 -21.419  0.00  0.00    +0.152 HD
ENDBRANCH  18  21
ENDBRANCH   3  18
TORSDOF 3
ENDMDL
MODEL 4
REMARK VINA RESULT:      -9.2      2.004      2.774
REMARK  Name = 46937053
REMARK  3 active torsions:
REMARK  status: ('A' for Active; 'I' for Inactive)
REMARK    1  A    between atoms: C_3  and  C_18
REMARK    2  A    between atoms: C_8  and  N_12
REMARK    3  A    between atoms: C_18  and  C_21
REMARK                            x       y       z     vdW  Elec       q    Type
REMARK                         _______ _______ _______ _____ _____    ______ ____
ROOT
ATOM      1  O   UNL     1      35.495 -17.149 -20.163  0.00  0.00    -0.210 OA
ATOM      2  N   UNL     1      34.785 -15.070 -20.941  0.00  0.00    -0.333 NA
ATOM      3  C   UNL     1      34.549 -16.910 -22.353  0.00  0.00    +0.080 C 
ATOM      4  C   UNL     1      34.081 -15.847 -23.010  0.00  0.00    +0.040 C 
ATOM      5  C   UNL     1      34.258 -14.735 -22.072  0.00  0.00    +0.145 C 
ATOM      6  C   UNL     1      35.007 -16.429 -21.020  0.00  0.00    +0.201 C 
ATOM      7  C   UNL     1      33.511 -15.644 -24.305  0.00  0.00    +0.018 C 
ATOM      8  C   UNL     1      33.133 -14.402 -24.661  0.00  0.00    +0.052 C 
ATOM      9  C   UNL     1      33.824 -13.396 -22.519  0.00  0.00    +0.034 C 
ATOM     10  C   UNL     1      33.296 -13.275 -23.749  0.00  0.00    +0.017 C 
ENDROOT
BRANCH   8  12
ATOM     11  O   UNL     1      33.892 -12.318 -26.482  0.00  0.00    -0.253 OA
ATOM     12  N   UNL     1      32.584 -14.154 -25.887  0.00  0.00    -0.268 N 
ATOM     13  N   UNL     1      32.271 -13.104 -27.905  0.00  0.00    -0.313 N 
ATOM     14  C   UNL     1      32.997 -13.126 -26.726  0.00  0.00    +0.301 C 
ATOM     15  H   UNL     1      31.855 -14.738 -26.195  0.00  0.00    +0.156 HD
ATOM     16  H   UNL     1      32.464 -12.423 -28.589  0.00  0.00    +0.146 HD
ATOM     17  H   UNL     1      31.563 -13.771 -28.060  0.00  0.00    +0.146 HD
ENDBRANCH   8  12
BRANCH   3  18
ATOM     18  C   UNL     1      34.649 -18.332 -22.759  0.00  0.00    +0.070 C 
ATOM     19  C   UNL     1      36.046 -18.675 -23.304  0.00  0.00    +0.012 C 
BRANCH  18  21
ATOM     20  N   UNL     1      35.171 -20.054 -20.990  0.00  0.00    -0.315 N 
ATOM     21  C   UNL     1      34.244 -19.284 -21.641  0.00  0.00    +0.030 C 
ATOM     22  C   UNL     1      33.009 -19.557 -21.094  0.00  0.00    +0.012 C 
ATOM     23  C   UNL     1      34.548 -20.815 -20.035  0.00  0.00    +0.062 C 
ATOM     24  C   UNL     1      33.202 -20.525 -20.078  0.00  0.00    +0.017 C 
ATOM     25  H   UNL     1      36.137 -20.060 -21.178  0.00  0.00    +0.152 HD
ENDBRANCH  18  21
ENDBRANCH   3  18
TORSDOF 3
ENDMDL
MODEL 5
REMARK VINA RESULT:      -9.1      9.781     12.168
REMARK  Name = 46937053
REMARK  3 active torsions:
REMARK  status: ('A' for Active; 'I' for Inactive)
REMARK    1  A    between atoms: C_3  and  C_18
REMARK    2  A    between atoms: C_8  and  N_12
REMARK    3  A    between atoms: C_18  and  C_21
REMARK                            x       y       z     vdW  Elec       q    Type
REMARK                         _______ _______ _______ _____ _____    ______ ____
ROOT
ATOM      1  O   UNL     1      37.465 -22.737 -16.113  0.00  0.00    -0.210 OA
ATOM      2  N   UNL     1      35.400 -22.713 -17.195  0.00  0.00    -0.333 NA
ATOM      3  C   UNL     1      35.446 -23.243 -14.925  0.00  0.00    +0.080 C 
ATOM      4  C   UNL     1      34.171 -23.296 -15.316  0.00  0.00    +0.040 C 
ATOM      5  C   UNL     1      34.215 -22.954 -16.741  0.00  0.00    +0.145 C 
ATOM      6  C   UNL     1      36.251 -22.871 -16.121  0.00  0.00    +0.201 C 
ATOM      7  C   UNL     1      32.935 -23.590 -14.661  0.00  0.00    +0.018 C 
ATOM      8  C   UNL     1      31.794 -23.550 -15.375  0.00  0.00    +0.052 C 
ATOM      9  C   UNL     1      32.931 -22.927 -17.471  0.00  0.00    +0.034 C 
ATOM     10  C   UNL     1      31.807 -23.214 -16.794  0.00  0.00    +0.017 C 
ENDROOT
BRANCH   8  12
ATOM     11  O   UNL     1      30.410 -26.063 -15.418  0.00  0.00    -0.253 OA
ATOM     12  N   UNL     1      30.587 -23.824 -14.796  0.00  0.00    -0.268 N 
ATOM     13  N   UNL     1      28.756 -25.064 -14.181  0.00  0.00    -0.313 N 
ATOM     14  C   UNL     1      29.967 -25.066 -14.852  0.00  0.00    +0.301 C 
ATOM     15  H   UNL     1      30.132 -23.100 -14.310  0.00  0.00    +0.156 HD
ATOM     16  H   UNL     1      28.212 -25.884 -14.144  0.00  0.00    +0.146 HD
ATOM     17  H   UNL     1      28.439 -24.242 -13.740  0.00  0.00    +0.146 HD
ENDBRANCH   8  12
BRANCH   3  18
ATOM     18  C   UNL     1      36.061 -23.487 -13.600  0.00  0.00    +0.070 C 
ATOM     19  C   UNL     1      35.020 -23.940 -12.561  0.00  0.00    +0.012 C 
BRANCH  18  21
ATOM     20  N   UNL     1      37.250 -25.480 -14.592  0.00  0.00    -0.315 N 
ATOM     21  C   UNL     1      37.227 -24.465 -13.673  0.00  0.00    +0.030 C 
ATOM     22  C   UNL     1      38.384 -24.543 -12.929  0.00  0.00    +0.012 C 
ATOM     23  C   UNL     1      38.403 -26.207 -14.446  0.00  0.00    +0.062 C 
ATOM     24  C   UNL     1      39.127 -25.645 -13.418  0.00  0.00    +0.017 C 
ATOM     25  H   UNL     1      36.546 -25.661 -15.256  0.00  0.00    +0.152 HD
ENDBRANCH  18  21
ENDBRANCH   3  18
TORSDOF 3
ENDMDL
MODEL 6
REMARK VINA RESULT:      -9.0      3.274      8.016
REMARK  Name = 46937053
REMARK  3 active torsions:
REMARK  status: ('A' for Active; 'I' for Inactive)
REMARK    1  A    between atoms: C_3  and  C_18
REMARK    2  A    between atoms: C_8  and  N_12
REMARK    3  A    between atoms: C_18  and  C_21
REMARK                            x       y       z     vdW  Elec       q    Type
REMARK                         _______ _______ _______ _____ _____    ______ ____
ROOT
ATOM      1  O   UNL     1      37.075 -18.221 -21.980  0.00  0.00    -0.210 OA
ATOM      2  N   UNL     1      37.031 -20.106 -20.609  0.00  0.00    -0.333 NA
ATOM      3  C   UNL     1      35.005 -19.073 -21.123  0.00  0.00    +0.080 C 
ATOM      4  C   UNL     1      34.728 -20.114 -20.335  0.00  0.00    +0.040 C 
ATOM      5  C   UNL     1      36.036 -20.713 -20.053  0.00  0.00    +0.145 C 
ATOM      6  C   UNL     1      36.482 -19.051 -21.309  0.00  0.00    +0.201 C 
ATOM      7  C   UNL     1      33.526 -20.666 -19.794  0.00  0.00    +0.018 C 
ATOM      8  C   UNL     1      33.606 -21.759 -19.011  0.00  0.00    +0.052 C 
ATOM      9  C   UNL     1      36.061 -21.909 -19.187  0.00  0.00    +0.034 C 
ATOM     10  C   UNL     1      34.893 -22.376 -18.712  0.00  0.00    +0.017 C 
ENDROOT
BRANCH   8  12
ATOM     11  O   UNL     1      33.405 -23.022 -16.443  0.00  0.00    -0.253 OA
ATOM     12  N   UNL     1      32.487 -22.324 -18.468  0.00  0.00    -0.268 N 
ATOM     13  N   UNL     1      31.194 -23.413 -16.916  0.00  0.00    -0.313 N 
ATOM     14  C   UNL     1      32.454 -22.923 -17.215  0.00  0.00    +0.301 C 
ATOM     15  H   UNL     1      31.657 -22.306 -18.996  0.00  0.00    +0.156 HD
ATOM     16  H   UNL     1      31.032 -23.862 -16.055  0.00  0.00    +0.146 HD
ATOM     17  H   UNL     1      30.459 -23.311 -17.564  0.00  0.00    +0.146 HD
ENDBRANCH   8  12
BRANCH   3  18
ATOM     18  C   UNL     1      34.113 -18.069 -21.747  0.00  0.00    +0.070 C 
ATOM     19  C   UNL     1      34.171 -16.717 -21.014  0.00  0.00    +0.012 C 
BRANCH  18  21
ATOM     20  N   UNL     1      34.702 -16.678 -23.770  0.00  0.00    -0.315 N 
ATOM     21  C   UNL     1      34.383 -17.900 -23.237  0.00  0.00    +0.030 C 
ATOM     22  C   UNL     1      34.372 -18.818 -24.264  0.00  0.00    +0.012 C 
ATOM     23  C   UNL     1      34.895 -16.802 -25.121  0.00  0.00    +0.062 C 
ATOM     24  C   UNL     1      34.696 -18.123 -25.455  0.00  0.00    +0.017 C 
ATOM     25  H   UNL     1      34.780 -15.840 -23.260  0.00  0.00    +0.152 HD
ENDBRANCH  18  21
ENDBRANCH   3  18
TORSDOF 3
ENDMDL
MODEL 7
REMARK VINA RESULT:      -8.9      4.280      9.205
REMARK  Name = 46937053
REMARK  3 active torsions:
REMARK  status: ('A' for Active; 'I' for Inactive)
REMARK    1  A    between atoms: C_3  and  C_18
REMARK    2  A    between atoms: C_8  and  N_12
REMARK    3  A    between atoms: C_18  and  C_21
REMARK                            x       y       z     vdW  Elec       q    Type
REMARK                         _______ _______ _______ _____ _____    ______ ____
ROOT
ATOM      1  O   UNL     1      36.943 -19.849 -20.489  0.00  0.00    -0.210 OA
ATOM      2  N   UNL     1      36.797 -21.181 -18.581  0.00  0.00    -0.333 NA
ATOM      3  C   UNL     1      34.882 -20.911 -19.883  0.00  0.00    +0.080 C 
ATOM      4  C   UNL     1      34.555 -21.703 -18.859  0.00  0.00    +0.040 C 
ATOM      5  C   UNL     1      35.795 -21.830 -18.088  0.00  0.00    +0.145 C 
ATOM      6  C   UNL     1      36.321 -20.565 -19.720  0.00  0.00    +0.201 C 
ATOM      7  C   UNL     1      33.353 -22.359 -18.447  0.00  0.00    +0.018 C 
ATOM      8  C   UNL     1      33.371 -23.107 -17.328  0.00  0.00    +0.052 C 
ATOM      9  C   UNL     1      35.752 -22.662 -16.870  0.00  0.00    +0.034 C 
ATOM     10  C   UNL     1      34.590 -23.251 -16.540  0.00  0.00    +0.017 C 
ENDROOT
BRANCH   8  12
ATOM     11  O   UNL     1      31.860 -22.500 -14.965  0.00  0.00    -0.253 OA
ATOM     12  N   UNL     1      32.250 -23.754 -16.891  0.00  0.00    -0.268 N 
ATOM     13  N   UNL     1      30.463 -24.230 -15.531  0.00  0.00    -0.313 N 
ATOM     14  C   UNL     1      31.561 -23.411 -15.735  0.00  0.00    +0.301 C 
ATOM     15  H   UNL     1      31.911 -24.506 -17.427  0.00  0.00    +0.156 HD
ATOM     16  H   UNL     1      29.887 -24.094 -14.745  0.00  0.00    +0.146 HD
ATOM     17  H   UNL     1      30.259 -24.948 -16.173  0.00  0.00    +0.146 HD
ENDBRANCH   8  12
BRANCH   3  18
ATOM     18  C   UNL     1      34.068 -20.407 -21.014  0.00  0.00    +0.070 C 
ATOM     19  C   UNL     1      32.587 -20.254 -20.629  0.00  0.00    +0.012 C 
BRANCH  18  21
ATOM     20  N   UNL     1      34.660 -17.958 -20.859  0.00  0.00    -0.315 N 
ATOM     21  C   UNL     1      34.623 -19.113 -21.596  0.00  0.00    +0.030 C 
ATOM     22  C   UNL     1      35.151 -18.839 -22.838  0.00  0.00    +0.012 C 
ATOM     23  C   UNL     1      35.203 -16.950 -21.612  0.00  0.00    +0.062 C 
ATOM     24  C   UNL     1      35.518 -17.470 -22.848  0.00  0.00    +0.017 C 
ATOM     25  H   UNL     1      34.344 -17.867 -19.931  0.00  0.00    +0.152 HD
ENDBRANCH  18  21
ENDBRANCH   3  18
TORSDOF 3
ENDMDL
MODEL 8
REMARK VINA RESULT:      -8.9      8.757     13.181
REMARK  Name = 46937053
REMARK  3 active torsions:
REMARK  status: ('A' for Active; 'I' for Inactive)
REMARK    1  A    between atoms: C_3  and  C_18
REMARK    2  A    between atoms: C_8  and  N_12
REMARK    3  A    between atoms: C_18  and  C_21
REMARK                            x       y       z     vdW  Elec       q    Type
REMARK                         _______ _______ _______ _____ _____    ______ ____
ROOT
ATOM      1  O   UNL     1      32.152 -22.807 -14.373  0.00  0.00    -0.210 OA
ATOM      2  N   UNL     1      33.637 -23.696 -12.812  0.00  0.00    -0.333 NA
ATOM      3  C   UNL     1      34.165 -23.903 -15.074  0.00  0.00    +0.080 C 
ATOM      4  C   UNL     1      35.151 -24.481 -14.384  0.00  0.00    +0.040 C 
ATOM      5  C   UNL     1      34.759 -24.315 -12.982  0.00  0.00    +0.145 C 
ATOM      6  C   UNL     1      33.182 -23.393 -14.079  0.00  0.00    +0.201 C 
ATOM      7  C   UNL     1      36.366 -25.146 -14.743  0.00  0.00    +0.018 C 
ATOM      8  C   UNL     1      37.157 -25.625 -13.765  0.00  0.00    +0.052 C 
ATOM      9  C   UNL     1      35.667 -24.863 -11.955  0.00  0.00    +0.034 C 
ATOM     10  C   UNL     1      36.792 -25.476 -12.361  0.00  0.00    +0.017 C 
ENDROOT
BRANCH   8  12
ATOM     11  O   UNL     1      39.804 -24.544 -13.531  0.00  0.00    -0.253 OA
ATOM     12  N   UNL     1      38.327 -26.269 -14.054  0.00  0.00    -0.268 N 
ATOM     13  N   UNL     1      40.592 -26.565 -14.280  0.00  0.00    -0.313 N 
ATOM     14  C   UNL     1      39.582 -25.689 -13.919  0.00  0.00    +0.301 C 
ATOM     15  H   UNL     1      38.277 -27.198 -14.375  0.00  0.00    +0.156 HD
ATOM     16  H   UNL     1      41.532 -26.279 -14.230  0.00  0.00    +0.146 HD
ATOM     17  H   UNL     1      40.369 -27.475 -14.584  0.00  0.00    +0.146 HD
ENDBRANCH   8  12
BRANCH   3  18
ATOM     18  C   UNL     1      33.973 -23.739 -16.533  0.00  0.00    +0.070 C 
ATOM     19  C   UNL     1      32.550 -23.266 -16.874  0.00  0.00    +0.012 C 
BRANCH  18  21
ATOM     20  N   UNL     1      34.917 -22.404 -18.457  0.00  0.00    -0.315 N 
ATOM     21  C   UNL     1      35.022 -22.826 -17.158  0.00  0.00    +0.030 C 
ATOM     22  C   UNL     1      36.171 -22.282 -16.628  0.00  0.00    +0.012 C 
ATOM     23  C   UNL     1      35.981 -21.598 -18.765  0.00  0.00    +0.062 C 
ATOM     24  C   UNL     1      36.778 -21.505 -17.645  0.00  0.00    +0.017 C 
ATOM     25  H   UNL     1      34.188 -22.643 -19.074  0.00  0.00    +0.152 HD
ENDBRANCH  18  21
ENDBRANCH   3  18
TORSDOF 3
ENDMDL
MODEL 9
REMARK VINA RESULT:      -8.8      8.201     11.747
REMARK  Name = 46937053
REMARK  3 active torsions:
REMARK  status: ('A' for Active; 'I' for Inactive)
REMARK    1  A    between atoms: C_3  and  C_18
REMARK    2  A    between atoms: C_8  and  N_12
REMARK    3  A    between atoms: C_18  and  C_21
REMARK                            x       y       z     vdW  Elec       q    Type
REMARK                         _______ _______ _______ _____ _____    ______ ____
ROOT
ATOM      1  O   UNL     1      34.745 -24.851 -11.800  0.00  0.00    -0.210 OA
ATOM      2  N   UNL     1      32.773 -24.633 -13.024  0.00  0.00    -0.333 NA
ATOM      3  C   UNL     1      34.757 -23.888 -13.995  0.00  0.00    +0.080 C 
ATOM      4  C   UNL     1      33.778 -23.659 -14.873  0.00  0.00    +0.040 C 
ATOM      5  C   UNL     1      32.570 -24.148 -14.204  0.00  0.00    +0.145 C 
ATOM      6  C   UNL     1      34.129 -24.513 -12.799  0.00  0.00    +0.201 C 
ATOM      7  C   UNL     1      33.724 -23.092 -16.185  0.00  0.00    +0.018 C 
ATOM      8  C   UNL     1      32.533 -23.010 -16.809  0.00  0.00    +0.052 C 
ATOM      9  C   UNL     1      31.294 -24.030 -14.939  0.00  0.00    +0.034 C 
ATOM     10  C   UNL     1      31.314 -23.488 -16.168  0.00  0.00    +0.017 C 
ENDROOT
BRANCH   8  12
ATOM     11  O   UNL     1      34.670 -22.610 -18.682  0.00  0.00    -0.253 OA
ATOM     12  N   UNL     1      32.427 -22.476 -18.062  0.00  0.00    -0.268 N 
ATOM     13  N   UNL     1      33.112 -21.746 -20.128  0.00  0.00    -0.313 N 
ATOM     14  C   UNL     1      33.503 -22.309 -18.925  0.00  0.00    +0.301 C 
ATOM     15  H   UNL     1      31.537 -22.195 -18.372  0.00  0.00    +0.156 HD
ATOM     16  H   UNL     1      33.779 -21.573 -20.831  0.00  0.00    +0.146 HD
ATOM     17  H   UNL     1      32.165 -21.520 -20.281  0.00  0.00    +0.146 HD
ENDBRANCH   8  12
BRANCH   3  18
ATOM     18  C   UNL     1      36.211 -23.618 -14.077  0.00  0.00    +0.070 C 
ATOM     19  C   UNL     1      36.742 -22.949 -12.797  0.00  0.00    +0.012 C 
BRANCH  18  21
ATOM     20  N   UNL     1      38.362 -24.935 -14.181  0.00  0.00    -0.315 N 
ATOM     21  C   UNL     1      37.015 -24.867 -14.419  0.00  0.00    +0.030 C 
ATOM     22  C   UNL     1      36.623 -26.064 -14.975  0.00  0.00    +0.012 C 
ATOM     23  C   UNL     1      38.837 -26.158 -14.576  0.00  0.00    +0.062 C 
ATOM     24  C   UNL     1      37.776 -26.881 -15.074  0.00  0.00    +0.017 C 
ATOM     25  H   UNL     1      38.906 -24.215 -13.787  0.00  0.00    +0.152 HD
ENDBRANCH  18  21
ENDBRANCH   3  18
TORSDOF 3
ENDMDL
