MODEL 1
REMARK VINA RESULT:      -4.7      0.000      0.000
REMARK  Name = 1727
REMARK  1 active torsions:
REMARK  status: ('A' for Active; 'I' for Inactive)
REMARK    1  A    between atoms: C_2  and  N_7
REMARK                            x       y       z     vdW  Elec       q    Type
REMARK                         _______ _______ _______ _____ _____    ______ ____
ROOT
ATOM      1  N   UNL     1      35.285 -19.685 -21.019  0.00  0.00    -0.242 NA
ATOM      2  C   UNL     1      33.585 -21.340 -19.542  0.00  0.00    +0.045 C 
ATOM      3  C   UNL     1      34.962 -21.524 -19.483  0.00  0.00    +0.035 C 
ATOM      4  C   UNL     1      33.056 -20.330 -20.338  0.00  0.00    +0.035 C 
ATOM      5  C   UNL     1      35.761 -20.677 -20.234  0.00  0.00    +0.100 C 
ATOM      6  C   UNL     1      33.941 -19.537 -21.050  0.00  0.00    +0.100 C 
ENDROOT
BRANCH   2   7
ATOM      7  N   UNL     1      32.727 -22.175 -18.797  0.00  0.00    -0.357 N 
ATOM      8  H   UNL     1      31.757 -22.007 -18.793  0.00  0.00    +0.142 HD
ATOM      9  H   UNL     1      33.099 -22.926 -18.279  0.00  0.00    +0.142 HD
ENDBRANCH   2   7
TORSDOF 1
ENDMDL
MODEL 2
REMARK VINA RESULT:      -4.7      0.012      1.778
REMARK  Name = 1727
REMARK  1 active torsions:
REMARK  status: ('A' for Active; 'I' for Inactive)
REMARK    1  A    between atoms: C_2  and  N_7
REMARK                            x       y       z     vdW  Elec       q    Type
REMARK                         _______ _______ _______ _____ _____    ______ ____
ROOT
ATOM      1  N   UNL     1      35.283 -19.700 -21.022  0.00  0.00    -0.242 NA
ATOM      2  C   UNL     1      33.579 -21.345 -19.538  0.00  0.00    +0.045 C 
ATOM      3  C   UNL     1      33.054 -20.335 -20.337  0.00  0.00    +0.035 C 
ATOM      4  C   UNL     1      34.956 -21.534 -19.480  0.00  0.00    +0.035 C 
ATOM      5  C   UNL     1      33.940 -19.548 -21.052  0.00  0.00    +0.100 C 
ATOM      6  C   UNL     1      35.757 -20.692 -20.234  0.00  0.00    +0.100 C 
ENDROOT
BRANCH   2   7
ATOM      7  N   UNL     1      32.720 -22.175 -18.789  0.00  0.00    -0.357 N 
ATOM      8  H   UNL     1      32.313 -22.968 -19.208  0.00  0.00    +0.142 HD
ATOM      9  H   UNL     1      32.525 -21.961 -17.848  0.00  0.00    +0.142 HD
ENDBRANCH   2   7
TORSDOF 1
ENDMDL
MODEL 3
REMARK VINA RESULT:      -4.6      0.845      3.117
REMARK  Name = 1727
REMARK  1 active torsions:
REMARK  status: ('A' for Active; 'I' for Inactive)
REMARK    1  A    between atoms: C_2  and  N_7
REMARK                            x       y       z     vdW  Elec       q    Type
REMARK                         _______ _______ _______ _____ _____    ______ ____
ROOT
ATOM      1  N   UNL     1      32.807 -21.510 -19.834  0.00  0.00    -0.242 NA
ATOM      2  C   UNL     1      35.333 -20.373 -20.203  0.00  0.00    +0.045 C 
ATOM      3  C   UNL     1      34.204 -19.746 -20.718  0.00  0.00    +0.035 C 
ATOM      4  C   UNL     1      35.201 -21.568 -19.504  0.00  0.00    +0.035 C 
ATOM      5  C   UNL     1      32.975 -20.350 -20.507  0.00  0.00    +0.100 C 
ATOM      6  C   UNL     1      33.928 -22.091 -19.349  0.00  0.00    +0.100 C 
ENDROOT
BRANCH   2   7
ATOM      7  N   UNL     1      36.608 -19.800 -20.390  0.00  0.00    -0.357 N 
ATOM      8  H   UNL     1      37.384 -20.155 -19.898  0.00  0.00    +0.142 HD
ATOM      9  H   UNL     1      36.721 -19.044 -21.010  0.00  0.00    +0.142 HD
ENDBRANCH   2   7
TORSDOF 1
ENDMDL
MODEL 4
REMARK VINA RESULT:      -4.3      1.644      2.199
REMARK  Name = 1727
REMARK  1 active torsions:
REMARK  status: ('A' for Active; 'I' for Inactive)
REMARK    1  A    between atoms: C_2  and  N_7
REMARK                            x       y       z     vdW  Elec       q    Type
REMARK                         _______ _______ _______ _____ _____    ______ ____
ROOT
ATOM      1  N   UNL     1      36.015 -21.697 -19.211  0.00  0.00    -0.242 NA
ATOM      2  C   UNL     1      33.636 -20.638 -20.226  0.00  0.00    +0.045 C 
ATOM      3  C   UNL     1      33.600 -21.693 -19.321  0.00  0.00    +0.035 C 
ATOM      4  C   UNL     1      34.860 -20.111 -20.624  0.00  0.00    +0.035 C 
ATOM      5  C   UNL     1      34.806 -22.182 -18.848  0.00  0.00    +0.100 C 
ATOM      6  C   UNL     1      36.010 -20.671 -20.092  0.00  0.00    +0.100 C 
ENDROOT
BRANCH   2   7
ATOM      7  N   UNL     1      32.436 -20.103 -20.738  0.00  0.00    -0.357 N 
ATOM      8  H   UNL     1      32.003 -19.344 -20.285  0.00  0.00    +0.142 HD
ATOM      9  H   UNL     1      32.031 -20.490 -21.547  0.00  0.00    +0.142 HD
ENDBRANCH   2   7
TORSDOF 1
ENDMDL
MODEL 5
REMARK VINA RESULT:      -4.3      4.144      5.157
REMARK  Name = 1727
REMARK  1 active torsions:
REMARK  status: ('A' for Active; 'I' for Inactive)
REMARK    1  A    between atoms: C_2  and  N_7
REMARK                            x       y       z     vdW  Elec       q    Type
REMARK                         _______ _______ _______ _____ _____    ______ ____
ROOT
ATOM      1  N   UNL     1      34.363 -17.651 -25.481  0.00  0.00    -0.242 NA
ATOM      2  C   UNL     1      35.069 -17.668 -22.777  0.00  0.00    +0.045 C 
ATOM      3  C   UNL     1      34.802 -18.863 -23.436  0.00  0.00    +0.035 C 
ATOM      4  C   UNL     1      34.983 -16.464 -23.468  0.00  0.00    +0.035 C 
ATOM      5  C   UNL     1      34.456 -18.801 -24.776  0.00  0.00    +0.100 C 
ATOM      6  C   UNL     1      34.630 -16.510 -24.807  0.00  0.00    +0.100 C 
ENDROOT
BRANCH   2   7
ATOM      7  N   UNL     1      35.425 -17.677 -21.413  0.00  0.00    -0.357 N 
ATOM      8  H   UNL     1      35.551 -16.827 -20.932  0.00  0.00    +0.142 HD
ATOM      9  H   UNL     1      35.549 -18.533 -20.942  0.00  0.00    +0.142 HD
ENDBRANCH   2   7
TORSDOF 1
ENDMDL
MODEL 6
REMARK VINA RESULT:      -4.3      4.143      5.294
REMARK  Name = 1727
REMARK  1 active torsions:
REMARK  status: ('A' for Active; 'I' for Inactive)
REMARK    1  A    between atoms: C_2  and  N_7
REMARK                            x       y       z     vdW  Elec       q    Type
REMARK                         _______ _______ _______ _____ _____    ______ ____
ROOT
ATOM      1  N   UNL     1      34.361 -17.668 -25.477  0.00  0.00    -0.242 NA
ATOM      2  C   UNL     1      35.061 -17.648 -22.771  0.00  0.00    +0.045 C 
ATOM      3  C   UNL     1      34.971 -16.453 -23.477  0.00  0.00    +0.035 C 
ATOM      4  C   UNL     1      34.802 -18.852 -23.416  0.00  0.00    +0.035 C 
ATOM      5  C   UNL     1      34.620 -16.517 -24.816  0.00  0.00    +0.100 C 
ATOM      6  C   UNL     1      34.459 -18.809 -24.757  0.00  0.00    +0.100 C 
ENDROOT
BRANCH   2   7
ATOM      7  N   UNL     1      35.414 -17.638 -21.406  0.00  0.00    -0.357 N 
ATOM      8  H   UNL     1      34.775 -17.961 -20.730  0.00  0.00    +0.142 HD
ATOM      9  H   UNL     1      36.299 -17.307 -21.129  0.00  0.00    +0.142 HD
ENDBRANCH   2   7
TORSDOF 1
ENDMDL
MODEL 7
REMARK VINA RESULT:      -4.3      9.212      9.468
REMARK  Name = 1727
REMARK  1 active torsions:
REMARK  status: ('A' for Active; 'I' for Inactive)
REMARK    1  A    between atoms: C_2  and  N_7
REMARK                            x       y       z     vdW  Elec       q    Type
REMARK                         _______ _______ _______ _____ _____    ______ ____
ROOT
ATOM      1  N   UNL     1      38.256 -26.853 -14.715  0.00  0.00    -0.242 NA
ATOM      2  C   UNL     1      38.165 -25.016 -12.611  0.00  0.00    +0.045 C 
ATOM      3  C   UNL     1      39.256 -25.037 -13.473  0.00  0.00    +0.035 C 
ATOM      4  C   UNL     1      37.119 -25.914 -12.800  0.00  0.00    +0.035 C 
ATOM      5  C   UNL     1      39.253 -25.966 -14.500  0.00  0.00    +0.100 C 
ATOM      6  C   UNL     1      37.212 -26.804 -13.857  0.00  0.00    +0.100 C 
ENDROOT
BRANCH   2   7
ATOM      7  N   UNL     1      38.119 -24.090 -11.549  0.00  0.00    -0.357 N 
ATOM      8  H   UNL     1      38.722 -23.311 -11.549  0.00  0.00    +0.142 HD
ATOM      9  H   UNL     1      37.485 -24.222 -10.807  0.00  0.00    +0.142 HD
ENDBRANCH   2   7
TORSDOF 1
ENDMDL
MODEL 8
REMARK VINA RESULT:      -4.3     10.313     11.574
REMARK  Name = 1727
REMARK  1 active torsions:
REMARK  status: ('A' for Active; 'I' for Inactive)
REMARK    1  A    between atoms: C_2  and  N_7
REMARK                            x       y       z     vdW  Elec       q    Type
REMARK                         _______ _______ _______ _____ _____    ______ ____
ROOT
ATOM      1  N   UNL     1      30.978 -11.206 -21.276  0.00  0.00    -0.242 NA
ATOM      2  C   UNL     1      32.250  -8.928 -20.272  0.00  0.00    +0.045 C 
ATOM      3  C   UNL     1      31.780  -9.906 -19.402  0.00  0.00    +0.035 C 
ATOM      4  C   UNL     1      32.084  -9.088 -21.644  0.00  0.00    +0.035 C 
ATOM      5  C   UNL     1      31.157 -11.015 -19.949  0.00  0.00    +0.100 C 
ATOM      6  C   UNL     1      31.448 -10.234 -22.090  0.00  0.00    +0.100 C 
ENDROOT
BRANCH   2   7
ATOM      7  N   UNL     1      32.892  -7.780 -19.766  0.00  0.00    -0.357 N 
ATOM      8  H   UNL     1      32.764  -7.519 -18.825  0.00  0.00    +0.142 HD
ATOM      9  H   UNL     1      33.467  -7.238 -20.354  0.00  0.00    +0.142 HD
ENDBRANCH   2   7
TORSDOF 1
ENDMDL
MODEL 9
REMARK VINA RESULT:      -4.3      3.092      4.961
REMARK  Name = 1727
REMARK  1 active torsions:
REMARK  status: ('A' for Active; 'I' for Inactive)
REMARK    1  A    between atoms: C_2  and  N_7
REMARK                            x       y       z     vdW  Elec       q    Type
REMARK                         _______ _______ _______ _____ _____    ______ ____
ROOT
ATOM      1  N   UNL     1      35.049 -18.330 -20.872  0.00  0.00    -0.242 NA
ATOM      2  C   UNL     1      35.091 -17.366 -23.495  0.00  0.00    +0.045 C 
ATOM      3  C   UNL     1      35.023 -16.478 -22.426  0.00  0.00    +0.035 C 
ATOM      4  C   UNL     1      35.137 -18.734 -23.254  0.00  0.00    +0.035 C 
ATOM      5  C   UNL     1      35.005 -17.006 -21.146  0.00  0.00    +0.100 C 
ATOM      6  C   UNL     1      35.114 -19.161 -21.936  0.00  0.00    +0.100 C 
ENDROOT
BRANCH   2   7
ATOM      7  N   UNL     1      35.112 -16.879 -24.818  0.00  0.00    -0.357 N 
ATOM      8  H   UNL     1      34.360 -17.070 -25.425  0.00  0.00    +0.142 HD
ATOM      9  H   UNL     1      35.879 -16.350 -25.136  0.00  0.00    +0.142 HD
ENDBRANCH   2   7
TORSDOF 1
ENDMDL
