MODEL 1
REMARK VINA RESULT:      -7.5      0.000      0.000
REMARK  Name = 5324
REMARK  4 active torsions:
REMARK  status: ('A' for Active; 'I' for Inactive)
REMARK    1  A    between atoms: S_1  and  N_4
REMARK    2  A    between atoms: S_1  and  C_12
REMARK    3  A    between atoms: N_4  and  C_7
REMARK    4  A    between atoms: C_15  and  N_18
REMARK                            x       y       z     vdW  Elec       q    Type
REMARK                         _______ _______ _______ _____ _____    ______ ____
ROOT
ATOM      1  S   UNL     1      35.542 -18.400 -21.547  0.00  0.00    +0.103 S 
ATOM      2  O   UNL     1      36.939 -18.642 -21.896  0.00  0.00    -0.146 OA
ATOM      3  O   UNL     1      35.200 -17.245 -20.725  0.00  0.00    -0.146 OA
ENDROOT
BRANCH   1   4
ATOM      4  C   UNL     1      34.958 -19.801 -20.685  0.00  0.00    +0.129 C 
ATOM      5  C   UNL     1      35.863 -20.708 -20.132  0.00  0.00    +0.022 C 
ATOM      6  C   UNL     1      33.586 -20.013 -20.546  0.00  0.00    +0.022 C 
ATOM      7  C   UNL     1      34.025 -22.038 -19.304  0.00  0.00    +0.042 C 
ATOM      8  C   UNL     1      35.397 -21.826 -19.443  0.00  0.00    +0.015 C 
ATOM      9  C   UNL     1      33.120 -21.132 -19.856  0.00  0.00    +0.015 C 
BRANCH   7  10
ATOM     10  N   UNL     1      33.552 -23.169 -18.605  0.00  0.00    -0.357 N 
ATOM     11  H   UNL     1      33.241 -23.078 -17.675  0.00  0.00    +0.142 HD
ATOM     12  H   UNL     1      33.535 -24.049 -19.046  0.00  0.00    +0.142 HD
ENDBRANCH   7  10
ENDBRANCH   1   4
BRANCH   1  13
ATOM     13  N   UNL     1      34.660 -18.385 -22.925  0.00  0.00    -0.093 NA
BRANCH  13  16
ATOM     14  N   UNL     1      34.606 -17.724 -25.235  0.00  0.00    -0.369 N 
ATOM     15  N   UNL     1      35.553 -16.366 -23.665  0.00  0.00    -0.369 N 
ATOM     16  C   UNL     1      34.912 -17.558 -23.903  0.00  0.00    +0.212 C 
ATOM     17  H   UNL     1      34.145 -18.540 -25.537  0.00  0.00    +0.159 HD
ATOM     18  H   UNL     1      34.849 -17.027 -25.887  0.00  0.00    +0.159 HD
ATOM     19  H   UNL     1      35.825 -16.128 -22.748  0.00  0.00    +0.159 HD
ATOM     20  H   UNL     1      35.738 -15.748 -24.409  0.00  0.00    +0.159 HD
ENDBRANCH  13  16
ENDBRANCH   1  13
TORSDOF 4
ENDMDL
MODEL 2
REMARK VINA RESULT:      -7.3      3.415      6.404
REMARK  Name = 5324
REMARK  4 active torsions:
REMARK  status: ('A' for Active; 'I' for Inactive)
REMARK    1  A    between atoms: S_1  and  N_4
REMARK    2  A    between atoms: S_1  and  C_12
REMARK    3  A    between atoms: N_4  and  C_7
REMARK    4  A    between atoms: C_15  and  N_18
REMARK                            x       y       z     vdW  Elec       q    Type
REMARK                         _______ _______ _______ _____ _____    ______ ____
ROOT
ATOM      1  S   UNL     1      33.735 -22.821 -18.565  0.00  0.00    +0.103 S 
ATOM      2  O   UNL     1      33.895 -24.048 -19.340  0.00  0.00    -0.146 OA
ATOM      3  O   UNL     1      32.397 -22.396 -18.170  0.00  0.00    -0.146 OA
ENDROOT
BRANCH   1   4
ATOM      4  C   UNL     1      34.406 -21.509 -19.500  0.00  0.00    +0.129 C 
ATOM      5  C   UNL     1      35.790 -21.348 -19.583  0.00  0.00    +0.022 C 
ATOM      6  C   UNL     1      33.560 -20.622 -20.165  0.00  0.00    +0.022 C 
ATOM      7  C   UNL     1      35.480 -19.413 -20.995  0.00  0.00    +0.042 C 
ATOM      8  C   UNL     1      36.326 -20.300 -20.330  0.00  0.00    +0.015 C 
ATOM      9  C   UNL     1      34.097 -19.574 -20.913  0.00  0.00    +0.015 C 
BRANCH   7  10
ATOM     10  N   UNL     1      36.023 -18.354 -21.752  0.00  0.00    -0.357 N 
ATOM     11  H   UNL     1      35.540 -17.498 -21.817  0.00  0.00    +0.142 HD
ATOM     12  H   UNL     1      36.882 -18.470 -22.217  0.00  0.00    +0.142 HD
ENDBRANCH   7  10
ENDBRANCH   1   4
BRANCH   1  13
ATOM     13  N   UNL     1      34.704 -22.909 -17.249  0.00  0.00    -0.093 NA
BRANCH  13  16
ATOM     14  N   UNL     1      33.013 -23.651 -15.710  0.00  0.00    -0.369 N 
ATOM     15  N   UNL     1      34.959 -22.739 -14.941  0.00  0.00    -0.369 N 
ATOM     16  C   UNL     1      34.229 -23.100 -16.048  0.00  0.00    +0.212 C 
ATOM     17  H   UNL     1      32.396 -23.951 -16.416  0.00  0.00    +0.159 HD
ATOM     18  H   UNL     1      32.761 -23.745 -14.763  0.00  0.00    +0.159 HD
ATOM     19  H   UNL     1      35.849 -22.333 -15.049  0.00  0.00    +0.159 HD
ATOM     20  H   UNL     1      34.592 -22.888 -14.039  0.00  0.00    +0.159 HD
ENDBRANCH  13  16
ENDBRANCH   1  13
TORSDOF 4
ENDMDL
MODEL 3
REMARK VINA RESULT:      -7.3      3.388      6.478
REMARK  Name = 5324
REMARK  4 active torsions:
REMARK  status: ('A' for Active; 'I' for Inactive)
REMARK    1  A    between atoms: S_1  and  N_4
REMARK    2  A    between atoms: S_1  and  C_12
REMARK    3  A    between atoms: N_4  and  C_7
REMARK    4  A    between atoms: C_15  and  N_18
REMARK                            x       y       z     vdW  Elec       q    Type
REMARK                         _______ _______ _______ _____ _____    ______ ____
ROOT
ATOM      1  S   UNL     1      33.864 -22.826 -18.464  0.00  0.00    +0.103 S 
ATOM      2  O   UNL     1      34.717 -22.842 -17.280  0.00  0.00    -0.146 OA
ATOM      3  O   UNL     1      33.817 -24.000 -19.328  0.00  0.00    -0.146 OA
ENDROOT
BRANCH   1   4
ATOM      4  C   UNL     1      34.380 -21.499 -19.475  0.00  0.00    +0.129 C 
ATOM      5  C   UNL     1      33.433 -20.683 -20.094  0.00  0.00    +0.022 C 
ATOM      6  C   UNL     1      35.741 -21.253 -19.662  0.00  0.00    +0.022 C 
ATOM      7  C   UNL     1      35.204 -19.378 -21.088  0.00  0.00    +0.042 C 
ATOM      8  C   UNL     1      33.844 -19.624 -20.901  0.00  0.00    +0.015 C 
ATOM      9  C   UNL     1      36.153 -20.192 -20.468  0.00  0.00    +0.015 C 
BRANCH   7  10
ATOM     10  N   UNL     1      35.622 -18.304 -21.902  0.00  0.00    -0.357 N 
ATOM     11  H   UNL     1      36.566 -18.231 -22.174  0.00  0.00    +0.142 HD
ATOM     12  H   UNL     1      34.971 -17.628 -22.198  0.00  0.00    +0.142 HD
ENDBRANCH   7  10
ENDBRANCH   1   4
BRANCH   1  13
ATOM     13  N   UNL     1      32.349 -22.410 -18.006  0.00  0.00    -0.093 NA
BRANCH  13  16
ATOM     14  N   UNL     1      32.394 -23.598 -15.917  0.00  0.00    -0.369 N 
ATOM     15  N   UNL     1      30.428 -22.788 -16.745  0.00  0.00    -0.369 N 
ATOM     16  C   UNL     1      31.782 -22.912 -16.942  0.00  0.00    +0.212 C 
ATOM     17  H   UNL     1      33.366 -23.755 -15.941  0.00  0.00    +0.159 HD
ATOM     18  H   UNL     1      31.860 -23.933 -15.161  0.00  0.00    +0.159 HD
ATOM     19  H   UNL     1      29.875 -22.315 -17.409  0.00  0.00    +0.159 HD
ATOM     20  H   UNL     1      30.010 -23.170 -15.939  0.00  0.00    +0.159 HD
ENDBRANCH  13  16
ENDBRANCH   1  13
TORSDOF 4
ENDMDL
MODEL 4
REMARK VINA RESULT:      -7.2      1.251      1.663
REMARK  Name = 5324
REMARK  4 active torsions:
REMARK  status: ('A' for Active; 'I' for Inactive)
REMARK    1  A    between atoms: S_1  and  N_4
REMARK    2  A    between atoms: S_1  and  C_12
REMARK    3  A    between atoms: N_4  and  C_7
REMARK    4  A    between atoms: C_15  and  N_18
REMARK                            x       y       z     vdW  Elec       q    Type
REMARK                         _______ _______ _______ _____ _____    ______ ____
ROOT
ATOM      1  S   UNL     1      35.353 -18.608 -22.309  0.00  0.00    +0.103 S 
ATOM      2  O   UNL     1      35.014 -19.061 -23.655  0.00  0.00    -0.146 OA
ATOM      3  O   UNL     1      36.756 -18.469 -21.935  0.00  0.00    -0.146 OA
ENDROOT
BRANCH   1   4
ATOM      4  C   UNL     1      34.657 -19.738 -21.175  0.00  0.00    +0.129 C 
ATOM      5  C   UNL     1      35.482 -20.613 -20.466  0.00  0.00    +0.022 C 
ATOM      6  C   UNL     1      33.277 -19.766 -20.976  0.00  0.00    +0.022 C 
ATOM      7  C   UNL     1      33.546 -21.543 -19.361  0.00  0.00    +0.042 C 
ATOM      8  C   UNL     1      34.927 -21.515 -19.561  0.00  0.00    +0.015 C 
ATOM      9  C   UNL     1      32.721 -20.668 -20.069  0.00  0.00    +0.015 C 
BRANCH   7  10
ATOM     10  N   UNL     1      32.984 -22.454 -18.443  0.00  0.00    -0.357 N 
ATOM     11  H   UNL     1      32.021 -22.659 -18.480  0.00  0.00    +0.142 HD
ATOM     12  H   UNL     1      33.552 -22.885 -17.765  0.00  0.00    +0.142 HD
ENDBRANCH   7  10
ENDBRANCH   1   4
BRANCH   1  13
ATOM     13  N   UNL     1      34.556 -17.210 -22.017  0.00  0.00    -0.093 NA
BRANCH  13  16
ATOM     14  N   UNL     1      34.462 -14.829 -22.337  0.00  0.00    -0.369 N 
ATOM     15  N   UNL     1      35.466 -16.167 -23.890  0.00  0.00    -0.369 N 
ATOM     16  C   UNL     1      34.801 -16.117 -22.688  0.00  0.00    +0.212 C 
ATOM     17  H   UNL     1      33.980 -14.659 -21.495  0.00  0.00    +0.159 HD
ATOM     18  H   UNL     1      34.700 -14.078 -22.928  0.00  0.00    +0.159 HD
ATOM     19  H   UNL     1      35.765 -17.033 -24.252  0.00  0.00    +0.159 HD
ATOM     20  H   UNL     1      35.647 -15.337 -24.388  0.00  0.00    +0.159 HD
ENDBRANCH  13  16
ENDBRANCH   1  13
TORSDOF 4
ENDMDL
MODEL 5
REMARK VINA RESULT:      -6.8      2.458      5.829
REMARK  Name = 5324
REMARK  4 active torsions:
REMARK  status: ('A' for Active; 'I' for Inactive)
REMARK    1  A    between atoms: S_1  and  N_4
REMARK    2  A    between atoms: S_1  and  C_12
REMARK    3  A    between atoms: N_4  and  C_7
REMARK    4  A    between atoms: C_15  and  N_18
REMARK                            x       y       z     vdW  Elec       q    Type
REMARK                         _______ _______ _______ _____ _____    ______ ____
ROOT
ATOM      1  S   UNL     1      35.113 -18.742 -21.609  0.00  0.00    +0.103 S 
ATOM      2  O   UNL     1      36.179 -18.722 -20.612  0.00  0.00    -0.146 OA
ATOM      3  O   UNL     1      35.304 -19.495 -22.844  0.00  0.00    -0.146 OA
ENDROOT
BRANCH   1   4
ATOM      4  C   UNL     1      34.801 -17.092 -22.089  0.00  0.00    +0.129 C 
ATOM      5  C   UNL     1      34.728 -16.761 -23.443  0.00  0.00    +0.022 C 
ATOM      6  C   UNL     1      34.624 -16.105 -21.120  0.00  0.00    +0.022 C 
ATOM      7  C   UNL     1      34.301 -14.458 -22.857  0.00  0.00    +0.042 C 
ATOM      8  C   UNL     1      34.478 -15.445 -23.827  0.00  0.00    +0.015 C 
ATOM      9  C   UNL     1      34.373 -14.788 -21.504  0.00  0.00    +0.015 C 
BRANCH   7  10
ATOM     10  N   UNL     1      34.047 -13.125 -23.245  0.00  0.00    -0.357 N 
ATOM     11  H   UNL     1      33.819 -12.450 -22.565  0.00  0.00    +0.142 HD
ATOM     12  H   UNL     1      34.095 -12.871 -24.194  0.00  0.00    +0.142 HD
ENDBRANCH   7  10
ENDBRANCH   1   4
BRANCH   1  13
ATOM     13  N   UNL     1      33.727 -19.212 -20.877  0.00  0.00    -0.093 NA
BRANCH  13  16
ATOM     14  N   UNL     1      32.539 -20.815 -19.538  0.00  0.00    -0.369 N 
ATOM     15  N   UNL     1      34.738 -21.140 -20.052  0.00  0.00    -0.369 N 
ATOM     16  C   UNL     1      33.645 -20.319 -20.190  0.00  0.00    +0.212 C 
ATOM     17  H   UNL     1      31.689 -20.317 -19.561  0.00  0.00    +0.159 HD
ATOM     18  H   UNL     1      32.596 -21.667 -19.048  0.00  0.00    +0.159 HD
ATOM     19  H   UNL     1      35.594 -20.896 -20.474  0.00  0.00    +0.159 HD
ATOM     20  H   UNL     1      34.666 -21.973 -19.532  0.00  0.00    +0.159 HD
ENDBRANCH  13  16
ENDBRANCH   1  13
TORSDOF 4
ENDMDL
MODEL 6
REMARK VINA RESULT:      -6.8      2.036      5.893
REMARK  Name = 5324
REMARK  4 active torsions:
REMARK  status: ('A' for Active; 'I' for Inactive)
REMARK    1  A    between atoms: S_1  and  N_4
REMARK    2  A    between atoms: S_1  and  C_12
REMARK    3  A    between atoms: N_4  and  C_7
REMARK    4  A    between atoms: C_15  and  N_18
REMARK                            x       y       z     vdW  Elec       q    Type
REMARK                         _______ _______ _______ _____ _____    ______ ____
ROOT
ATOM      1  S   UNL     1      35.320 -18.087 -21.742  0.00  0.00    +0.103 S 
ATOM      2  O   UNL     1      35.164 -17.284 -20.533  0.00  0.00    -0.146 OA
ATOM      3  O   UNL     1      36.649 -18.554 -22.123  0.00  0.00    -0.146 OA
ENDROOT
BRANCH   1   4
ATOM      4  C   UNL     1      34.730 -17.146 -23.088  0.00  0.00    +0.129 C 
ATOM      5  C   UNL     1      34.746 -17.683 -24.376  0.00  0.00    +0.022 C 
ATOM      6  C   UNL     1      34.242 -15.856 -22.876  0.00  0.00    +0.022 C 
ATOM      7  C   UNL     1      33.786 -15.642 -25.239  0.00  0.00    +0.042 C 
ATOM      8  C   UNL     1      34.275 -16.931 -25.451  0.00  0.00    +0.015 C 
ATOM      9  C   UNL     1      33.769 -15.105 -23.952  0.00  0.00    +0.015 C 
BRANCH   7  10
ATOM     10  N   UNL     1      33.307 -14.882 -26.327  0.00  0.00    -0.357 N 
ATOM     11  H   UNL     1      33.938 -14.521 -26.991  0.00  0.00    +0.142 HD
ATOM     12  H   UNL     1      32.342 -14.710 -26.420  0.00  0.00    +0.142 HD
ENDBRANCH   7  10
ENDBRANCH   1   4
BRANCH   1  13
ATOM     13  N   UNL     1      34.287 -19.354 -21.659  0.00  0.00    -0.093 NA
BRANCH  13  16
ATOM     14  N   UNL     1      33.031 -20.611 -20.041  0.00  0.00    -0.369 N 
ATOM     15  N   UNL     1      35.302 -20.456 -19.877  0.00  0.00    -0.369 N 
ATOM     16  C   UNL     1      34.184 -20.098 -20.591  0.00  0.00    +0.212 C 
ATOM     17  H   UNL     1      32.160 -20.425 -20.461  0.00  0.00    +0.159 HD
ATOM     18  H   UNL     1      33.077 -21.163 -19.227  0.00  0.00    +0.159 HD
ATOM     19  H   UNL     1      36.192 -20.152 -20.169  0.00  0.00    +0.159 HD
ATOM     20  H   UNL     1      35.214 -21.018 -19.073  0.00  0.00    +0.159 HD
ENDBRANCH  13  16
ENDBRANCH   1  13
TORSDOF 4
ENDMDL
MODEL 7
REMARK VINA RESULT:      -6.7      6.918      8.547
REMARK  Name = 5324
REMARK  4 active torsions:
REMARK  status: ('A' for Active; 'I' for Inactive)
REMARK    1  A    between atoms: S_1  and  N_4
REMARK    2  A    between atoms: S_1  and  C_12
REMARK    3  A    between atoms: N_4  and  C_7
REMARK    4  A    between atoms: C_15  and  N_18
REMARK                            x       y       z     vdW  Elec       q    Type
REMARK                         _______ _______ _______ _____ _____    ______ ____
ROOT
ATOM      1  S   UNL     1      35.730 -23.653 -15.356  0.00  0.00    +0.103 S 
ATOM      2  O   UNL     1      35.931 -23.209 -13.980  0.00  0.00    -0.146 OA
ATOM      3  O   UNL     1      36.515 -23.046 -16.425  0.00  0.00    -0.146 OA
ENDROOT
BRANCH   1   4
ATOM      4  C   UNL     1      34.056 -23.380 -15.765  0.00  0.00    +0.129 C 
ATOM      5  C   UNL     1      33.689 -23.164 -17.094  0.00  0.00    +0.022 C 
ATOM      6  C   UNL     1      33.084 -23.378 -14.765  0.00  0.00    +0.022 C 
ATOM      7  C   UNL     1      31.380 -22.944 -16.422  0.00  0.00    +0.042 C 
ATOM      8  C   UNL     1      32.352 -22.946 -17.422  0.00  0.00    +0.015 C 
ATOM      9  C   UNL     1      31.746 -23.160 -15.093  0.00  0.00    +0.015 C 
BRANCH   7  10
ATOM     10  N   UNL     1      30.026 -22.725 -16.753  0.00  0.00    -0.357 N 
ATOM     11  H   UNL     1      29.416 -23.491 -16.862  0.00  0.00    +0.142 HD
ATOM     12  H   UNL     1      29.692 -21.808 -16.877  0.00  0.00    +0.142 HD
ENDBRANCH   7  10
ENDBRANCH   1   4
BRANCH   1  13
ATOM     13  N   UNL     1      35.890 -25.281 -15.402  0.00  0.00    -0.093 NA
BRANCH  13  16
ATOM     14  N   UNL     1      36.885 -27.003 -14.052  0.00  0.00    -0.369 N 
ATOM     15  N   UNL     1      38.193 -25.450 -15.095  0.00  0.00    -0.369 N 
ATOM     16  C   UNL     1      36.912 -25.895 -14.869  0.00  0.00    +0.212 C 
ATOM     17  H   UNL     1      36.025 -27.418 -13.814  0.00  0.00    +0.159 HD
ATOM     18  H   UNL     1      37.726 -27.381 -13.706  0.00  0.00    +0.159 HD
ATOM     19  H   UNL     1      38.346 -24.662 -15.666  0.00  0.00    +0.159 HD
ATOM     20  H   UNL     1      38.956 -25.920 -14.689  0.00  0.00    +0.159 HD
ENDBRANCH  13  16
ENDBRANCH   1  13
TORSDOF 4
ENDMDL
MODEL 8
REMARK VINA RESULT:      -6.6      4.603      5.730
REMARK  Name = 5324
REMARK  4 active torsions:
REMARK  status: ('A' for Active; 'I' for Inactive)
REMARK    1  A    between atoms: S_1  and  N_4
REMARK    2  A    between atoms: S_1  and  C_12
REMARK    3  A    between atoms: N_4  and  C_7
REMARK    4  A    between atoms: C_15  and  N_18
REMARK                            x       y       z     vdW  Elec       q    Type
REMARK                         _______ _______ _______ _____ _____    ______ ____
ROOT
ATOM      1  S   UNL     1      33.831 -22.908 -18.338  0.00  0.00    +0.103 S 
ATOM      2  O   UNL     1      33.778 -24.134 -19.128  0.00  0.00    -0.146 OA
ATOM      3  O   UNL     1      35.127 -22.349 -17.971  0.00  0.00    -0.146 OA
ENDROOT
BRANCH   1   4
ATOM      4  C   UNL     1      32.987 -23.204 -16.838  0.00  0.00    +0.129 C 
ATOM      5  C   UNL     1      33.699 -23.595 -15.703  0.00  0.00    +0.022 C 
ATOM      6  C   UNL     1      31.603 -23.049 -16.774  0.00  0.00    +0.022 C 
ATOM      7  C   UNL     1      31.641 -23.676 -14.441  0.00  0.00    +0.042 C 
ATOM      8  C   UNL     1      33.026 -23.831 -14.505  0.00  0.00    +0.015 C 
ATOM      9  C   UNL     1      30.930 -23.285 -15.575  0.00  0.00    +0.015 C 
BRANCH   7  10
ATOM     10  N   UNL     1      30.960 -23.914 -13.229  0.00  0.00    -0.357 N 
ATOM     11  H   UNL     1      30.211 -23.331 -12.963  0.00  0.00    +0.142 HD
ATOM     12  H   UNL     1      31.233 -24.660 -12.649  0.00  0.00    +0.142 HD
ENDBRANCH   7  10
ENDBRANCH   1   4
BRANCH   1  13
ATOM     13  N   UNL     1      32.924 -21.770 -19.086  0.00  0.00    -0.093 NA
BRANCH  13  16
ATOM     14  N   UNL     1      34.757 -20.668 -20.183  0.00  0.00    -0.369 N 
ATOM     15  N   UNL     1      32.606 -20.255 -20.826  0.00  0.00    -0.369 N 
ATOM     16  C   UNL     1      33.426 -20.952 -19.971  0.00  0.00    +0.212 C 
ATOM     17  H   UNL     1      35.447 -21.105 -19.633  0.00  0.00    +0.159 HD
ATOM     18  H   UNL     1      35.018 -20.029 -20.884  0.00  0.00    +0.159 HD
ATOM     19  H   UNL     1      31.629 -20.371 -20.775  0.00  0.00    +0.159 HD
ATOM     20  H   UNL     1      32.995 -19.640 -21.490  0.00  0.00    +0.159 HD
ENDBRANCH  13  16
ENDBRANCH   1  13
TORSDOF 4
ENDMDL
MODEL 9
REMARK VINA RESULT:      -6.6      6.689      7.572
REMARK  Name = 5324
REMARK  4 active torsions:
REMARK  status: ('A' for Active; 'I' for Inactive)
REMARK    1  A    between atoms: S_1  and  N_4
REMARK    2  A    between atoms: S_1  and  C_12
REMARK    3  A    between atoms: N_4  and  C_7
REMARK    4  A    between atoms: C_15  and  N_18
REMARK                            x       y       z     vdW  Elec       q    Type
REMARK                         _______ _______ _______ _____ _____    ______ ____
ROOT
ATOM      1  S   UNL     1      35.165 -23.689 -15.361  0.00  0.00    +0.103 S 
ATOM      2  O   UNL     1      35.410 -25.085 -15.711  0.00  0.00    -0.146 OA
ATOM      3  O   UNL     1      35.647 -23.177 -14.083  0.00  0.00    -0.146 OA
ENDROOT
BRANCH   1   4
ATOM      4  C   UNL     1      33.439 -23.433 -15.368  0.00  0.00    +0.129 C 
ATOM      5  C   UNL     1      32.730 -23.421 -14.166  0.00  0.00    +0.022 C 
ATOM      6  C   UNL     1      32.767 -23.238 -16.575  0.00  0.00    +0.022 C 
ATOM      7  C   UNL     1      30.679 -23.022 -15.377  0.00  0.00    +0.042 C 
ATOM      8  C   UNL     1      31.351 -23.217 -14.170  0.00  0.00    +0.015 C 
ATOM      9  C   UNL     1      31.387 -23.032 -16.579  0.00  0.00    +0.015 C 
BRANCH   7  10
ATOM     10  N   UNL     1      29.284 -22.813 -15.382  0.00  0.00    -0.357 N 
ATOM     11  H   UNL     1      28.671 -23.583 -15.353  0.00  0.00    +0.142 HD
ATOM     12  H   UNL     1      28.924 -21.898 -15.418  0.00  0.00    +0.142 HD
ENDBRANCH   7  10
ENDBRANCH   1   4
BRANCH   1  13
ATOM     13  N   UNL     1      35.712 -22.745 -16.582  0.00  0.00    -0.093 NA
BRANCH  13  16
ATOM     14  N   UNL     1      37.262 -20.946 -16.952  0.00  0.00    -0.369 N 
ATOM     15  N   UNL     1      37.991 -22.957 -16.156  0.00  0.00    -0.369 N 
ATOM     16  C   UNL     1      36.908 -22.222 -16.573  0.00  0.00    +0.212 C 
ATOM     17  H   UNL     1      36.575 -20.319 -17.272  0.00  0.00    +0.159 HD
ATOM     18  H   UNL     1      38.204 -20.662 -16.903  0.00  0.00    +0.159 HD
ATOM     19  H   UNL     1      37.869 -23.888 -15.858  0.00  0.00    +0.159 HD
ATOM     20  H   UNL     1      38.890 -22.553 -16.153  0.00  0.00    +0.159 HD
ENDBRANCH  13  16
ENDBRANCH   1  13
TORSDOF 4
ENDMDL
