MODEL 1
REMARK VINA RESULT:     -10.0      0.000      0.000
REMARK  Name = 4488
REMARK  4 active torsions:
REMARK  status: ('A' for Active; 'I' for Inactive)
REMARK    1  A    between atoms: N_1  and  C_13
REMARK    2  A    between atoms: C_5  and  C_10
REMARK    3  A    between atoms: C_10  and  O_11
REMARK    4  A    between atoms: C_14  and  C_22
REMARK                            x       y       z     vdW  Elec       q    Type
REMARK                         _______ _______ _______ _____ _____    ______ ____
ROOT
ATOM      1  N   UNL     1      34.605 -18.651 -22.110  0.00  0.00    -0.298 N 
ATOM      2  H   UNL     1      34.162 -19.115 -22.858  0.00  0.00    +0.154 HD
ATOM      3  N   UNL     1      34.546 -16.526 -21.062  0.00  0.00    -0.229 NA
ATOM      4  C   UNL     1      34.560 -17.247 -22.210  0.00  0.00    +0.138 C 
ATOM      5  C   UNL     1      34.530 -16.672 -23.474  0.00  0.00    +0.107 C 
ATOM      6  C   UNL     1      34.483 -15.285 -23.566  0.00  0.00    +0.011 C 
ATOM      7  C   UNL     1      34.467 -14.518 -22.406  0.00  0.00    +0.021 C 
ATOM      8  C   UNL     1      34.499 -15.180 -21.190  0.00  0.00    +0.100 C 
ENDROOT
BRANCH   1   9
ATOM      9  C   UNL     1      35.160 -19.524 -21.151  0.00  0.00    +0.049 C 
ATOM     10  C   UNL     1      34.897 -21.314 -19.551  0.00  0.00    +0.073 C 
ATOM     11  C   UNL     1      34.347 -20.449 -20.497  0.00  0.00    +0.018 C 
ATOM     12  C   UNL     1      36.523 -19.462 -20.859  0.00  0.00    +0.015 C 
ATOM     13  C   UNL     1      36.259 -21.253 -19.258  0.00  0.00    +0.004 C 
ATOM     14  C   UNL     1      37.073 -20.327 -19.912  0.00  0.00    +0.001 C 
BRANCH  10  18
ATOM     15  F   UNL     1      33.902 -23.460 -19.548  0.00  0.00    -0.166 F 
ATOM     16  F   UNL     1      34.507 -22.642 -17.628  0.00  0.00    -0.166 F 
ATOM     17  F   UNL     1      32.778 -21.814 -18.665  0.00  0.00    -0.166 F 
ATOM     18  C   UNL     1      34.028 -22.303 -18.850  0.00  0.00    +0.419 C 
ENDBRANCH  10  18
ENDBRANCH   1   9
BRANCH   5  20
ATOM     19  O   UNL     1      34.275 -18.668 -24.769  0.00  0.00    -0.245 OA
ATOM     20  C   UNL     1      34.547 -17.466 -24.696  0.00  0.00    +0.341 C 
BRANCH  20  21
ATOM     21  O   UNL     1      34.900 -16.733 -25.786  0.00  0.00    -0.477 OA
ATOM     22  H   UNL     1      35.791 -16.477 -25.909  0.00  0.00    +0.295 HD
ENDBRANCH  20  21
ENDBRANCH   5  20
TORSDOF 4
ENDMDL
MODEL 2
REMARK VINA RESULT:      -9.5      4.428      6.046
REMARK  Name = 4488
REMARK  4 active torsions:
REMARK  status: ('A' for Active; 'I' for Inactive)
REMARK    1  A    between atoms: N_1  and  C_13
REMARK    2  A    between atoms: C_5  and  C_10
REMARK    3  A    between atoms: C_10  and  O_11
REMARK    4  A    between atoms: C_14  and  C_22
REMARK                            x       y       z     vdW  Elec       q    Type
REMARK                         _______ _______ _______ _____ _____    ______ ____
ROOT
ATOM      1  N   UNL     1      33.880 -13.302 -23.562  0.00  0.00    -0.298 N 
ATOM      2  H   UNL     1      34.267 -13.232 -24.465  0.00  0.00    +0.154 HD
ATOM      3  N   UNL     1      32.056 -12.403 -22.344  0.00  0.00    -0.229 NA
ATOM      4  C   UNL     1      33.088 -12.196 -23.199  0.00  0.00    +0.138 C 
ATOM      5  C   UNL     1      33.399 -10.952 -23.735  0.00  0.00    +0.107 C 
ATOM      6  C   UNL     1      32.611  -9.864 -23.374  0.00  0.00    +0.011 C 
ATOM      7  C   UNL     1      31.546 -10.045 -22.499  0.00  0.00    +0.021 C 
ATOM      8  C   UNL     1      31.312 -11.322 -22.016  0.00  0.00    +0.100 C 
ENDROOT
BRANCH   1   9
ATOM      9  C   UNL     1      34.228 -14.491 -22.887  0.00  0.00    +0.049 C 
ATOM     10  C   UNL     1      34.836 -16.828 -22.944  0.00  0.00    +0.073 C 
ATOM     11  C   UNL     1      34.489 -15.653 -23.612  0.00  0.00    +0.018 C 
ATOM     12  C   UNL     1      34.315 -14.502 -21.495  0.00  0.00    +0.015 C 
ATOM     13  C   UNL     1      34.922 -16.840 -21.552  0.00  0.00    +0.004 C 
ATOM     14  C   UNL     1      34.662 -15.676 -20.827  0.00  0.00    +0.001 C 
BRANCH  10  18
ATOM     15  F   UNL     1      36.353 -18.565 -23.470  0.00  0.00    -0.166 F 
ATOM     16  F   UNL     1      34.239 -19.068 -23.433  0.00  0.00    -0.166 F 
ATOM     17  F   UNL     1      35.037 -17.847 -25.052  0.00  0.00    -0.166 F 
ATOM     18  C   UNL     1      35.113 -18.072 -23.718  0.00  0.00    +0.419 C 
ENDBRANCH  10  18
ENDBRANCH   1   9
BRANCH   5  20
ATOM     19  O   UNL     1      34.593 -11.223 -25.790  0.00  0.00    -0.245 OA
ATOM     20  C   UNL     1      34.513 -10.752 -24.652  0.00  0.00    +0.341 C 
BRANCH  20  21
ATOM     21  O   UNL     1      35.489  -9.969 -24.119  0.00  0.00    -0.477 OA
ATOM     22  H   UNL     1      35.290  -9.099 -23.836  0.00  0.00    +0.295 HD
ENDBRANCH  20  21
ENDBRANCH   5  20
TORSDOF 4
ENDMDL
MODEL 3
REMARK VINA RESULT:      -9.4      1.890      2.621
REMARK  Name = 4488
REMARK  4 active torsions:
REMARK  status: ('A' for Active; 'I' for Inactive)
REMARK    1  A    between atoms: N_1  and  C_13
REMARK    2  A    between atoms: C_5  and  C_10
REMARK    3  A    between atoms: C_10  and  O_11
REMARK    4  A    between atoms: C_14  and  C_22
REMARK                            x       y       z     vdW  Elec       q    Type
REMARK                         _______ _______ _______ _____ _____    ______ ____
ROOT
ATOM      1  N   UNL     1      35.416 -17.323 -21.907  0.00  0.00    -0.298 N 
ATOM      2  H   UNL     1      35.774 -16.559 -21.400  0.00  0.00    +0.154 HD
ATOM      3  N   UNL     1      34.945 -17.889 -24.160  0.00  0.00    -0.229 NA
ATOM      4  C   UNL     1      34.888 -16.971 -23.164  0.00  0.00    +0.138 C 
ATOM      5  C   UNL     1      34.340 -15.704 -23.322  0.00  0.00    +0.107 C 
ATOM      6  C   UNL     1      33.823 -15.361 -24.566  0.00  0.00    +0.011 C 
ATOM      7  C   UNL     1      33.867 -16.281 -25.609  0.00  0.00    +0.021 C 
ATOM      8  C   UNL     1      34.434 -17.519 -25.357  0.00  0.00    +0.100 C 
ENDROOT
BRANCH   1   9
ATOM      9  C   UNL     1      35.531 -18.556 -21.231  0.00  0.00    +0.049 C 
ATOM     10  C   UNL     1      34.502 -20.514 -20.260  0.00  0.00    +0.073 C 
ATOM     11  C   UNL     1      34.387 -19.294 -20.926  0.00  0.00    +0.018 C 
ATOM     12  C   UNL     1      36.789 -19.038 -20.870  0.00  0.00    +0.015 C 
ATOM     13  C   UNL     1      35.759 -20.997 -19.898  0.00  0.00    +0.004 C 
ATOM     14  C   UNL     1      36.904 -20.258 -20.204  0.00  0.00    +0.001 C 
BRANCH  10  18
ATOM     15  F   UNL     1      33.540 -22.629 -19.814  0.00  0.00    -0.166 F 
ATOM     16  F   UNL     1      32.708 -20.917 -18.765  0.00  0.00    -0.166 F 
ATOM     17  F   UNL     1      32.337 -21.170 -20.898  0.00  0.00    -0.166 F 
ATOM     18  C   UNL     1      33.279 -21.303 -19.933  0.00  0.00    +0.419 C 
ENDBRANCH  10  18
ENDBRANCH   1   9
BRANCH   5  20
ATOM     19  O   UNL     1      34.108 -15.002 -21.046  0.00  0.00    -0.245 OA
ATOM     20  C   UNL     1      34.289 -14.733 -22.237  0.00  0.00    +0.341 C 
BRANCH  20  21
ATOM     21  O   UNL     1      34.466 -13.457 -22.675  0.00  0.00    -0.477 OA
ATOM     22  H   UNL     1      34.790 -12.802 -22.090  0.00  0.00    +0.295 HD
ENDBRANCH  20  21
ENDBRANCH   5  20
TORSDOF 4
ENDMDL
MODEL 4
REMARK VINA RESULT:      -9.4      4.928      7.906
REMARK  Name = 4488
REMARK  4 active torsions:
REMARK  status: ('A' for Active; 'I' for Inactive)
REMARK    1  A    between atoms: N_1  and  C_13
REMARK    2  A    between atoms: C_5  and  C_10
REMARK    3  A    between atoms: C_10  and  O_11
REMARK    4  A    between atoms: C_14  and  C_22
REMARK                            x       y       z     vdW  Elec       q    Type
REMARK                         _______ _______ _______ _____ _____    ______ ____
ROOT
ATOM      1  N   UNL     1      33.535 -22.915 -17.821  0.00  0.00    -0.298 N 
ATOM      2  H   UNL     1      32.711 -23.267 -18.231  0.00  0.00    +0.154 HD
ATOM      3  N   UNL     1      35.012 -23.475 -16.054  0.00  0.00    -0.229 NA
ATOM      4  C   UNL     1      33.736 -23.347 -16.496  0.00  0.00    +0.138 C 
ATOM      5  C   UNL     1      32.624 -23.621 -15.711  0.00  0.00    +0.107 C 
ATOM      6  C   UNL     1      32.830 -24.050 -14.404  0.00  0.00    +0.011 C 
ATOM      7  C   UNL     1      34.126 -24.191 -13.921  0.00  0.00    +0.021 C 
ATOM      8  C   UNL     1      35.173 -23.895 -14.778  0.00  0.00    +0.100 C 
ENDROOT
BRANCH   1   9
ATOM      9  C   UNL     1      34.280 -22.077 -18.677  0.00  0.00    +0.049 C 
ATOM     10  C   UNL     1      34.360 -20.394 -20.408  0.00  0.00    +0.073 C 
ATOM     11  C   UNL     1      33.623 -21.224 -19.563  0.00  0.00    +0.018 C 
ATOM     12  C   UNL     1      35.674 -22.101 -18.635  0.00  0.00    +0.015 C 
ATOM     13  C   UNL     1      35.754 -20.417 -20.367  0.00  0.00    +0.004 C 
ATOM     14  C   UNL     1      36.411 -21.271 -19.480  0.00  0.00    +0.001 C 
BRANCH  10  18
ATOM     15  F   UNL     1      32.333 -19.757 -21.447  0.00  0.00    -0.166 F 
ATOM     16  F   UNL     1      33.757 -18.179 -20.994  0.00  0.00    -0.166 F 
ATOM     17  F   UNL     1      34.171 -19.585 -22.607  0.00  0.00    -0.166 F 
ATOM     18  C   UNL     1      33.658 -19.482 -21.356  0.00  0.00    +0.419 C 
ENDBRANCH  10  18
ENDBRANCH   1   9
BRANCH   5  20
ATOM     19  O   UNL     1      30.864 -22.571 -16.946  0.00  0.00    -0.245 OA
ATOM     20  C   UNL     1      31.261 -23.476 -16.206  0.00  0.00    +0.341 C 
BRANCH  20  21
ATOM     21  O   UNL     1      30.440 -24.466 -15.764  0.00  0.00    -0.477 OA
ATOM     22  H   UNL     1      29.566 -24.265 -15.496  0.00  0.00    +0.295 HD
ENDBRANCH  20  21
ENDBRANCH   5  20
TORSDOF 4
ENDMDL
MODEL 5
REMARK VINA RESULT:      -9.3      8.778     10.800
REMARK  Name = 4488
REMARK  4 active torsions:
REMARK  status: ('A' for Active; 'I' for Inactive)
REMARK    1  A    between atoms: N_1  and  C_13
REMARK    2  A    between atoms: C_5  and  C_10
REMARK    3  A    between atoms: C_10  and  O_11
REMARK    4  A    between atoms: C_14  and  C_22
REMARK                            x       y       z     vdW  Elec       q    Type
REMARK                         _______ _______ _______ _____ _____    ______ ____
ROOT
ATOM      1  N   UNL     1      34.719 -24.707 -13.567  0.00  0.00    -0.298 N 
ATOM      2  H   UNL     1      34.295 -24.843 -12.688  0.00  0.00    +0.154 HD
ATOM      3  N   UNL     1      36.614 -25.485 -14.758  0.00  0.00    -0.229 NA
ATOM      4  C   UNL     1      36.087 -25.036 -13.592  0.00  0.00    +0.138 C 
ATOM      5  C   UNL     1      36.828 -24.886 -12.427  0.00  0.00    +0.107 C 
ATOM      6  C   UNL     1      38.179 -25.214 -12.458  0.00  0.00    +0.011 C 
ATOM      7  C   UNL     1      38.748 -25.678 -13.639  0.00  0.00    +0.021 C 
ATOM      8  C   UNL     1      37.930 -25.796 -14.751  0.00  0.00    +0.100 C 
ENDROOT
BRANCH   1   9
ATOM      9  C   UNL     1      33.833 -24.222 -14.552  0.00  0.00    +0.049 C 
ATOM     10  C   UNL     1      31.584 -23.739 -15.290  0.00  0.00    +0.073 C 
ATOM     11  C   UNL     1      32.459 -24.222 -14.316  0.00  0.00    +0.018 C 
ATOM     12  C   UNL     1      34.334 -23.738 -15.761  0.00  0.00    +0.015 C 
ATOM     13  C   UNL     1      32.084 -23.256 -16.499  0.00  0.00    +0.004 C 
ATOM     14  C   UNL     1      33.459 -23.255 -16.735  0.00  0.00    +0.001 C 
BRANCH  10  18
ATOM     15  F   UNL     1      29.406 -24.114 -16.134  0.00  0.00    -0.166 F 
ATOM     16  F   UNL     1      29.757 -24.588 -14.043  0.00  0.00    -0.166 F 
ATOM     17  F   UNL     1      29.676 -22.507 -14.686  0.00  0.00    -0.166 F 
ATOM     18  C   UNL     1      30.114 -23.740 -15.039  0.00  0.00    +0.419 C 
ENDBRANCH  10  18
ENDBRANCH   1   9
BRANCH   5  20
ATOM     19  O   UNL     1      35.323 -24.947 -10.567  0.00  0.00    -0.245 OA
ATOM     20  C   UNL     1      36.242 -24.400 -11.184  0.00  0.00    +0.341 C 
BRANCH  20  21
ATOM     21  O   UNL     1      36.822 -23.248 -10.753  0.00  0.00    -0.477 OA
ATOM     22  H   UNL     1      36.322 -22.627 -10.262  0.00  0.00    +0.295 HD
ENDBRANCH  20  21
ENDBRANCH   5  20
TORSDOF 4
ENDMDL
MODEL 6
REMARK VINA RESULT:      -9.3      7.917     10.572
REMARK  Name = 4488
REMARK  4 active torsions:
REMARK  status: ('A' for Active; 'I' for Inactive)
REMARK    1  A    between atoms: N_1  and  C_13
REMARK    2  A    between atoms: C_5  and  C_10
REMARK    3  A    between atoms: C_10  and  O_11
REMARK    4  A    between atoms: C_14  and  C_22
REMARK                            x       y       z     vdW  Elec       q    Type
REMARK                         _______ _______ _______ _____ _____    ______ ____
ROOT
ATOM      1  N   UNL     1      34.672 -24.670 -13.573  0.00  0.00    -0.298 N 
ATOM      2  H   UNL     1      34.308 -24.722 -12.659  0.00  0.00    +0.154 HD
ATOM      3  N   UNL     1      36.423 -25.642 -14.840  0.00  0.00    -0.229 NA
ATOM      4  C   UNL     1      36.013 -25.086 -13.672  0.00  0.00    +0.138 C 
ATOM      5  C   UNL     1      36.846 -24.911 -12.575  0.00  0.00    +0.107 C 
ATOM      6  C   UNL     1      38.169 -25.327 -12.679  0.00  0.00    +0.011 C 
ATOM      7  C   UNL     1      38.619 -25.901 -13.863  0.00  0.00    +0.021 C 
ATOM      8  C   UNL     1      37.716 -26.035 -14.904  0.00  0.00    +0.100 C 
ENDROOT
BRANCH   1   9
ATOM      9  C   UNL     1      33.746 -24.191 -14.524  0.00  0.00    +0.049 C 
ATOM     10  C   UNL     1      33.277 -23.273 -16.708  0.00  0.00    +0.073 C 
ATOM     11  C   UNL     1      34.192 -23.743 -15.767  0.00  0.00    +0.018 C 
ATOM     12  C   UNL     1      32.384 -24.169 -14.222  0.00  0.00    +0.015 C 
ATOM     13  C   UNL     1      31.915 -23.250 -16.407  0.00  0.00    +0.004 C 
ATOM     14  C   UNL     1      31.469 -23.698 -15.163  0.00  0.00    +0.001 C 
BRANCH  10  18
ATOM     15  F   UNL     1      32.973 -21.800 -18.535  0.00  0.00    -0.166 F 
ATOM     16  F   UNL     1      35.016 -22.303 -17.991  0.00  0.00    -0.166 F 
ATOM     17  F   UNL     1      33.749 -23.794 -18.951  0.00  0.00    -0.166 F 
ATOM     18  C   UNL     1      33.753 -22.793 -18.038  0.00  0.00    +0.419 C 
ENDBRANCH  10  18
ENDBRANCH   1   9
BRANCH   5  20
ATOM     19  O   UNL     1      36.838 -23.281 -10.822  0.00  0.00    -0.245 OA
ATOM     20  C   UNL     1      36.384 -24.311 -11.330  0.00  0.00    +0.341 C 
BRANCH  20  21
ATOM     21  O   UNL     1      35.369 -25.016 -10.760  0.00  0.00    -0.477 OA
ATOM     22  H   UNL     1      34.481 -24.762 -10.911  0.00  0.00    +0.295 HD
ENDBRANCH  20  21
ENDBRANCH   5  20
TORSDOF 4
ENDMDL
MODEL 7
REMARK VINA RESULT:      -9.2      7.952     10.023
REMARK  Name = 4488
REMARK  4 active torsions:
REMARK  status: ('A' for Active; 'I' for Inactive)
REMARK    1  A    between atoms: N_1  and  C_13
REMARK    2  A    between atoms: C_5  and  C_10
REMARK    3  A    between atoms: C_10  and  O_11
REMARK    4  A    between atoms: C_14  and  C_22
REMARK                            x       y       z     vdW  Elec       q    Type
REMARK                         _______ _______ _______ _____ _____    ______ ____
ROOT
ATOM      1  N   UNL     1      35.346 -24.368 -15.454  0.00  0.00    -0.298 N 
ATOM      2  H   UNL     1      35.821 -24.813 -16.193  0.00  0.00    +0.154 HD
ATOM      3  N   UNL     1      35.862 -23.326 -13.389  0.00  0.00    -0.229 NA
ATOM      4  C   UNL     1      36.063 -24.360 -14.243  0.00  0.00    +0.138 C 
ATOM      5  C   UNL     1      36.939 -25.407 -13.983  0.00  0.00    +0.107 C 
ATOM      6  C   UNL     1      37.646 -25.393 -12.786  0.00  0.00    +0.011 C 
ATOM      7  C   UNL     1      37.462 -24.345 -11.890  0.00  0.00    +0.021 C 
ATOM      8  C   UNL     1      36.568 -23.345 -12.235  0.00  0.00    +0.100 C 
ENDROOT
BRANCH   1   9
ATOM      9  C   UNL     1      34.080 -23.863 -15.819  0.00  0.00    +0.049 C 
ATOM     10  C   UNL     1      31.765 -23.431 -15.279  0.00  0.00    +0.073 C 
ATOM     11  C   UNL     1      33.016 -23.932 -14.919  0.00  0.00    +0.018 C 
ATOM     12  C   UNL     1      33.893 -23.292 -17.078  0.00  0.00    +0.015 C 
ATOM     13  C   UNL     1      31.577 -22.861 -16.538  0.00  0.00    +0.004 C 
ATOM     14  C   UNL     1      32.642 -22.791 -17.438  0.00  0.00    +0.001 C 
BRANCH  10  18
ATOM     15  F   UNL     1      29.979 -24.696 -14.381  0.00  0.00    -0.166 F 
ATOM     16  F   UNL     1      31.023 -23.351 -13.030  0.00  0.00    -0.166 F 
ATOM     17  F   UNL     1      29.709 -22.541 -14.569  0.00  0.00    -0.166 F 
ATOM     18  C   UNL     1      30.627 -23.506 -14.318  0.00  0.00    +0.419 C 
ENDBRANCH  10  18
ENDBRANCH   1   9
BRANCH   5  20
ATOM     19  O   UNL     1      36.298 -26.927 -15.717  0.00  0.00    -0.245 OA
ATOM     20  C   UNL     1      37.139 -26.509 -14.915  0.00  0.00    +0.341 C 
BRANCH  20  21
ATOM     21  O   UNL     1      38.382 -27.053 -14.816  0.00  0.00    -0.477 OA
ATOM     22  H   UNL     1      38.824 -27.063 -13.991  0.00  0.00    +0.295 HD
ENDBRANCH  20  21
ENDBRANCH   5  20
TORSDOF 4
ENDMDL
MODEL 8
REMARK VINA RESULT:      -9.2      1.518      2.180
REMARK  Name = 4488
REMARK  4 active torsions:
REMARK  status: ('A' for Active; 'I' for Inactive)
REMARK    1  A    between atoms: N_1  and  C_13
REMARK    2  A    between atoms: C_5  and  C_10
REMARK    3  A    between atoms: C_10  and  O_11
REMARK    4  A    between atoms: C_14  and  C_22
REMARK                            x       y       z     vdW  Elec       q    Type
REMARK                         _______ _______ _______ _____ _____    ______ ____
ROOT
ATOM      1  N   UNL     1      33.872 -18.564 -22.274  0.00  0.00    -0.298 N 
ATOM      2  H   UNL     1      33.607 -18.921 -23.152  0.00  0.00    +0.154 HD
ATOM      3  N   UNL     1      33.845 -16.492 -21.123  0.00  0.00    -0.229 NA
ATOM      4  C   UNL     1      34.088 -17.173 -22.271  0.00  0.00    +0.138 C 
ATOM      5  C   UNL     1      34.535 -16.567 -23.439  0.00  0.00    +0.107 C 
ATOM      6  C   UNL     1      34.743 -15.192 -23.430  0.00  0.00    +0.011 C 
ATOM      7  C   UNL     1      34.502 -14.466 -22.268  0.00  0.00    +0.021 C 
ATOM      8  C   UNL     1      34.058 -15.156 -21.152  0.00  0.00    +0.100 C 
ENDROOT
BRANCH   1   9
ATOM      9  C   UNL     1      33.962 -19.547 -21.267  0.00  0.00    +0.049 C 
ATOM     10  C   UNL     1      35.298 -20.885 -19.762  0.00  0.00    +0.073 C 
ATOM     11  C   UNL     1      35.209 -19.914 -20.760  0.00  0.00    +0.018 C 
ATOM     12  C   UNL     1      32.805 -20.150 -20.775  0.00  0.00    +0.015 C 
ATOM     13  C   UNL     1      34.141 -21.489 -19.271  0.00  0.00    +0.004 C 
ATOM     14  C   UNL     1      32.893 -21.121 -19.777  0.00  0.00    +0.001 C 
BRANCH  10  18
ATOM     15  F   UNL     1      37.444 -21.790 -20.180  0.00  0.00    -0.166 F 
ATOM     16  F   UNL     1      37.297 -20.235 -18.668  0.00  0.00    -0.166 F 
ATOM     17  F   UNL     1      36.509 -22.226 -18.259  0.00  0.00    -0.166 F 
ATOM     18  C   UNL     1      36.631 -21.279 -19.221  0.00  0.00    +0.419 C 
ENDBRANCH  10  18
ENDBRANCH   1   9
BRANCH   5  20
ATOM     19  O   UNL     1      35.102 -18.511 -24.713  0.00  0.00    -0.245 OA
ATOM     20  C   UNL     1      34.790 -17.318 -24.661  0.00  0.00    +0.341 C 
BRANCH  20  21
ATOM     21  O   UNL     1      34.646 -16.555 -25.778  0.00  0.00    -0.477 OA
ATOM     22  H   UNL     1      35.209 -15.821 -25.919  0.00  0.00    +0.295 HD
ENDBRANCH  20  21
ENDBRANCH   5  20
TORSDOF 4
ENDMDL
MODEL 9
REMARK VINA RESULT:      -9.2      3.933      6.475
REMARK  Name = 4488
REMARK  4 active torsions:
REMARK  status: ('A' for Active; 'I' for Inactive)
REMARK    1  A    between atoms: N_1  and  C_13
REMARK    2  A    between atoms: C_5  and  C_10
REMARK    3  A    between atoms: C_10  and  O_11
REMARK    4  A    between atoms: C_14  and  C_22
REMARK                            x       y       z     vdW  Elec       q    Type
REMARK                         _______ _______ _______ _____ _____    ______ ____
ROOT
ATOM      1  N   UNL     1      34.434 -19.663 -21.689  0.00  0.00    -0.298 N 
ATOM      2  H   UNL     1      33.655 -20.197 -21.967  0.00  0.00    +0.154 HD
ATOM      3  N   UNL     1      36.532 -20.005 -20.641  0.00  0.00    -0.229 NA
ATOM      4  C   UNL     1      35.202 -20.268 -20.676  0.00  0.00    +0.138 C 
ATOM      5  C   UNL     1      34.564 -21.103 -19.767  0.00  0.00    +0.107 C 
ATOM      6  C   UNL     1      35.329 -21.699 -18.771  0.00  0.00    +0.011 C 
ATOM      7  C   UNL     1      36.696 -21.449 -18.709  0.00  0.00    +0.021 C 
ATOM      8  C   UNL     1      37.244 -20.603 -19.658  0.00  0.00    +0.100 C 
ENDROOT
BRANCH   1   9
ATOM      9  C   UNL     1      34.560 -18.442 -22.384  0.00  0.00    +0.049 C 
ATOM     10  C   UNL     1      34.463 -16.028 -22.407  0.00  0.00    +0.073 C 
ATOM     11  C   UNL     1      34.336 -17.236 -21.720  0.00  0.00    +0.018 C 
ATOM     12  C   UNL     1      34.912 -18.441 -23.734  0.00  0.00    +0.015 C 
ATOM     13  C   UNL     1      34.815 -16.026 -23.757  0.00  0.00    +0.004 C 
ATOM     14  C   UNL     1      35.039 -17.233 -24.420  0.00  0.00    +0.001 C 
BRANCH  10  18
ATOM     15  F   UNL     1      34.922 -14.651 -20.539  0.00  0.00    -0.166 F 
ATOM     16  F   UNL     1      34.577 -13.662 -22.443  0.00  0.00    -0.166 F 
ATOM     17  F   UNL     1      32.913 -14.588 -21.383  0.00  0.00    -0.166 F 
ATOM     18  C   UNL     1      34.223 -14.738 -21.699  0.00  0.00    +0.419 C 
ENDBRANCH  10  18
ENDBRANCH   1   9
BRANCH   5  20
ATOM     19  O   UNL     1      32.332 -20.817 -20.582  0.00  0.00    -0.245 OA
ATOM     20  C   UNL     1      33.133 -21.372 -19.824  0.00  0.00    +0.341 C 
BRANCH  20  21
ATOM     21  O   UNL     1      32.749 -22.325 -18.933  0.00  0.00    -0.477 OA
ATOM     22  H   UNL     1      32.152 -22.997 -19.194  0.00  0.00    +0.295 HD
ENDBRANCH  20  21
ENDBRANCH   5  20
TORSDOF 4
ENDMDL
