MODEL 1
REMARK VINA RESULT:      -8.3      0.000      0.000
REMARK  Name = 19667
REMARK  6 active torsions:
REMARK  status: ('A' for Active; 'I' for Inactive)
REMARK    1  A    between atoms: N_1  and  C_4
REMARK    2  A    between atoms: N_1  and  C_13
REMARK    3  A    between atoms: C_4  and  C_5
REMARK    4  A    between atoms: C_5  and  O_6
REMARK    5  A    between atoms: O_6  and  C_7
REMARK    6  A    between atoms: C_13  and  C_14
REMARK                            x       y       z     vdW  Elec       q    Type
REMARK                         _______ _______ _______ _____ _____    ______ ____
ROOT
ATOM      1  N   UNL     1      34.783 -23.917 -14.846  0.00  0.00    +0.392 N 
ATOM      2  C   UNL     1      35.371 -25.310 -15.009  0.00  0.00    -0.095 C 
ATOM      3  C   UNL     1      35.904 -22.917 -14.600  0.00  0.00    -0.095 C 
ENDROOT
BRANCH   1   4
ATOM      4  C   UNL     1      34.031 -23.531 -16.113  0.00  0.00    -0.025 C 
BRANCH   4   5
ATOM      5  C   UNL     1      34.949 -22.731 -17.015  0.00  0.00    +0.183 C 
BRANCH   5   6
ATOM      6  O   UNL     1      34.629 -22.996 -18.375  0.00  0.00    -0.478 OA
BRANCH   6   7
ATOM      7  C   UNL     1      34.524 -21.913 -19.208  0.00  0.00    +0.138 C 
ATOM      8  C   UNL     1      35.675 -21.330 -19.726  0.00  0.00    +0.037 C 
ATOM      9  C   UNL     1      33.269 -21.408 -19.524  0.00  0.00    +0.037 C 
ATOM     10  C   UNL     1      35.568 -20.227 -20.572  0.00  0.00    +0.003 C 
ATOM     11  C   UNL     1      33.162 -20.305 -20.370  0.00  0.00    +0.003 C 
ATOM     12  C   UNL     1      34.313 -19.713 -20.895  0.00  0.00    +0.000 C 
ENDBRANCH   6   7
ENDBRANCH   5   6
ENDBRANCH   4   5
ENDBRANCH   1   4
BRANCH   1  13
ATOM     13  C   UNL     1      33.825 -23.904 -13.664  0.00  0.00    -0.046 C 
BRANCH  13  14
ATOM     14  C   UNL     1      32.383 -23.959 -14.075  0.00  0.00    -0.043 C 
ATOM     15  C   UNL     1      31.722 -22.787 -14.424  0.00  0.00    -0.006 C 
ATOM     16  C   UNL     1      31.721 -25.181 -14.104  0.00  0.00    -0.006 C 
ATOM     17  C   UNL     1      30.381 -22.837 -14.807  0.00  0.00    -0.000 C 
ATOM     18  C   UNL     1      30.381 -25.233 -14.487  0.00  0.00    -0.000 C 
ATOM     19  C   UNL     1      29.711 -24.060 -14.839  0.00  0.00    -0.000 C 
ENDBRANCH  13  14
ENDBRANCH   1  13
TORSDOF 6
ENDMDL
MODEL 2
REMARK VINA RESULT:      -8.3      0.201      1.579
REMARK  Name = 19667
REMARK  6 active torsions:
REMARK  status: ('A' for Active; 'I' for Inactive)
REMARK    1  A    between atoms: N_1  and  C_4
REMARK    2  A    between atoms: N_1  and  C_13
REMARK    3  A    between atoms: C_4  and  C_5
REMARK    4  A    between atoms: C_5  and  O_6
REMARK    5  A    between atoms: O_6  and  C_7
REMARK    6  A    between atoms: C_13  and  C_14
REMARK                            x       y       z     vdW  Elec       q    Type
REMARK                         _______ _______ _______ _____ _____    ______ ____
ROOT
ATOM      1  N   UNL     1      34.674 -23.873 -14.968  0.00  0.00    +0.392 N 
ATOM      2  C   UNL     1      35.325 -25.245 -15.062  0.00  0.00    -0.095 C 
ATOM      3  C   UNL     1      35.750 -22.811 -14.789  0.00  0.00    -0.095 C 
ENDROOT
BRANCH   1   4
ATOM      4  C   UNL     1      33.894 -23.593 -16.244  0.00  0.00    -0.025 C 
BRANCH   4   5
ATOM      5  C   UNL     1      34.763 -22.797 -17.198  0.00  0.00    +0.183 C 
BRANCH   5   6
ATOM      6  O   UNL     1      34.283 -22.958 -18.527  0.00  0.00    -0.478 OA
BRANCH   6   7
ATOM      7  C   UNL     1      34.299 -21.846 -19.328  0.00  0.00    +0.138 C 
ATOM      8  C   UNL     1      33.104 -21.216 -19.654  0.00  0.00    +0.037 C 
ATOM      9  C   UNL     1      35.511 -21.362 -19.807  0.00  0.00    +0.037 C 
ATOM     10  C   UNL     1      33.120 -20.086 -20.470  0.00  0.00    +0.003 C 
ATOM     11  C   UNL     1      35.527 -20.231 -20.624  0.00  0.00    +0.003 C 
ATOM     12  C   UNL     1      34.331 -19.593 -20.956  0.00  0.00    +0.000 C 
ENDBRANCH   6   7
ENDBRANCH   5   6
ENDBRANCH   4   5
ENDBRANCH   1   4
BRANCH   1  13
ATOM     13  C   UNL     1      33.728 -23.840 -13.777  0.00  0.00    -0.046 C 
BRANCH  13  14
ATOM     14  C   UNL     1      32.284 -23.929 -14.172  0.00  0.00    -0.043 C 
ATOM     15  C   UNL     1      31.639 -25.160 -14.155  0.00  0.00    -0.006 C 
ATOM     16  C   UNL     1      31.602 -22.777 -14.552  0.00  0.00    -0.006 C 
ATOM     17  C   UNL     1      30.295 -25.242 -14.522  0.00  0.00    -0.000 C 
ATOM     18  C   UNL     1      30.259 -22.858 -14.918  0.00  0.00    -0.000 C 
ATOM     19  C   UNL     1      29.605 -24.091 -14.903  0.00  0.00    -0.000 C 
ENDBRANCH  13  14
ENDBRANCH   1  13
TORSDOF 6
ENDMDL
MODEL 3
REMARK VINA RESULT:      -8.2      5.765      8.979
REMARK  Name = 19667
REMARK  6 active torsions:
REMARK  status: ('A' for Active; 'I' for Inactive)
REMARK    1  A    between atoms: N_1  and  C_4
REMARK    2  A    between atoms: N_1  and  C_13
REMARK    3  A    between atoms: C_4  and  C_5
REMARK    4  A    between atoms: C_5  and  O_6
REMARK    5  A    between atoms: O_6  and  C_7
REMARK    6  A    between atoms: C_13  and  C_14
REMARK                            x       y       z     vdW  Elec       q    Type
REMARK                         _______ _______ _______ _____ _____    ______ ____
ROOT
ATOM      1  N   UNL     1      35.243 -17.801 -22.206  0.00  0.00    +0.392 N 
ATOM      2  C   UNL     1      36.675 -18.298 -22.081  0.00  0.00    -0.095 C 
ATOM      3  C   UNL     1      34.844 -17.077 -20.927  0.00  0.00    -0.095 C 
ENDROOT
BRANCH   1   4
ATOM      4  C   UNL     1      35.139 -16.842 -23.383  0.00  0.00    -0.025 C 
BRANCH   4   5
ATOM      5  C   UNL     1      34.588 -15.515 -22.901  0.00  0.00    +0.183 C 
BRANCH   5   6
ATOM      6  O   UNL     1      33.381 -15.221 -23.591  0.00  0.00    -0.478 OA
BRANCH   6   7
ATOM      7  C   UNL     1      33.432 -14.225 -24.530  0.00  0.00    +0.138 C 
ATOM      8  C   UNL     1      33.126 -14.512 -25.855  0.00  0.00    +0.037 C 
ATOM      9  C   UNL     1      33.791 -12.937 -24.148  0.00  0.00    +0.037 C 
ATOM     10  C   UNL     1      33.180 -13.498 -26.811  0.00  0.00    +0.003 C 
ATOM     11  C   UNL     1      33.845 -11.923 -25.104  0.00  0.00    +0.003 C 
ATOM     12  C   UNL     1      33.539 -12.203 -26.437  0.00  0.00    +0.000 C 
ENDBRANCH   6   7
ENDBRANCH   5   6
ENDBRANCH   4   5
ENDBRANCH   1   4
BRANCH   1  13
ATOM     13  C   UNL     1      34.313 -18.984 -22.429  0.00  0.00    -0.046 C 
BRANCH  13  14
ATOM     14  C   UNL     1      34.252 -19.914 -21.253  0.00  0.00    -0.043 C 
ATOM     15  C   UNL     1      35.417 -20.517 -20.791  0.00  0.00    -0.006 C 
ATOM     16  C   UNL     1      33.032 -20.166 -20.636  0.00  0.00    -0.006 C 
ATOM     17  C   UNL     1      35.361 -21.381 -19.698  0.00  0.00    -0.000 C 
ATOM     18  C   UNL     1      32.975 -21.030 -19.543  0.00  0.00    -0.000 C 
ATOM     19  C   UNL     1      34.141 -21.637 -19.073  0.00  0.00    -0.000 C 
ENDBRANCH  13  14
ENDBRANCH   1  13
TORSDOF 6
ENDMDL
MODEL 4
REMARK VINA RESULT:      -8.1      5.776      9.057
REMARK  Name = 19667
REMARK  6 active torsions:
REMARK  status: ('A' for Active; 'I' for Inactive)
REMARK    1  A    between atoms: N_1  and  C_4
REMARK    2  A    between atoms: N_1  and  C_13
REMARK    3  A    between atoms: C_4  and  C_5
REMARK    4  A    between atoms: C_5  and  O_6
REMARK    5  A    between atoms: O_6  and  C_7
REMARK    6  A    between atoms: C_13  and  C_14
REMARK                            x       y       z     vdW  Elec       q    Type
REMARK                         _______ _______ _______ _____ _____    ______ ____
ROOT
ATOM      1  N   UNL     1      35.109 -18.135 -22.963  0.00  0.00    +0.392 N 
ATOM      2  C   UNL     1      34.715 -19.366 -23.764  0.00  0.00    -0.095 C 
ATOM      3  C   UNL     1      36.581 -18.223 -22.587  0.00  0.00    -0.095 C 
ENDROOT
BRANCH   1   4
ATOM      4  C   UNL     1      34.875 -16.886 -23.801  0.00  0.00    -0.025 C 
BRANCH   4   5
ATOM      5  C   UNL     1      34.442 -15.749 -22.897  0.00  0.00    +0.183 C 
BRANCH   5   6
ATOM      6  O   UNL     1      33.242 -15.174 -23.396  0.00  0.00    -0.478 OA
BRANCH   6   7
ATOM      7  C   UNL     1      33.375 -14.170 -24.319  0.00  0.00    +0.138 C 
ATOM      8  C   UNL     1      33.788 -12.908 -23.907  0.00  0.00    +0.037 C 
ATOM      9  C   UNL     1      33.094 -14.422 -25.657  0.00  0.00    +0.037 C 
ATOM     10  C   UNL     1      33.923 -11.886 -24.845  0.00  0.00    +0.003 C 
ATOM     11  C   UNL     1      33.228 -13.400 -26.595  0.00  0.00    +0.003 C 
ATOM     12  C   UNL     1      33.643 -12.130 -26.189  0.00  0.00    +0.000 C 
ENDBRANCH   6   7
ENDBRANCH   5   6
ENDBRANCH   4   5
ENDBRANCH   1   4
BRANCH   1  13
ATOM     13  C   UNL     1      34.267 -18.062 -21.697  0.00  0.00    -0.046 C 
BRANCH  13  14
ATOM     14  C   UNL     1      34.258 -19.347 -20.923  0.00  0.00    -0.043 C 
ATOM     15  C   UNL     1      33.047 -19.954 -20.610  0.00  0.00    -0.006 C 
ATOM     16  C   UNL     1      35.461 -19.920 -20.525  0.00  0.00    -0.006 C 
ATOM     17  C   UNL     1      33.038 -21.150 -19.891  0.00  0.00    -0.000 C 
ATOM     18  C   UNL     1      35.453 -21.115 -19.807  0.00  0.00    -0.000 C 
ATOM     19  C   UNL     1      34.241 -21.730 -19.490  0.00  0.00    -0.000 C 
ENDBRANCH  13  14
ENDBRANCH   1  13
TORSDOF 6
ENDMDL
MODEL 5
REMARK VINA RESULT:      -8.1      5.808     10.755
REMARK  Name = 19667
REMARK  6 active torsions:
REMARK  status: ('A' for Active; 'I' for Inactive)
REMARK    1  A    between atoms: N_1  and  C_4
REMARK    2  A    between atoms: N_1  and  C_13
REMARK    3  A    between atoms: C_4  and  C_5
REMARK    4  A    between atoms: C_5  and  O_6
REMARK    5  A    between atoms: O_6  and  C_7
REMARK    6  A    between atoms: C_13  and  C_14
REMARK                            x       y       z     vdW  Elec       q    Type
REMARK                         _______ _______ _______ _____ _____    ______ ____
ROOT
ATOM      1  N   UNL     1      33.961 -15.323 -22.111  0.00  0.00    +0.392 N 
ATOM      2  C   UNL     1      34.704 -14.453 -21.108  0.00  0.00    -0.095 C 
ATOM      3  C   UNL     1      34.897 -15.696 -23.251  0.00  0.00    -0.095 C 
ENDROOT
BRANCH   1   4
ATOM      4  C   UNL     1      33.473 -16.590 -21.422  0.00  0.00    -0.025 C 
BRANCH   4   5
ATOM      5  C   UNL     1      34.618 -17.578 -21.322  0.00  0.00    +0.183 C 
BRANCH   5   6
ATOM      6  O   UNL     1      34.175 -18.862 -21.742  0.00  0.00    -0.478 OA
BRANCH   6   7
ATOM      7  C   UNL     1      34.349 -19.895 -20.859  0.00  0.00    +0.138 C 
ATOM      8  C   UNL     1      35.634 -20.325 -20.546  0.00  0.00    +0.037 C 
ATOM      9  C   UNL     1      33.239 -20.503 -20.285  0.00  0.00    +0.037 C 
ATOM     10  C   UNL     1      35.810 -21.376 -19.648  0.00  0.00    +0.003 C 
ATOM     11  C   UNL     1      33.415 -21.555 -19.386  0.00  0.00    +0.003 C 
ATOM     12  C   UNL     1      34.702 -21.992 -19.068  0.00  0.00    +0.000 C 
ENDBRANCH   6   7
ENDBRANCH   5   6
ENDBRANCH   4   5
ENDBRANCH   1   4
BRANCH   1  13
ATOM     13  C   UNL     1      32.770 -14.555 -22.664  0.00  0.00    -0.046 C 
BRANCH  13  14
ATOM     14  C   UNL     1      33.103 -13.763 -23.895  0.00  0.00    -0.043 C 
ATOM     15  C   UNL     1      33.625 -12.481 -23.769  0.00  0.00    -0.006 C 
ATOM     16  C   UNL     1      32.884 -14.319 -25.151  0.00  0.00    -0.006 C 
ATOM     17  C   UNL     1      33.936 -11.746 -24.914  0.00  0.00    -0.000 C 
ATOM     18  C   UNL     1      33.194 -13.584 -26.295  0.00  0.00    -0.000 C 
ATOM     19  C   UNL     1      33.720 -12.297 -26.177  0.00  0.00    -0.000 C 
ENDBRANCH  13  14
ENDBRANCH   1  13
TORSDOF 6
ENDMDL
MODEL 6
REMARK VINA RESULT:      -8.0      5.500      8.741
REMARK  Name = 19667
REMARK  6 active torsions:
REMARK  status: ('A' for Active; 'I' for Inactive)
REMARK    1  A    between atoms: N_1  and  C_4
REMARK    2  A    between atoms: N_1  and  C_13
REMARK    3  A    between atoms: C_4  and  C_5
REMARK    4  A    between atoms: C_5  and  O_6
REMARK    5  A    between atoms: O_6  and  C_7
REMARK    6  A    between atoms: C_13  and  C_14
REMARK                            x       y       z     vdW  Elec       q    Type
REMARK                         _______ _______ _______ _____ _____    ______ ____
ROOT
ATOM      1  N   UNL     1      35.071 -18.171 -23.133  0.00  0.00    +0.392 N 
ATOM      2  C   UNL     1      34.654 -19.434 -23.870  0.00  0.00    -0.095 C 
ATOM      3  C   UNL     1      36.550 -18.253 -22.780  0.00  0.00    -0.095 C 
ENDROOT
BRANCH   1   4
ATOM      4  C   UNL     1      34.831 -16.960 -24.023  0.00  0.00    -0.025 C 
BRANCH   4   5
ATOM      5  C   UNL     1      34.641 -15.731 -23.156  0.00  0.00    +0.183 C 
BRANCH   5   6
ATOM      6  O   UNL     1      33.409 -15.102 -23.486  0.00  0.00    -0.478 OA
BRANCH   6   7
ATOM      7  C   UNL     1      32.893 -14.231 -22.562  0.00  0.00    +0.138 C 
ATOM      8  C   UNL     1      32.332 -13.032 -22.985  0.00  0.00    +0.037 C 
ATOM      9  C   UNL     1      32.938 -14.556 -21.211  0.00  0.00    +0.037 C 
ATOM     10  C   UNL     1      31.808 -12.146 -22.044  0.00  0.00    +0.003 C 
ATOM     11  C   UNL     1      32.415 -13.670 -20.270  0.00  0.00    +0.003 C 
ATOM     12  C   UNL     1      31.849 -12.463 -20.687  0.00  0.00    +0.000 C 
ENDBRANCH   6   7
ENDBRANCH   5   6
ENDBRANCH   4   5
ENDBRANCH   1   4
BRANCH   1  13
ATOM     13  C   UNL     1      34.254 -18.034 -21.857  0.00  0.00    -0.046 C 
BRANCH  13  14
ATOM     14  C   UNL     1      34.237 -19.288 -21.033  0.00  0.00    -0.043 C 
ATOM     15  C   UNL     1      35.436 -19.852 -20.613  0.00  0.00    -0.006 C 
ATOM     16  C   UNL     1      33.022 -19.875 -20.697  0.00  0.00    -0.006 C 
ATOM     17  C   UNL     1      35.421 -21.017 -19.846  0.00  0.00    -0.000 C 
ATOM     18  C   UNL     1      33.006 -21.040 -19.930  0.00  0.00    -0.000 C 
ATOM     19  C   UNL     1      34.206 -21.611 -19.505  0.00  0.00    -0.000 C 
ENDBRANCH  13  14
ENDBRANCH   1  13
TORSDOF 6
ENDMDL
MODEL 7
REMARK VINA RESULT:      -8.0      5.922     10.573
REMARK  Name = 19667
REMARK  6 active torsions:
REMARK  status: ('A' for Active; 'I' for Inactive)
REMARK    1  A    between atoms: N_1  and  C_4
REMARK    2  A    between atoms: N_1  and  C_13
REMARK    3  A    between atoms: C_4  and  C_5
REMARK    4  A    between atoms: C_5  and  O_6
REMARK    5  A    between atoms: O_6  and  C_7
REMARK    6  A    between atoms: C_13  and  C_14
REMARK                            x       y       z     vdW  Elec       q    Type
REMARK                         _______ _______ _______ _____ _____    ______ ____
ROOT
ATOM      1  N   UNL     1      33.834 -15.394 -21.951  0.00  0.00    +0.392 N 
ATOM      2  C   UNL     1      32.805 -15.983 -20.997  0.00  0.00    -0.095 C 
ATOM      3  C   UNL     1      34.585 -14.267 -21.256  0.00  0.00    -0.095 C 
ENDROOT
BRANCH   1   4
ATOM      4  C   UNL     1      34.819 -16.476 -22.369  0.00  0.00    -0.025 C 
BRANCH   4   5
ATOM      5  C   UNL     1      35.140 -17.349 -21.172  0.00  0.00    +0.183 C 
BRANCH   5   6
ATOM      6  O   UNL     1      35.441 -18.668 -21.612  0.00  0.00    -0.478 OA
BRANCH   6   7
ATOM      7  C   UNL     1      34.927 -19.699 -20.870  0.00  0.00    +0.138 C 
ATOM      8  C   UNL     1      33.549 -19.851 -20.766  0.00  0.00    +0.037 C 
ATOM      9  C   UNL     1      35.788 -20.581 -20.228  0.00  0.00    +0.037 C 
ATOM     10  C   UNL     1      33.026 -20.899 -20.010  0.00  0.00    +0.003 C 
ATOM     11  C   UNL     1      35.265 -21.629 -19.472  0.00  0.00    +0.003 C 
ATOM     12  C   UNL     1      33.882 -21.789 -19.363  0.00  0.00    +0.000 C 
ENDBRANCH   6   7
ENDBRANCH   5   6
ENDBRANCH   4   5
ENDBRANCH   1   4
BRANCH   1  13
ATOM     13  C   UNL     1      33.128 -14.846 -23.183  0.00  0.00    -0.046 C 
BRANCH  13  14
ATOM     14  C   UNL     1      32.985 -13.353 -23.162  0.00  0.00    -0.043 C 
ATOM     15  C   UNL     1      32.087 -12.758 -22.284  0.00  0.00    -0.006 C 
ATOM     16  C   UNL     1      33.753 -12.576 -24.024  0.00  0.00    -0.006 C 
ATOM     17  C   UNL     1      31.954 -11.369 -22.264  0.00  0.00    -0.000 C 
ATOM     18  C   UNL     1      33.621 -11.188 -24.005  0.00  0.00    -0.000 C 
ATOM     19  C   UNL     1      32.722 -10.584 -23.125  0.00  0.00    -0.000 C 
ENDBRANCH  13  14
ENDBRANCH   1  13
TORSDOF 6
ENDMDL
MODEL 8
REMARK VINA RESULT:      -8.0      2.000      4.535
REMARK  Name = 19667
REMARK  6 active torsions:
REMARK  status: ('A' for Active; 'I' for Inactive)
REMARK    1  A    between atoms: N_1  and  C_4
REMARK    2  A    between atoms: N_1  and  C_13
REMARK    3  A    between atoms: C_4  and  C_5
REMARK    4  A    between atoms: C_5  and  O_6
REMARK    5  A    between atoms: O_6  and  C_7
REMARK    6  A    between atoms: C_13  and  C_14
REMARK                            x       y       z     vdW  Elec       q    Type
REMARK                         _______ _______ _______ _____ _____    ______ ____
ROOT
ATOM      1  N   UNL     1      34.955 -23.988 -14.620  0.00  0.00    +0.392 N 
ATOM      2  C   UNL     1      34.085 -24.161 -13.384  0.00  0.00    -0.095 C 
ATOM      3  C   UNL     1      35.363 -25.355 -15.150  0.00  0.00    -0.095 C 
ENDROOT
BRANCH   1   4
ATOM      4  C   UNL     1      34.173 -23.242 -15.692  0.00  0.00    -0.025 C 
BRANCH   4   5
ATOM      5  C   UNL     1      35.128 -22.764 -16.767  0.00  0.00    +0.183 C 
BRANCH   5   6
ATOM      6  O   UNL     1      34.588 -23.059 -18.049  0.00  0.00    -0.478 OA
BRANCH   6   7
ATOM      7  C   UNL     1      34.550 -22.031 -18.955  0.00  0.00    +0.138 C 
ATOM      8  C   UNL     1      35.738 -21.525 -19.470  0.00  0.00    +0.037 C 
ATOM      9  C   UNL     1      33.325 -21.506 -19.348  0.00  0.00    +0.037 C 
ATOM     10  C   UNL     1      35.699 -20.478 -20.391  0.00  0.00    +0.003 C 
ATOM     11  C   UNL     1      33.287 -20.459 -20.269  0.00  0.00    +0.003 C 
ATOM     12  C   UNL     1      34.474 -19.945 -20.791  0.00  0.00    +0.000 C 
ENDBRANCH   6   7
ENDBRANCH   5   6
ENDBRANCH   4   5
ENDBRANCH   1   4
BRANCH   1  13
ATOM     13  C   UNL     1      36.201 -23.194 -14.256  0.00  0.00    -0.046 C 
BRANCH  13  14
ATOM     14  C   UNL     1      37.419 -24.055 -14.090  0.00  0.00    -0.043 C 
ATOM     15  C   UNL     1      38.336 -24.158 -15.129  0.00  0.00    -0.006 C 
ATOM     16  C   UNL     1      37.618 -24.744 -12.898  0.00  0.00    -0.006 C 
ATOM     17  C   UNL     1      39.469 -24.958 -14.974  0.00  0.00    -0.000 C 
ATOM     18  C   UNL     1      38.749 -25.544 -12.743  0.00  0.00    -0.000 C 
ATOM     19  C   UNL     1      39.675 -25.651 -13.781  0.00  0.00    -0.000 C 
ENDBRANCH  13  14
ENDBRANCH   1  13
TORSDOF 6
ENDMDL
MODEL 9
REMARK VINA RESULT:      -8.0      5.192     10.226
REMARK  Name = 19667
REMARK  6 active torsions:
REMARK  status: ('A' for Active; 'I' for Inactive)
REMARK    1  A    between atoms: N_1  and  C_4
REMARK    2  A    between atoms: N_1  and  C_13
REMARK    3  A    between atoms: C_4  and  C_5
REMARK    4  A    between atoms: C_5  and  O_6
REMARK    5  A    between atoms: O_6  and  C_7
REMARK    6  A    between atoms: C_13  and  C_14
REMARK                            x       y       z     vdW  Elec       q    Type
REMARK                         _______ _______ _______ _____ _____    ______ ____
ROOT
ATOM      1  N   UNL     1      33.934 -15.671 -21.571  0.00  0.00    +0.392 N 
ATOM      2  C   UNL     1      32.570 -15.087 -21.907  0.00  0.00    -0.095 C 
ATOM      3  C   UNL     1      34.622 -14.791 -20.537  0.00  0.00    -0.095 C 
ENDROOT
BRANCH   1   4
ATOM      4  C   UNL     1      33.761 -17.074 -21.007  0.00  0.00    -0.025 C 
BRANCH   4   5
ATOM      5  C   UNL     1      34.997 -17.895 -21.319  0.00  0.00    +0.183 C 
BRANCH   5   6
ATOM      6  O   UNL     1      34.611 -19.204 -21.716  0.00  0.00    -0.478 OA
BRANCH   6   7
ATOM      7  C   UNL     1      34.624 -20.173 -20.747  0.00  0.00    +0.138 C 
ATOM      8  C   UNL     1      33.423 -20.689 -20.274  0.00  0.00    +0.037 C 
ATOM      9  C   UNL     1      35.838 -20.627 -20.245  0.00  0.00    +0.037 C 
ATOM     10  C   UNL     1      33.437 -21.674 -19.287  0.00  0.00    +0.003 C 
ATOM     11  C   UNL     1      35.852 -21.612 -19.258  0.00  0.00    +0.003 C 
ATOM     12  C   UNL     1      34.650 -22.136 -18.778  0.00  0.00    +0.000 C 
ENDBRANCH   6   7
ENDBRANCH   5   6
ENDBRANCH   4   5
ENDBRANCH   1   4
BRANCH   1  13
ATOM     13  C   UNL     1      34.785 -15.731 -22.831  0.00  0.00    -0.046 C 
BRANCH  13  14
ATOM     14  C   UNL     1      34.152 -15.035 -24.000  0.00  0.00    -0.043 C 
ATOM     15  C   UNL     1      33.996 -13.654 -23.978  0.00  0.00    -0.006 C 
ATOM     16  C   UNL     1      33.726 -15.779 -25.095  0.00  0.00    -0.006 C 
ATOM     17  C   UNL     1      33.408 -13.007 -25.066  0.00  0.00    -0.000 C 
ATOM     18  C   UNL     1      33.138 -15.133 -26.183  0.00  0.00    -0.000 C 
ATOM     19  C   UNL     1      32.979 -13.746 -26.168  0.00  0.00    -0.000 C 
ENDBRANCH  13  14
ENDBRANCH   1  13
TORSDOF 6
ENDMDL
