MODEL 1
REMARK VINA RESULT:     -10.8      0.000      0.000
REMARK  Name = 52918384
REMARK  7 active torsions:
REMARK  status: ('A' for Active; 'I' for Inactive)
REMARK    1  A    between atoms: N_1  and  N_23
REMARK    2  A    between atoms: C_24  and  C_26
REMARK    3  A    between atoms: C_26  and  C_27
REMARK    4  A    between atoms: C_26  and  C_33
REMARK    5  A    between atoms: C_27  and  C_28
REMARK    6  A    between atoms: C_33  and  N_35
REMARK    7  A    between atoms: N_35  and  O_37
REMARK                            x       y       z     vdW  Elec       q    Type
REMARK                         _______ _______ _______ _____ _____    ______ ____
ROOT
ATOM      1  N   UNL     1      32.437 -21.546 -18.985  0.00  0.00    -0.238 N 
ATOM      2  H   UNL     1      31.536 -21.301 -19.296  0.00  0.00    +0.172 HD
ATOM      3  F   UNL     1      32.209 -19.350 -20.625  0.00  0.00    -0.219 F 
ATOM      4  O   UNL     1      32.389 -13.968 -22.938  0.00  0.00    -0.358 OA
ATOM      5  N   UNL     1      34.368 -15.945 -23.473  0.00  0.00    +0.394 N 
ATOM      6  N   UNL     1      34.425 -18.285 -21.839  0.00  0.00    -0.288 N 
ATOM      7  N   UNL     1      35.784 -19.931 -20.822  0.00  0.00    -0.330 NA
ATOM      8  N   UNL     1      34.784 -21.582 -19.379  0.00  0.00    -0.329 NA
ATOM      9  C   UNL     1      33.339 -16.152 -22.437  0.00  0.00    -0.008 C 
ATOM     10  C   UNL     1      33.878 -17.035 -21.300  0.00  0.00    +0.075 C 
ATOM     11  C   UNL     1      34.791 -17.232 -24.034  0.00  0.00    -0.055 C 
ATOM     12  C   UNL     1      35.376 -18.137 -22.948  0.00  0.00    +0.070 C 
ATOM     13  C   UNL     1      32.887 -14.795 -21.885  0.00  0.00    +0.123 C 
ATOM     14  C   UNL     1      33.855 -15.061 -24.529  0.00  0.00    -0.044 C 
ATOM     15  C   UNL     1      33.398 -13.739 -23.922  0.00  0.00    +0.119 C 
ATOM     16  C   UNL     1      34.558 -19.402 -21.006  0.00  0.00    +0.213 C 
ATOM     17  C   UNL     1      33.412 -19.899 -20.420  0.00  0.00    +0.295 C 
ATOM     18  C   UNL     1      33.587 -21.001 -19.608  0.00  0.00    +0.226 C 
ATOM     19  C   UNL     1      35.825 -21.004 -20.009  0.00  0.00    +0.117 C 
ATOM     20  C   UNL     1      37.165 -21.616 -19.780  0.00  0.00    +0.143 C 
ATOM     21  H   UNL     1      35.179 -15.498 -23.046  0.00  0.00    -0.079 HD
ENDROOT
BRANCH   1  23
ATOM     22  O   UNL     1      30.458 -22.017 -17.157  0.00  0.00    -0.274 OA
ATOM     23  N   UNL     1      32.601 -22.410 -17.953  0.00  0.00    -0.234 N 
ATOM     24  C   UNL     1      31.545 -22.586 -17.076  0.00  0.00    +0.239 C 
ATOM     25  H   UNL     1      33.448 -22.898 -17.830  0.00  0.00    +0.173 HD
BRANCH  24  26
ATOM     26  C   UNL     1      31.871 -23.603 -15.979  0.00  0.00    +0.100 C 
BRANCH  26  27
ATOM     27  C   UNL     1      33.353 -24.016 -15.987  0.00  0.00    +0.011 C 
BRANCH  27  28
ATOM     28  C   UNL     1      34.104 -23.497 -14.774  0.00  0.00    +0.001 C 
ATOM     29  C   UNL     1      33.861 -24.327 -13.516  0.00  0.00    +0.000 C 
ATOM     30  C   UNL     1      35.620 -23.574 -14.926  0.00  0.00    +0.000 C 
ATOM     31  C   UNL     1      36.140 -23.448 -13.497  0.00  0.00    +0.000 C 
ATOM     32  C   UNL     1      35.012 -23.944 -12.590  0.00  0.00    +0.000 C 
ENDBRANCH  27  28
ENDBRANCH  26  27
BRANCH  26  33
ATOM     33  C   UNL     1      30.948 -24.825 -16.110  0.00  0.00    +0.133 C 
BRANCH  33  35
ATOM     34  O   UNL     1      28.170 -24.148 -16.529  0.00  0.00    -0.263 OA
ATOM     35  N   UNL     1      29.888 -24.841 -15.138  0.00  0.00    -0.164 N 
ATOM     36  C   UNL     1      28.600 -24.502 -15.437  0.00  0.00    +0.327 C 
BRANCH  35  37
ATOM     37  O   UNL     1      30.295 -25.238 -13.855  0.00  0.00    -0.291 OA
ATOM     38  H   UNL     1      30.856 -26.026 -13.924  0.00  0.00    +0.242 HD
ENDBRANCH  35  37
ENDBRANCH  33  35
ENDBRANCH  26  33
ENDBRANCH  24  26
ENDBRANCH   1  23
TORSDOF 7
ENDMDL
MODEL 2
REMARK VINA RESULT:     -10.1      1.718      3.209
REMARK  Name = 52918384
REMARK  7 active torsions:
REMARK  status: ('A' for Active; 'I' for Inactive)
REMARK    1  A    between atoms: N_1  and  N_23
REMARK    2  A    between atoms: C_24  and  C_26
REMARK    3  A    between atoms: C_26  and  C_27
REMARK    4  A    between atoms: C_26  and  C_33
REMARK    5  A    between atoms: C_27  and  C_28
REMARK    6  A    between atoms: C_33  and  N_35
REMARK    7  A    between atoms: N_35  and  O_37
REMARK                            x       y       z     vdW  Elec       q    Type
REMARK                         _______ _______ _______ _____ _____    ______ ____
ROOT
ATOM      1  N   UNL     1      32.773 -21.278 -19.361  0.00  0.00    -0.238 N 
ATOM      2  H   UNL     1      31.844 -21.073 -19.613  0.00  0.00    +0.172 HD
ATOM      3  F   UNL     1      32.317 -18.948 -20.749  0.00  0.00    -0.219 F 
ATOM      4  O   UNL     1      32.009 -13.358 -22.482  0.00  0.00    -0.358 OA
ATOM      5  N   UNL     1      34.102 -15.112 -23.290  0.00  0.00    +0.394 N 
ATOM      6  N   UNL     1      34.397 -17.597 -21.918  0.00  0.00    -0.288 N 
ATOM      7  N   UNL     1      35.914 -19.230 -21.128  0.00  0.00    -0.330 NA
ATOM      8  N   UNL     1      35.097 -21.093 -19.835  0.00  0.00    -0.329 NA
ATOM      9  C   UNL     1      33.135 -15.504 -22.248  0.00  0.00    -0.008 C 
ATOM     10  C   UNL     1      33.784 -16.455 -21.231  0.00  0.00    +0.075 C 
ATOM     11  C   UNL     1      34.594 -16.297 -24.000  0.00  0.00    -0.055 C 
ATOM     12  C   UNL     1      35.288 -17.263 -23.036  0.00  0.00    +0.070 C 
ATOM     13  C   UNL     1      32.609 -14.249 -21.540  0.00  0.00    +0.123 C 
ATOM     14  C   UNL     1      33.482 -14.165 -24.229  0.00  0.00    -0.044 C 
ATOM     15  C   UNL     1      32.957 -12.952 -23.469  0.00  0.00    +0.119 C 
ATOM     16  C   UNL     1      34.646 -18.780 -21.213  0.00  0.00    +0.213 C 
ATOM     17  C   UNL     1      33.565 -19.422 -20.644  0.00  0.00    +0.295 C 
ATOM     18  C   UNL     1      33.853 -20.585 -19.961  0.00  0.00    +0.226 C 
ATOM     19  C   UNL     1      36.067 -20.375 -20.435  0.00  0.00    +0.117 C 
ATOM     20  C   UNL     1      37.456 -20.903 -20.318  0.00  0.00    +0.143 C 
ATOM     21  H   UNL     1      34.896 -14.651 -22.846  0.00  0.00    -0.079 HD
ENDROOT
BRANCH   1  23
ATOM     22  O   UNL     1      30.970 -21.969 -17.423  0.00  0.00    -0.274 OA
ATOM     23  N   UNL     1      33.042 -22.230 -18.432  0.00  0.00    -0.234 N 
ATOM     24  C   UNL     1      32.070 -22.514 -17.490  0.00  0.00    +0.239 C 
ATOM     25  H   UNL     1      33.905 -22.704 -18.429  0.00  0.00    +0.173 HD
BRANCH  24  26
ATOM     26  C   UNL     1      32.509 -23.619 -16.525  0.00  0.00    +0.100 C 
BRANCH  26  27
ATOM     27  C   UNL     1      32.221 -23.260 -15.057  0.00  0.00    +0.011 C 
BRANCH  27  28
ATOM     28  C   UNL     1      30.895 -23.820 -14.574  0.00  0.00    +0.001 C 
ATOM     29  C   UNL     1      29.702 -22.939 -14.933  0.00  0.00    +0.000 C 
ATOM     30  C   UNL     1      30.527 -25.147 -15.231  0.00  0.00    +0.000 C 
ATOM     31  C   UNL     1      29.032 -25.287 -14.967  0.00  0.00    +0.000 C 
ATOM     32  C   UNL     1      28.498 -23.865 -14.786  0.00  0.00    +0.000 C 
ENDBRANCH  27  28
ENDBRANCH  26  27
BRANCH  26  33
ATOM     33  C   UNL     1      33.995 -23.942 -16.742  0.00  0.00    +0.133 C 
BRANCH  33  35
ATOM     34  O   UNL     1      35.549 -26.026 -15.479  0.00  0.00    -0.263 OA
ATOM     35  N   UNL     1      34.778 -23.842 -15.540  0.00  0.00    -0.164 N 
ATOM     36  C   UNL     1      35.481 -24.890 -15.021  0.00  0.00    +0.327 C 
BRANCH  35  37
ATOM     37  O   UNL     1      34.756 -22.570 -14.948  0.00  0.00    -0.291 OA
ATOM     38  H   UNL     1      34.452 -22.646 -14.029  0.00  0.00    +0.242 HD
ENDBRANCH  35  37
ENDBRANCH  33  35
ENDBRANCH  26  33
ENDBRANCH  24  26
ENDBRANCH   1  23
TORSDOF 7
ENDMDL
MODEL 3
REMARK VINA RESULT:      -9.9      6.272     14.045
REMARK  Name = 52918384
REMARK  7 active torsions:
REMARK  status: ('A' for Active; 'I' for Inactive)
REMARK    1  A    between atoms: N_1  and  N_23
REMARK    2  A    between atoms: C_24  and  C_26
REMARK    3  A    between atoms: C_26  and  C_27
REMARK    4  A    between atoms: C_26  and  C_33
REMARK    5  A    between atoms: C_27  and  C_28
REMARK    6  A    between atoms: C_33  and  N_35
REMARK    7  A    between atoms: N_35  and  O_37
REMARK                            x       y       z     vdW  Elec       q    Type
REMARK                         _______ _______ _______ _____ _____    ______ ____
ROOT
ATOM      1  N   UNL     1      32.571 -11.026 -23.845  0.00  0.00    -0.238 N 
ATOM      2  H   UNL     1      32.703 -11.503 -24.696  0.00  0.00    +0.172 HD
ATOM      3  F   UNL     1      33.247 -13.689 -23.721  0.00  0.00    -0.219 F 
ATOM      4  O   UNL     1      35.860 -18.822 -22.642  0.00  0.00    -0.358 OA
ATOM      5  N   UNL     1      33.709 -17.823 -21.066  0.00  0.00    +0.394 N 
ATOM      6  N   UNL     1      32.946 -15.091 -21.385  0.00  0.00    -0.288 N 
ATOM      7  N   UNL     1      32.120 -13.151 -20.315  0.00  0.00    -0.330 NA
ATOM      8  N   UNL     1      31.929 -11.093 -21.555  0.00  0.00    -0.329 NA
ATOM      9  C   UNL     1      34.364 -16.984 -22.087  0.00  0.00    -0.008 C 
ATOM     10  C   UNL     1      34.322 -15.502 -21.683  0.00  0.00    +0.075 C 
ATOM     11  C   UNL     1      32.310 -17.419 -20.896  0.00  0.00    -0.055 C 
ATOM     12  C   UNL     1      32.213 -15.957 -20.454  0.00  0.00    +0.070 C 
ATOM     13  C   UNL     1      35.816 -17.443 -22.271  0.00  0.00    +0.123 C 
ATOM     14  C   UNL     1      33.798 -19.242 -21.441  0.00  0.00    -0.044 C 
ATOM     15  C   UNL     1      35.258 -19.636 -21.636  0.00  0.00    +0.119 C 
ATOM     16  C   UNL     1      32.600 -13.736 -21.431  0.00  0.00    +0.213 C 
ATOM     17  C   UNL     1      32.769 -13.076 -22.631  0.00  0.00    +0.295 C 
ATOM     18  C   UNL     1      32.414 -11.743 -22.634  0.00  0.00    +0.226 C 
ATOM     19  C   UNL     1      31.809 -11.847 -20.445  0.00  0.00    +0.117 C 
ATOM     20  C   UNL     1      31.277 -11.165 -19.231  0.00  0.00    +0.143 C 
ATOM     21  H   UNL     1      34.191 -17.696 -20.176  0.00  0.00    -0.079 HD
ENDROOT
BRANCH   1  23
ATOM     22  O   UNL     1      34.850  -9.513 -23.883  0.00  0.00    -0.274 OA
ATOM     23  N   UNL     1      32.537  -9.670 -23.811  0.00  0.00    -0.234 N 
ATOM     24  C   UNL     1      33.740  -8.987 -23.834  0.00  0.00    +0.239 C 
ATOM     25  H   UNL     1      31.680  -9.186 -23.771  0.00  0.00    +0.173 HD
BRANCH  24  26
ATOM     26  C   UNL     1      33.541  -7.469 -23.811  0.00  0.00    +0.100 C 
BRANCH  26  27
ATOM     27  C   UNL     1      34.593  -6.731 -24.657  0.00  0.00    +0.011 C 
BRANCH  27  28
ATOM     28  C   UNL     1      33.994  -6.097 -25.900  0.00  0.00    +0.001 C 
ATOM     29  C   UNL     1      32.858  -5.126 -25.593  0.00  0.00    +0.000 C 
ATOM     30  C   UNL     1      34.980  -5.214 -26.660  0.00  0.00    +0.000 C 
ATOM     31  C   UNL     1      34.091  -4.358 -27.556  0.00  0.00    +0.000 C 
ATOM     32  C   UNL     1      32.728  -4.291 -26.864  0.00  0.00    +0.000 C 
ENDBRANCH  27  28
ENDBRANCH  26  27
BRANCH  26  33
ATOM     33  C   UNL     1      33.534  -6.966 -22.359  0.00  0.00    +0.133 C 
BRANCH  33  35
ATOM     34  O   UNL     1      32.948  -7.075 -19.531  0.00  0.00    -0.263 OA
ATOM     35  N   UNL     1      32.240  -7.048 -21.737  0.00  0.00    -0.164 N 
ATOM     36  C   UNL     1      32.067  -7.094 -20.384  0.00  0.00    +0.327 C 
BRANCH  35  37
ATOM     37  O   UNL     1      31.170  -7.075 -22.645  0.00  0.00    -0.291 OA
ATOM     38  H   UNL     1      31.182  -7.913 -23.133  0.00  0.00    +0.242 HD
ENDBRANCH  35  37
ENDBRANCH  33  35
ENDBRANCH  26  33
ENDBRANCH  24  26
ENDBRANCH   1  23
TORSDOF 7
ENDMDL
MODEL 4
REMARK VINA RESULT:      -9.8      5.714      9.314
REMARK  Name = 52918384
REMARK  7 active torsions:
REMARK  status: ('A' for Active; 'I' for Inactive)
REMARK    1  A    between atoms: N_1  and  N_23
REMARK    2  A    between atoms: C_24  and  C_26
REMARK    3  A    between atoms: C_26  and  C_27
REMARK    4  A    between atoms: C_26  and  C_33
REMARK    5  A    between atoms: C_27  and  C_28
REMARK    6  A    between atoms: C_33  and  N_35
REMARK    7  A    between atoms: N_35  and  O_37
REMARK                            x       y       z     vdW  Elec       q    Type
REMARK                         _______ _______ _______ _____ _____    ______ ____
ROOT
ATOM      1  N   UNL     1      32.672 -14.535 -22.284  0.00  0.00    -0.238 N 
ATOM      2  H   UNL     1      32.125 -14.428 -21.472  0.00  0.00    +0.172 HD
ATOM      3  F   UNL     1      32.035 -11.975 -21.504  0.00  0.00    -0.219 F 
ATOM      4  O   UNL     1      32.196  -6.364 -19.824  0.00  0.00    -0.358 OA
ATOM      5  N   UNL     1      31.854  -7.153 -22.539  0.00  0.00    +0.394 N 
ATOM      6  N   UNL     1      32.360  -9.874 -23.235  0.00  0.00    -0.288 N 
ATOM      7  N   UNL     1      33.164 -11.354 -24.896  0.00  0.00    -0.330 NA
ATOM      8  N   UNL     1      33.323 -13.711 -24.419  0.00  0.00    -0.329 NA
ATOM      9  C   UNL     1      32.200  -8.134 -21.494  0.00  0.00    -0.008 C 
ATOM     10  C   UNL     1      33.040  -9.281 -22.079  0.00  0.00    +0.075 C 
ATOM     11  C   UNL     1      31.090  -7.798 -23.611  0.00  0.00    -0.055 C 
ATOM     12  C   UNL     1      31.900  -8.926 -24.257  0.00  0.00    +0.070 C 
ATOM     13  C   UNL     1      32.970  -7.434 -20.368  0.00  0.00    +0.123 C 
ATOM     14  C   UNL     1      31.093  -6.038 -21.957  0.00  0.00    -0.044 C 
ATOM     15  C   UNL     1      31.893  -5.396 -20.829  0.00  0.00    +0.119 C 
ATOM     16  C   UNL     1      32.691 -11.170 -23.646  0.00  0.00    +0.213 C 
ATOM     17  C   UNL     1      32.508 -12.193 -22.738  0.00  0.00    +0.295 C 
ATOM     18  C   UNL     1      32.844 -13.455 -23.183  0.00  0.00    +0.226 C 
ATOM     19  C   UNL     1      33.456 -12.630 -25.212  0.00  0.00    +0.117 C 
ATOM     20  C   UNL     1      33.983 -12.872 -26.585  0.00  0.00    +0.143 C 
ATOM     21  H   UNL     1      32.716  -6.780 -22.937  0.00  0.00    -0.079 HD
ENDROOT
BRANCH   1  23
ATOM     22  O   UNL     1      34.393 -15.736 -20.530  0.00  0.00    -0.274 OA
ATOM     23  N   UNL     1      33.274 -15.718 -22.561  0.00  0.00    -0.234 N 
ATOM     24  C   UNL     1      34.130 -16.252 -21.614  0.00  0.00    +0.239 C 
ATOM     25  H   UNL     1      33.106 -16.185 -23.412  0.00  0.00    +0.173 HD
BRANCH  24  26
ATOM     26  C   UNL     1      34.715 -17.595 -22.058  0.00  0.00    +0.100 C 
BRANCH  26  27
ATOM     27  C   UNL     1      35.674 -18.188 -21.011  0.00  0.00    +0.011 C 
BRANCH  27  28
ATOM     28  C   UNL     1      35.510 -19.690 -20.862  0.00  0.00    +0.001 C 
ATOM     29  C   UNL     1      36.483 -20.305 -19.860  0.00  0.00    +0.000 C 
ATOM     30  C   UNL     1      34.155 -20.093 -20.287  0.00  0.00    +0.000 C 
ATOM     31  C   UNL     1      34.369 -21.526 -19.812  0.00  0.00    +0.000 C 
ATOM     32  C   UNL     1      35.866 -21.660 -19.526  0.00  0.00    +0.000 C 
ENDBRANCH  27  28
ENDBRANCH  26  27
BRANCH  26  33
ATOM     33  C   UNL     1      35.402 -17.439 -23.423  0.00  0.00    +0.133 C 
BRANCH  33  35
ATOM     34  O   UNL     1      33.921 -16.490 -25.716  0.00  0.00    -0.263 OA
ATOM     35  N   UNL     1      34.792 -18.230 -24.458  0.00  0.00    -0.164 N 
ATOM     36  C   UNL     1      34.110 -17.683 -25.507  0.00  0.00    +0.327 C 
BRANCH  35  37
ATOM     37  O   UNL     1      34.961 -19.613 -24.296  0.00  0.00    -0.291 OA
ATOM     38  H   UNL     1      34.737 -19.861 -23.385  0.00  0.00    +0.242 HD
ENDBRANCH  35  37
ENDBRANCH  33  35
ENDBRANCH  26  33
ENDBRANCH  24  26
ENDBRANCH   1  23
TORSDOF 7
ENDMDL
MODEL 5
REMARK VINA RESULT:      -9.4      6.662     10.809
REMARK  Name = 52918384
REMARK  7 active torsions:
REMARK  status: ('A' for Active; 'I' for Inactive)
REMARK    1  A    between atoms: N_1  and  N_23
REMARK    2  A    between atoms: C_24  and  C_26
REMARK    3  A    between atoms: C_26  and  C_27
REMARK    4  A    between atoms: C_26  and  C_33
REMARK    5  A    between atoms: C_27  and  C_28
REMARK    6  A    between atoms: C_33  and  N_35
REMARK    7  A    between atoms: N_35  and  O_37
REMARK                            x       y       z     vdW  Elec       q    Type
REMARK                         _______ _______ _______ _____ _____    ______ ____
ROOT
ATOM      1  N   UNL     1      33.596 -12.281 -23.960  0.00  0.00    -0.238 N 
ATOM      2  H   UNL     1      34.164 -11.853 -24.640  0.00  0.00    +0.172 HD
ATOM      3  F   UNL     1      33.291  -9.577 -24.354  0.00  0.00    -0.219 F 
ATOM      4  O   UNL     1      31.199  -4.221 -25.484  0.00  0.00    -0.358 OA
ATOM      5  N   UNL     1      31.444  -5.257 -22.842  0.00  0.00    +0.394 N 
ATOM      6  N   UNL     1      31.943  -8.048 -22.520  0.00  0.00    -0.288 N 
ATOM      7  N   UNL     1      31.556  -9.966 -21.191  0.00  0.00    -0.330 NA
ATOM      8  N   UNL     1      32.391 -12.108 -21.915  0.00  0.00    -0.329 NA
ATOM      9  C   UNL     1      31.653  -6.114 -24.024  0.00  0.00    -0.008 C 
ATOM     10  C   UNL     1      31.252  -7.567 -23.721  0.00  0.00    +0.075 C 
ATOM     11  C   UNL     1      32.244  -5.742 -21.713  0.00  0.00    -0.055 C 
ATOM     12  C   UNL     1      31.855  -7.175 -21.344  0.00  0.00    +0.070 C 
ATOM     13  C   UNL     1      30.833  -5.573 -25.201  0.00  0.00    +0.123 C 
ATOM     14  C   UNL     1      31.786  -3.862 -23.160  0.00  0.00    -0.044 C 
ATOM     15  C   UNL     1      30.962  -3.385 -24.351  0.00  0.00    +0.119 C 
ATOM     16  C   UNL     1      32.087  -9.424 -22.306  0.00  0.00    +0.213 C 
ATOM     17  C   UNL     1      32.775 -10.148 -23.258  0.00  0.00    +0.295 C 
ATOM     18  C   UNL     1      32.897 -11.499 -23.008  0.00  0.00    +0.226 C 
ATOM     19  C   UNL     1      31.742 -11.294 -21.060  0.00  0.00    +0.117 C 
ATOM     20  C   UNL     1      31.167 -11.929 -19.841  0.00  0.00    +0.143 C 
ATOM     21  H   UNL     1      30.460  -5.293 -22.579  0.00  0.00    -0.079 HD
ENDROOT
BRANCH   1  23
ATOM     22  O   UNL     1      34.992 -13.817 -22.178  0.00  0.00    -0.274 OA
ATOM     23  N   UNL     1      33.468 -13.631 -23.916  0.00  0.00    -0.234 N 
ATOM     24  C   UNL     1      34.214 -14.327 -22.982  0.00  0.00    +0.239 C 
ATOM     25  H   UNL     1      32.862 -14.102 -24.533  0.00  0.00    +0.173 HD
BRANCH  24  26
ATOM     26  C   UNL     1      33.949 -15.834 -23.039  0.00  0.00    +0.100 C 
BRANCH  26  27
ATOM     27  C   UNL     1      34.007 -16.489 -21.648  0.00  0.00    +0.011 C 
BRANCH  27  28
ATOM     28  C   UNL     1      34.436 -17.945 -21.712  0.00  0.00    +0.001 C 
ATOM     29  C   UNL     1      35.780 -18.206 -21.038  0.00  0.00    +0.000 C 
ATOM     30  C   UNL     1      33.503 -18.881 -20.950  0.00  0.00    +0.000 C 
ATOM     31  C   UNL     1      34.328 -20.150 -20.764  0.00  0.00    +0.000 C 
ATOM     32  C   UNL     1      35.793 -19.715 -20.809  0.00  0.00    +0.000 C 
ENDBRANCH  27  28
ENDBRANCH  26  27
BRANCH  26  33
ATOM     33  C   UNL     1      34.932 -16.500 -24.014  0.00  0.00    +0.133 C 
BRANCH  33  35
ATOM     34  O   UNL     1      34.561 -19.289 -24.675  0.00  0.00    -0.263 OA
ATOM     35  N   UNL     1      34.291 -17.044 -25.181  0.00  0.00    -0.164 N 
ATOM     36  C   UNL     1      34.165 -18.385 -25.403  0.00  0.00    +0.327 C 
BRANCH  35  37
ATOM     37  O   UNL     1      33.806 -16.074 -26.071  0.00  0.00    -0.291 OA
ATOM     38  H   UNL     1      32.868 -16.243 -26.253  0.00  0.00    +0.242 HD
ENDBRANCH  35  37
ENDBRANCH  33  35
ENDBRANCH  26  33
ENDBRANCH  24  26
ENDBRANCH   1  23
TORSDOF 7
ENDMDL
MODEL 6
REMARK VINA RESULT:      -9.3      5.778     13.876
REMARK  Name = 52918384
REMARK  7 active torsions:
REMARK  status: ('A' for Active; 'I' for Inactive)
REMARK    1  A    between atoms: N_1  and  N_23
REMARK    2  A    between atoms: C_24  and  C_26
REMARK    3  A    between atoms: C_26  and  C_27
REMARK    4  A    between atoms: C_26  and  C_33
REMARK    5  A    between atoms: C_27  and  C_28
REMARK    6  A    between atoms: C_33  and  N_35
REMARK    7  A    between atoms: N_35  and  O_37
REMARK                            x       y       z     vdW  Elec       q    Type
REMARK                         _______ _______ _______ _____ _____    ______ ____
ROOT
ATOM      1  N   UNL     1      34.172 -11.207 -23.632  0.00  0.00    -0.238 N 
ATOM      2  H   UNL     1      34.770 -11.253 -22.851  0.00  0.00    +0.172 HD
ATOM      3  F   UNL     1      34.726 -13.694 -22.597  0.00  0.00    -0.219 F 
ATOM      4  O   UNL     1      34.386 -19.054 -20.252  0.00  0.00    -0.358 OA
ATOM      5  N   UNL     1      34.573 -18.606 -23.058  0.00  0.00    +0.394 N 
ATOM      6  N   UNL     1      34.164 -15.957 -24.040  0.00  0.00    -0.288 N 
ATOM      7  N   UNL     1      33.324 -14.632 -25.809  0.00  0.00    -0.330 NA
ATOM      8  N   UNL     1      33.326 -12.230 -25.607  0.00  0.00    -0.329 NA
ATOM      9  C   UNL     1      34.357 -17.491 -22.117  0.00  0.00    -0.008 C 
ATOM     10  C   UNL     1      33.539 -16.370 -22.778  0.00  0.00    +0.075 C 
ATOM     11  C   UNL     1      35.291 -18.137 -24.247  0.00  0.00    -0.055 C 
ATOM     12  C   UNL     1      34.499 -17.043 -24.968  0.00  0.00    +0.070 C 
ATOM     13  C   UNL     1      33.633 -18.008 -20.868  0.00  0.00    +0.123 C 
ATOM     14  C   UNL     1      35.313 -19.691 -22.398  0.00  0.00    -0.044 C 
ATOM     15  C   UNL     1      34.563 -20.148 -21.152  0.00  0.00    +0.119 C 
ATOM     16  C   UNL     1      33.875 -14.699 -24.580  0.00  0.00    +0.213 C 
ATOM     17  C   UNL     1      34.177 -13.592 -23.814  0.00  0.00    +0.295 C 
ATOM     18  C   UNL     1      33.878 -12.372 -24.384  0.00  0.00    +0.226 C 
ATOM     19  C   UNL     1      33.079 -13.385 -26.255  0.00  0.00    +0.117 C 
ATOM     20  C   UNL     1      32.467 -13.271 -27.610  0.00  0.00    +0.143 C 
ATOM     21  H   UNL     1      33.666 -18.969 -23.352  0.00  0.00    -0.079 HD
ENDROOT
BRANCH   1  23
ATOM     22  O   UNL     1      32.273  -9.948 -22.120  0.00  0.00    -0.274 OA
ATOM     23  N   UNL     1      33.616 -10.029 -24.009  0.00  0.00    -0.234 N 
ATOM     24  C   UNL     1      32.663  -9.464 -23.181  0.00  0.00    +0.239 C 
ATOM     25  H   UNL     1      33.884  -9.588 -24.848  0.00  0.00    +0.173 HD
BRANCH  24  26
ATOM     26  C   UNL     1      32.143  -8.131 -23.726  0.00  0.00    +0.100 C 
BRANCH  26  27
ATOM     27  C   UNL     1      33.263  -7.086 -23.876  0.00  0.00    +0.011 C 
BRANCH  27  28
ATOM     28  C   UNL     1      33.248  -6.414 -25.238  0.00  0.00    +0.001 C 
ATOM     29  C   UNL     1      32.481  -5.095 -25.249  0.00  0.00    +0.000 C 
ATOM     30  C   UNL     1      34.634  -5.988 -25.714  0.00  0.00    +0.000 C 
ATOM     31  C   UNL     1      34.347  -4.977 -26.819  0.00  0.00    +0.000 C 
ATOM     32  C   UNL     1      32.967  -4.393 -26.513  0.00  0.00    +0.000 C 
ENDBRANCH  27  28
ENDBRANCH  26  27
BRANCH  26  33
ATOM     33  C   UNL     1      31.007  -7.610 -22.833  0.00  0.00    +0.133 C 
BRANCH  33  35
ATOM     34  O   UNL     1      30.288  -4.824 -22.553  0.00  0.00    -0.263 OA
ATOM     35  N   UNL     1      31.456  -6.688 -21.824  0.00  0.00    -0.164 N 
ATOM     36  C   UNL     1      31.056  -5.384 -21.778  0.00  0.00    +0.327 C 
BRANCH  35  37
ATOM     37  O   UNL     1      32.341  -7.249 -20.892  0.00  0.00    -0.291 OA
ATOM     38  H   UNL     1      32.244  -8.214 -20.893  0.00  0.00    +0.242 HD
ENDBRANCH  35  37
ENDBRANCH  33  35
ENDBRANCH  26  33
ENDBRANCH  24  26
ENDBRANCH   1  23
TORSDOF 7
ENDMDL
MODEL 7
REMARK VINA RESULT:      -9.2      3.752     10.461
REMARK  Name = 52918384
REMARK  7 active torsions:
REMARK  status: ('A' for Active; 'I' for Inactive)
REMARK    1  A    between atoms: N_1  and  N_23
REMARK    2  A    between atoms: C_24  and  C_26
REMARK    3  A    between atoms: C_26  and  C_27
REMARK    4  A    between atoms: C_26  and  C_33
REMARK    5  A    between atoms: C_27  and  C_28
REMARK    6  A    between atoms: C_33  and  N_35
REMARK    7  A    between atoms: N_35  and  O_37
REMARK                            x       y       z     vdW  Elec       q    Type
REMARK                         _______ _______ _______ _____ _____    ______ ____
ROOT
ATOM      1  N   UNL     1      35.997 -20.678 -19.680  0.00  0.00    -0.238 N 
ATOM      2  H   UNL     1      36.965 -20.845 -19.741  0.00  0.00    +0.172 HD
ATOM      3  F   UNL     1      37.150 -22.209 -17.708  0.00  0.00    -0.219 F 
ATOM      4  O   UNL     1      39.027 -24.384 -12.600  0.00  0.00    -0.358 OA
ATOM      5  N   UNL     1      36.629 -25.259 -13.863  0.00  0.00    +0.394 N 
ATOM      6  N   UNL     1      35.592 -23.712 -16.026  0.00  0.00    -0.288 N 
ATOM      7  N   UNL     1      33.646 -22.953 -17.134  0.00  0.00    -0.330 NA
ATOM      8  N   UNL     1      33.846 -21.418 -18.982  0.00  0.00    -0.329 NA
ATOM      9  C   UNL     1      37.373 -24.086 -14.360  0.00  0.00    -0.008 C 
ATOM     10  C   UNL     1      36.418 -23.066 -15.001  0.00  0.00    +0.075 C 
ATOM     11  C   UNL     1      35.910 -25.910 -14.962  0.00  0.00    -0.055 C 
ATOM     12  C   UNL     1      34.914 -24.946 -15.611  0.00  0.00    +0.070 C 
ATOM     13  C   UNL     1      38.142 -23.439 -13.203  0.00  0.00    +0.123 C 
ATOM     14  C   UNL     1      37.547 -26.203 -13.210  0.00  0.00    -0.044 C 
ATOM     15  C   UNL     1      38.302 -25.501 -12.087  0.00  0.00    +0.119 C 
ATOM     16  C   UNL     1      34.990 -22.937 -17.024  0.00  0.00    +0.213 C 
ATOM     17  C   UNL     1      35.818 -22.200 -17.844  0.00  0.00    +0.295 C 
ATOM     18  C   UNL     1      35.185 -21.451 -18.815  0.00  0.00    +0.226 C 
ATOM     19  C   UNL     1      33.147 -22.182 -18.120  0.00  0.00    +0.117 C 
ATOM     20  C   UNL     1      31.665 -22.171 -18.271  0.00  0.00    +0.143 C 
ATOM     21  H   UNL     1      35.946 -24.946 -13.172  0.00  0.00    -0.079 HD
ENDROOT
BRANCH   1  23
ATOM     22  O   UNL     1      37.460 -18.974 -21.241  0.00  0.00    -0.274 OA
ATOM     23  N   UNL     1      35.416 -19.704 -20.425  0.00  0.00    -0.234 N 
ATOM     24  C   UNL     1      36.235 -18.888 -21.184  0.00  0.00    +0.239 C 
ATOM     25  H   UNL     1      34.439 -19.581 -20.424  0.00  0.00    +0.173 HD
BRANCH  24  26
ATOM     26  C   UNL     1      35.437 -17.854 -21.983  0.00  0.00    +0.100 C 
BRANCH  26  27
ATOM     27  C   UNL     1      34.887 -16.727 -21.091  0.00  0.00    +0.011 C 
BRANCH  27  28
ATOM     28  C   UNL     1      33.862 -15.868 -21.812  0.00  0.00    +0.001 C 
ATOM     29  C   UNL     1      32.898 -15.159 -20.865  0.00  0.00    +0.000 C 
ATOM     30  C   UNL     1      34.484 -14.702 -22.575  0.00  0.00    +0.000 C 
ATOM     31  C   UNL     1      33.313 -13.758 -22.822  0.00  0.00    +0.000 C 
ATOM     32  C   UNL     1      32.297 -14.043 -21.714  0.00  0.00    +0.000 C 
ENDBRANCH  27  28
ENDBRANCH  26  27
BRANCH  26  33
ATOM     33  C   UNL     1      34.312 -18.551 -22.763  0.00  0.00    +0.133 C 
BRANCH  33  35
ATOM     34  O   UNL     1      34.058 -16.804 -25.052  0.00  0.00    -0.263 OA
ATOM     35  N   UNL     1      34.665 -18.841 -24.127  0.00  0.00    -0.164 N 
ATOM     36  C   UNL     1      34.505 -17.942 -25.143  0.00  0.00    +0.327 C 
BRANCH  35  37
ATOM     37  O   UNL     1      35.187 -20.128 -24.322  0.00  0.00    -0.291 OA
ATOM     38  H   UNL     1      35.955 -20.079 -24.914  0.00  0.00    +0.242 HD
ENDBRANCH  35  37
ENDBRANCH  33  35
ENDBRANCH  26  33
ENDBRANCH  24  26
ENDBRANCH   1  23
TORSDOF 7
ENDMDL
MODEL 8
REMARK VINA RESULT:      -8.9      6.716     10.811
REMARK  Name = 52918384
REMARK  7 active torsions:
REMARK  status: ('A' for Active; 'I' for Inactive)
REMARK    1  A    between atoms: N_1  and  N_23
REMARK    2  A    between atoms: C_24  and  C_26
REMARK    3  A    between atoms: C_26  and  C_27
REMARK    4  A    between atoms: C_26  and  C_33
REMARK    5  A    between atoms: C_27  and  C_28
REMARK    6  A    between atoms: C_33  and  N_35
REMARK    7  A    between atoms: N_35  and  O_37
REMARK                            x       y       z     vdW  Elec       q    Type
REMARK                         _______ _______ _______ _____ _____    ______ ____
ROOT
ATOM      1  N   UNL     1      32.857 -12.666 -23.495  0.00  0.00    -0.238 N 
ATOM      2  H   UNL     1      31.928 -12.671 -23.169  0.00  0.00    +0.172 HD
ATOM      3  F   UNL     1      31.665 -10.235 -23.010  0.00  0.00    -0.219 F 
ATOM      4  O   UNL     1      30.313  -4.887 -21.033  0.00  0.00    -0.358 OA
ATOM      5  N   UNL     1      31.722  -5.321 -23.469  0.00  0.00    +0.394 N 
ATOM      6  N   UNL     1      32.774  -7.924 -23.983  0.00  0.00    -0.288 N 
ATOM      7  N   UNL     1      34.531  -9.168 -24.962  0.00  0.00    -0.330 NA
ATOM      8  N   UNL     1      34.576 -11.566 -24.718  0.00  0.00    -0.329 NA
ATOM      9  C   UNL     1      31.461  -6.426 -22.528  0.00  0.00    -0.008 C 
ATOM     10  C   UNL     1      32.578  -7.479 -22.599  0.00  0.00    +0.075 C 
ATOM     11  C   UNL     1      31.805  -5.830 -24.842  0.00  0.00    -0.055 C 
ATOM     12  C   UNL     1      32.932  -6.857 -24.978  0.00  0.00    +0.070 C 
ATOM     13  C   UNL     1      31.347  -5.870 -21.104  0.00  0.00    +0.123 C 
ATOM     14  C   UNL     1      30.672  -4.299 -23.356  0.00  0.00    -0.044 C 
ATOM     15  C   UNL     1      30.586  -3.800 -21.918  0.00  0.00    +0.119 C 
ATOM     16  C   UNL     1      33.394  -9.153 -24.237  0.00  0.00    +0.213 C 
ATOM     17  C   UNL     1      32.795 -10.286 -23.726  0.00  0.00    +0.295 C 
ATOM     18  C   UNL     1      33.437 -11.476 -24.000  0.00  0.00    +0.226 C 
ATOM     19  C   UNL     1      35.062 -10.390 -25.162  0.00  0.00    +0.117 C 
ATOM     20  C   UNL     1      36.320 -10.447 -25.958  0.00  0.00    +0.143 C 
ATOM     21  H   UNL     1      32.616  -4.891 -23.232  0.00  0.00    -0.079 HD
ENDROOT
BRANCH   1  23
ATOM     22  O   UNL     1      32.215 -14.795 -21.902  0.00  0.00    -0.274 OA
ATOM     23  N   UNL     1      33.604 -13.797 -23.469  0.00  0.00    -0.234 N 
ATOM     24  C   UNL     1      33.204 -14.823 -22.632  0.00  0.00    +0.239 C 
ATOM     25  H   UNL     1      34.409 -13.885 -24.029  0.00  0.00    +0.173 HD
BRANCH  24  26
ATOM     26  C   UNL     1      34.131 -16.038 -22.726  0.00  0.00    +0.100 C 
BRANCH  26  27
ATOM     27  C   UNL     1      35.026 -16.187 -21.483  0.00  0.00    +0.011 C 
BRANCH  27  28
ATOM     28  C   UNL     1      34.918 -17.564 -20.854  0.00  0.00    +0.001 C 
ATOM     29  C   UNL     1      33.660 -18.320 -21.273  0.00  0.00    +0.000 C 
ATOM     30  C   UNL     1      36.029 -18.515 -21.290  0.00  0.00    +0.000 C 
ATOM     31  C   UNL     1      35.493 -19.896 -20.929  0.00  0.00    +0.000 C 
ATOM     32  C   UNL     1      33.969 -19.775 -20.930  0.00  0.00    +0.000 C 
ENDBRANCH  27  28
ENDBRANCH  26  27
BRANCH  26  33
ATOM     33  C   UNL     1      34.967 -15.959 -24.012  0.00  0.00    +0.133 C 
BRANCH  33  35
ATOM     34  O   UNL     1      34.816 -18.813 -24.444  0.00  0.00    -0.263 OA
ATOM     35  N   UNL     1      34.364 -16.644 -25.124  0.00  0.00    -0.164 N 
ATOM     36  C   UNL     1      34.344 -18.005 -25.236  0.00  0.00    +0.327 C 
BRANCH  35  37
ATOM     37  O   UNL     1      33.796 -15.791 -26.082  0.00  0.00    -0.291 OA
ATOM     38  H   UNL     1      33.178 -16.293 -26.636  0.00  0.00    +0.242 HD
ENDBRANCH  35  37
ENDBRANCH  33  35
ENDBRANCH  26  33
ENDBRANCH  24  26
ENDBRANCH   1  23
TORSDOF 7
ENDMDL
MODEL 9
REMARK VINA RESULT:      -8.5      2.558      4.164
REMARK  Name = 52918384
REMARK  7 active torsions:
REMARK  status: ('A' for Active; 'I' for Inactive)
REMARK    1  A    between atoms: N_1  and  N_23
REMARK    2  A    between atoms: C_24  and  C_26
REMARK    3  A    between atoms: C_26  and  C_27
REMARK    4  A    between atoms: C_26  and  C_33
REMARK    5  A    between atoms: C_27  and  C_28
REMARK    6  A    between atoms: C_33  and  N_35
REMARK    7  A    between atoms: N_35  and  O_37
REMARK                            x       y       z     vdW  Elec       q    Type
REMARK                         _______ _______ _______ _____ _____    ______ ____
ROOT
ATOM      1  N   UNL     1      33.163 -19.960 -20.311  0.00  0.00    -0.238 N 
ATOM      2  H   UNL     1      32.189 -19.820 -20.322  0.00  0.00    +0.172 HD
ATOM      3  F   UNL     1      32.244 -17.447 -20.948  0.00  0.00    -0.219 F 
ATOM      4  O   UNL     1      31.148 -11.692 -21.110  0.00  0.00    -0.358 OA
ATOM      5  N   UNL     1      33.144 -12.930 -22.721  0.00  0.00    +0.394 N 
ATOM      6  N   UNL     1      33.915 -15.609 -22.108  0.00  0.00    -0.288 N 
ATOM      7  N   UNL     1      35.685 -17.176 -22.064  0.00  0.00    -0.330 NA
ATOM      8  N   UNL     1      35.310 -19.377 -21.156  0.00  0.00    -0.329 NA
ATOM      9  C   UNL     1      32.457 -13.673 -21.648  0.00  0.00    -0.008 C 
ATOM     10  C   UNL     1      33.380 -14.745 -21.050  0.00  0.00    +0.075 C 
ATOM     11  C   UNL     1      33.559 -13.845 -23.789  0.00  0.00    -0.055 C 
ATOM     12  C   UNL     1      34.515 -14.913 -23.252  0.00  0.00    +0.070 C 
ATOM     13  C   UNL     1      32.003 -12.695 -20.558  0.00  0.00    +0.123 C 
ATOM     14  C   UNL     1      32.267 -11.876 -23.252  0.00  0.00    -0.044 C 
ATOM     15  C   UNL     1      31.827 -10.950 -22.123  0.00  0.00    +0.119 C 
ATOM     16  C   UNL     1      34.398 -16.882 -21.788  0.00  0.00    +0.213 C 
ATOM     17  C   UNL     1      33.517 -17.771 -21.207  0.00  0.00    +0.295 C 
ATOM     18  C   UNL     1      34.033 -19.015 -20.909  0.00  0.00    +0.226 C 
ATOM     19  C   UNL     1      36.070 -18.422 -21.727  0.00  0.00    +0.117 C 
ATOM     20  C   UNL     1      37.487 -18.782 -22.014  0.00  0.00    +0.143 C 
ATOM     21  H   UNL     1      33.977 -12.488 -22.333  0.00  0.00    -0.079 HD
ENDROOT
BRANCH   1  23
ATOM     22  O   UNL     1      31.838 -21.359 -18.370  0.00  0.00    -0.274 OA
ATOM     23  N   UNL     1      33.697 -21.060 -19.724  0.00  0.00    -0.234 N 
ATOM     24  C   UNL     1      32.955 -21.704 -18.751  0.00  0.00    +0.239 C 
ATOM     25  H   UNL     1      34.588 -21.390 -19.983  0.00  0.00    +0.173 HD
BRANCH  24  26
ATOM     26  C   UNL     1      33.676 -22.936 -18.197  0.00  0.00    +0.100 C 
BRANCH  26  27
ATOM     27  C   UNL     1      32.730 -23.863 -17.414  0.00  0.00    +0.011 C 
BRANCH  27  28
ATOM     28  C   UNL     1      32.293 -23.259 -16.091  0.00  0.00    +0.001 C 
ATOM     29  C   UNL     1      30.786 -23.337 -15.863  0.00  0.00    +0.000 C 
ATOM     30  C   UNL     1      32.844 -24.004 -14.878  0.00  0.00    +0.000 C 
ATOM     31  C   UNL     1      31.955 -23.541 -13.729  0.00  0.00    +0.000 C 
ATOM     32  C   UNL     1      30.626 -23.123 -14.360  0.00  0.00    +0.000 C 
ENDBRANCH  27  28
ENDBRANCH  26  27
BRANCH  26  33
ATOM     33  C   UNL     1      34.871 -22.498 -17.336  0.00  0.00    +0.133 C 
BRANCH  33  35
ATOM     34  O   UNL     1      37.346 -21.366 -16.364  0.00  0.00    -0.263 OA
ATOM     35  N   UNL     1      36.009 -22.087 -18.114  0.00  0.00    -0.164 N 
ATOM     36  C   UNL     1      37.139 -21.561 -17.557  0.00  0.00    +0.327 C 
BRANCH  35  37
ATOM     37  O   UNL     1      35.856 -22.277 -19.495  0.00  0.00    -0.291 OA
ATOM     38  H   UNL     1      35.335 -23.079 -19.656  0.00  0.00    +0.242 HD
ENDBRANCH  35  37
ENDBRANCH  33  35
ENDBRANCH  26  33
ENDBRANCH  24  26
ENDBRANCH   1  23
TORSDOF 7
ENDMDL
