MODEL 1
REMARK VINA RESULT:      -8.4      0.000      0.000
REMARK  Name = 3037918
REMARK  0 active torsions:
REMARK  status: ('A' for Active; 'I' for Inactive)
REMARK                            x       y       z     vdW  Elec       q    Type
REMARK                         _______ _______ _______ _____ _____    ______ ____
ROOT
ATOM      1  N   UNL     1      31.171  -5.739 -23.435  0.00  0.00    +0.387 N 
ATOM      2  C   UNL     1      32.266  -8.504 -23.525  0.00  0.00    +0.015 C 
ATOM      3  C   UNL     1      33.149  -7.253 -23.782  0.00  0.00    -0.015 C 
ATOM      4  C   UNL     1      32.553  -6.064 -23.006  0.00  0.00    -0.053 C 
ATOM      5  C   UNL     1      30.840  -8.174 -24.044  0.00  0.00    -0.019 C 
ATOM      6  C   UNL     1      32.854  -9.674 -24.361  0.00  0.00    +0.004 C 
ATOM      7  C   UNL     1      34.639  -7.501 -23.475  0.00  0.00    -0.002 C 
ATOM      8  C   UNL     1      32.161  -8.799 -22.017  0.00  0.00    -0.027 C 
ATOM      9  C   UNL     1      32.602  -6.330 -21.487  0.00  0.00    +0.005 C 
ATOM     10  C   UNL     1      30.260  -6.892 -23.424  0.00  0.00    -0.077 C 
ATOM     11  C   UNL     1      34.332  -9.939 -24.062  0.00  0.00    +0.000 C 
ATOM     12  C   UNL     1      35.177  -8.687 -24.272  0.00  0.00    -0.000 C 
ATOM     13  C   UNL     1      32.307  -7.756 -21.073  0.00  0.00    -0.028 C 
ATOM     14  C   UNL     1      31.847 -10.085 -21.540  0.00  0.00    -0.009 C 
ATOM     15  C   UNL     1      31.141  -5.051 -24.725  0.00  0.00    -0.101 C 
ATOM     16  C   UNL     1      32.194  -8.029 -19.700  0.00  0.00    -0.005 C 
ATOM     17  C   UNL     1      31.730 -10.341 -20.172  0.00  0.00    -0.022 C 
ATOM     18  C   UNL     1      31.909  -9.316 -19.252  0.00  0.00    -0.005 C 
ATOM     19  C   UNL     1      31.408 -11.718 -19.698  0.00  0.00    +0.031 C 
ATOM     20  H   UNL     1      30.819  -5.094 -22.727  0.00  0.00    -0.080 HD
ENDROOT
TORSDOF 0
ENDMDL
MODEL 2
REMARK VINA RESULT:      -8.3     16.784     19.057
REMARK  Name = 3037918
REMARK  0 active torsions:
REMARK  status: ('A' for Active; 'I' for Inactive)
REMARK                            x       y       z     vdW  Elec       q    Type
REMARK                         _______ _______ _______ _____ _____    ______ ____
ROOT
ATOM      1  N   UNL     1      38.417 -25.380 -15.359  0.00  0.00    +0.387 N 
ATOM      2  C   UNL     1      36.360 -24.980 -13.246  0.00  0.00    +0.015 C 
ATOM      3  C   UNL     1      37.658 -24.132 -13.310  0.00  0.00    -0.015 C 
ATOM      4  C   UNL     1      38.117 -24.048 -14.778  0.00  0.00    -0.053 C 
ATOM      5  C   UNL     1      36.707 -26.393 -13.790  0.00  0.00    -0.019 C 
ATOM      6  C   UNL     1      35.949 -25.097 -11.752  0.00  0.00    +0.004 C 
ATOM      7  C   UNL     1      37.505 -22.754 -12.636  0.00  0.00    -0.002 C 
ATOM      8  C   UNL     1      35.269 -24.382 -14.154  0.00  0.00    -0.027 C 
ATOM      9  C   UNL     1      37.066 -23.308 -15.632  0.00  0.00    +0.005 C 
ATOM     10  C   UNL     1      37.330 -26.356 -15.195  0.00  0.00    -0.077 C 
ATOM     11  C   UNL     1      35.784 -23.737 -11.069  0.00  0.00    +0.000 C 
ATOM     12  C   UNL     1      37.052 -22.897 -11.186  0.00  0.00    -0.000 C 
ATOM     13  C   UNL     1      35.625 -23.609 -15.283  0.00  0.00    -0.028 C 
ATOM     14  C   UNL     1      33.904 -24.643 -13.933  0.00  0.00    -0.009 C 
ATOM     15  C   UNL     1      39.690 -25.917 -14.878  0.00  0.00    -0.101 C 
ATOM     16  C   UNL     1      34.626 -23.080 -16.117  0.00  0.00    -0.005 C 
ATOM     17  C   UNL     1      32.921 -24.117 -14.774  0.00  0.00    -0.022 C 
ATOM     18  C   UNL     1      33.280 -23.331 -15.861  0.00  0.00    -0.005 C 
ATOM     19  C   UNL     1      31.482 -24.403 -14.505  0.00  0.00    +0.031 C 
ATOM     20  H   UNL     1      38.503 -25.218 -16.362  0.00  0.00    -0.080 HD
ENDROOT
TORSDOF 0
ENDMDL
MODEL 3
REMARK VINA RESULT:      -7.6      1.610      4.791
REMARK  Name = 3037918
REMARK  0 active torsions:
REMARK  status: ('A' for Active; 'I' for Inactive)
REMARK                            x       y       z     vdW  Elec       q    Type
REMARK                         _______ _______ _______ _____ _____    ______ ____
ROOT
ATOM      1  N   UNL     1      31.880  -8.318 -20.989  0.00  0.00    +0.387 N 
ATOM      2  C   UNL     1      33.836  -8.331 -23.231  0.00  0.00    +0.015 C 
ATOM      3  C   UNL     1      32.904  -9.537 -22.936  0.00  0.00    -0.015 C 
ATOM      4  C   UNL     1      31.617  -9.011 -22.274  0.00  0.00    -0.053 C 
ATOM      5  C   UNL     1      34.160  -7.657 -21.869  0.00  0.00    -0.019 C 
ATOM      6  C   UNL     1      35.148  -8.890 -23.847  0.00  0.00    +0.004 C 
ATOM      7  C   UNL     1      32.642 -10.406 -24.181  0.00  0.00    -0.002 C 
ATOM      8  C   UNL     1      33.122  -7.289 -24.112  0.00  0.00    -0.027 C 
ATOM      9  C   UNL     1      30.848  -8.089 -23.241  0.00  0.00    +0.005 C 
ATOM     10  C   UNL     1      32.899  -7.263 -21.082  0.00  0.00    -0.077 C 
ATOM     11  C   UNL     1      34.906  -9.749 -25.090  0.00  0.00    +0.000 C 
ATOM     12  C   UNL     1      33.949 -10.900 -24.795  0.00  0.00    -0.000 C 
ATOM     13  C   UNL     1      31.712  -7.182 -24.090  0.00  0.00    -0.028 C 
ATOM     14  C   UNL     1      33.844  -6.375 -24.901  0.00  0.00    -0.009 C 
ATOM     15  C   UNL     1      32.183  -9.256 -19.908  0.00  0.00    -0.101 C 
ATOM     16  C   UNL     1      31.068  -6.218 -24.884  0.00  0.00    -0.005 C 
ATOM     17  C   UNL     1      33.191  -5.417 -25.679  0.00  0.00    -0.022 C 
ATOM     18  C   UNL     1      31.804  -5.342 -25.676  0.00  0.00    -0.005 C 
ATOM     19  C   UNL     1      33.985  -4.470 -26.514  0.00  0.00    +0.031 C 
ATOM     20  H   UNL     1      31.005  -7.846 -20.759  0.00  0.00    -0.080 HD
ENDROOT
TORSDOF 0
ENDMDL
MODEL 4
REMARK VINA RESULT:      -7.4      1.862      5.258
REMARK  Name = 3037918
REMARK  0 active torsions:
REMARK  status: ('A' for Active; 'I' for Inactive)
REMARK                            x       y       z     vdW  Elec       q    Type
REMARK                         _______ _______ _______ _____ _____    ______ ____
ROOT
ATOM      1  N   UNL     1      32.500  -9.785 -22.393  0.00  0.00    +0.387 N 
ATOM      2  C   UNL     1      31.356  -7.138 -23.129  0.00  0.00    +0.015 C 
ATOM      3  C   UNL     1      31.871  -7.451 -21.698  0.00  0.00    -0.015 C 
ATOM      4  C   UNL     1      32.980  -8.514 -21.798  0.00  0.00    -0.053 C 
ATOM      5  C   UNL     1      30.791  -8.462 -23.712  0.00  0.00    -0.019 C 
ATOM      6  C   UNL     1      30.202  -6.106 -22.998  0.00  0.00    +0.004 C 
ATOM      7  C   UNL     1      32.302  -6.186 -20.929  0.00  0.00    -0.002 C 
ATOM      8  C   UNL     1      32.511  -6.679 -24.039  0.00  0.00    -0.027 C 
ATOM      9  C   UNL     1      34.187  -7.966 -22.589  0.00  0.00    +0.005 C 
ATOM     10  C   UNL     1      31.809  -9.613 -23.680  0.00  0.00    -0.077 C 
ATOM     11  C   UNL     1      30.616  -4.840 -22.244  0.00  0.00    +0.000 C 
ATOM     12  C   UNL     1      31.166  -5.169 -20.860  0.00  0.00    -0.000 C 
ATOM     13  C   UNL     1      33.836  -7.094 -23.774  0.00  0.00    -0.028 C 
ATOM     14  C   UNL     1      32.276  -5.902 -25.188  0.00  0.00    -0.009 C 
ATOM     15  C   UNL     1      31.689 -10.562 -21.455  0.00  0.00    -0.101 C 
ATOM     16  C   UNL     1      34.883  -6.685 -24.618  0.00  0.00    -0.005 C 
ATOM     17  C   UNL     1      33.325  -5.509 -26.022  0.00  0.00    -0.022 C 
ATOM     18  C   UNL     1      34.628  -5.894 -25.735  0.00  0.00    -0.005 C 
ATOM     19  C   UNL     1      33.043  -4.675 -27.227  0.00  0.00    +0.031 C 
ATOM     20  H   UNL     1      33.345 -10.320 -22.595  0.00  0.00    -0.080 HD
ENDROOT
TORSDOF 0
ENDMDL
MODEL 5
REMARK VINA RESULT:      -7.3      1.458      3.613
REMARK  Name = 3037918
REMARK  0 active torsions:
REMARK  status: ('A' for Active; 'I' for Inactive)
REMARK                            x       y       z     vdW  Elec       q    Type
REMARK                         _______ _______ _______ _____ _____    ______ ____
ROOT
ATOM      1  N   UNL     1      33.881  -7.768 -24.422  0.00  0.00    +0.387 N 
ATOM      2  C   UNL     1      32.654  -7.177 -21.776  0.00  0.00    +0.015 C 
ATOM      3  C   UNL     1      32.110  -6.568 -23.097  0.00  0.00    -0.015 C 
ATOM      4  C   UNL     1      32.425  -7.540 -24.250  0.00  0.00    -0.053 C 
ATOM      5  C   UNL     1      34.189  -7.343 -21.946  0.00  0.00    -0.019 C 
ATOM      6  C   UNL     1      32.375  -6.156 -20.639  0.00  0.00    +0.004 C 
ATOM      7  C   UNL     1      30.621  -6.184 -23.008  0.00  0.00    -0.002 C 
ATOM      8  C   UNL     1      32.055  -8.574 -21.529  0.00  0.00    -0.027 C 
ATOM      9  C   UNL     1      31.686  -8.879 -24.047  0.00  0.00    +0.005 C 
ATOM     10  C   UNL     1      34.568  -8.168 -23.186  0.00  0.00    -0.077 C 
ATOM     11  C   UNL     1      30.898  -5.769 -20.531  0.00  0.00    +0.000 C 
ATOM     12  C   UNL     1      30.367  -5.221 -21.852  0.00  0.00    -0.000 C 
ATOM     13  C   UNL     1      31.618  -9.366 -22.616  0.00  0.00    -0.028 C 
ATOM     14  C   UNL     1      31.990  -9.127 -20.237  0.00  0.00    -0.009 C 
ATOM     15  C   UNL     1      34.546  -6.629 -25.055  0.00  0.00    -0.101 C 
ATOM     16  C   UNL     1      31.087 -10.646 -22.384  0.00  0.00    -0.005 C 
ATOM     17  C   UNL     1      31.467 -10.404 -20.022  0.00  0.00    -0.022 C 
ATOM     18  C   UNL     1      31.010 -11.161 -21.093  0.00  0.00    -0.005 C 
ATOM     19  C   UNL     1      31.402 -10.957 -18.638  0.00  0.00    +0.031 C 
ATOM     20  H   UNL     1      33.951  -8.564 -25.056  0.00  0.00    -0.080 HD
ENDROOT
TORSDOF 0
ENDMDL
MODEL 6
REMARK VINA RESULT:      -6.3     15.337     18.952
REMARK  Name = 3037918
REMARK  0 active torsions:
REMARK  status: ('A' for Active; 'I' for Inactive)
REMARK                            x       y       z     vdW  Elec       q    Type
REMARK                         _______ _______ _______ _____ _____    ______ ____
ROOT
ATOM      1  N   UNL     1      35.463 -24.016 -11.547  0.00  0.00    +0.387 N 
ATOM      2  C   UNL     1      37.515 -24.199 -13.696  0.00  0.00    +0.015 C 
ATOM      3  C   UNL     1      36.848 -25.456 -13.076  0.00  0.00    -0.015 C 
ATOM      4  C   UNL     1      35.438 -25.073 -12.587  0.00  0.00    -0.053 C 
ATOM      5  C   UNL     1      37.598 -23.125 -12.576  0.00  0.00    -0.019 C 
ATOM      6  C   UNL     1      38.953 -24.595 -14.129  0.00  0.00    +0.004 C 
ATOM      7  C   UNL     1      36.858 -26.668 -14.028  0.00  0.00    -0.002 C 
ATOM      8  C   UNL     1      36.649 -23.625 -14.833  0.00  0.00    -0.027 C 
ATOM      9  C   UNL     1      34.551 -24.647 -13.775  0.00  0.00    +0.005 C 
ATOM     10  C   UNL     1      36.236 -22.825 -11.931  0.00  0.00    -0.077 C 
ATOM     11  C   UNL     1      38.981 -25.792 -15.083  0.00  0.00    +0.000 C 
ATOM     12  C   UNL     1      38.278 -27.004 -14.478  0.00  0.00    -0.000 C 
ATOM     13  C   UNL     1      35.251 -23.835 -14.842  0.00  0.00    -0.028 C 
ATOM     14  C   UNL     1      37.206 -22.822 -15.846  0.00  0.00    -0.009 C 
ATOM     15  C   UNL     1      35.893 -24.530 -10.247  0.00  0.00    -0.101 C 
ATOM     16  C   UNL     1      34.466 -23.295 -15.874  0.00  0.00    -0.005 C 
ATOM     17  C   UNL     1      36.413 -22.285 -16.862  0.00  0.00    -0.022 C 
ATOM     18  C   UNL     1      35.045 -22.526 -16.880  0.00  0.00    -0.005 C 
ATOM     19  C   UNL     1      37.035 -21.448 -17.927  0.00  0.00    +0.031 C 
ATOM     20  H   UNL     1      34.495 -23.708 -11.459  0.00  0.00    -0.080 HD
ENDROOT
TORSDOF 0
ENDMDL
MODEL 7
REMARK VINA RESULT:      -6.1     14.940     18.261
REMARK  Name = 3037918
REMARK  0 active torsions:
REMARK  status: ('A' for Active; 'I' for Inactive)
REMARK                            x       y       z     vdW  Elec       q    Type
REMARK                         _______ _______ _______ _____ _____    ______ ____
ROOT
ATOM      1  N   UNL     1      37.524 -25.517 -13.641  0.00  0.00    +0.387 N 
ATOM      2  C   UNL     1      35.047 -24.605 -15.017  0.00  0.00    +0.015 C 
ATOM      3  C   UNL     1      35.267 -24.415 -13.492  0.00  0.00    -0.015 C 
ATOM      4  C   UNL     1      36.779 -24.303 -13.225  0.00  0.00    -0.053 C 
ATOM      5  C   UNL     1      35.772 -25.917 -15.425  0.00  0.00    -0.019 C 
ATOM      6  C   UNL     1      33.521 -24.772 -15.254  0.00  0.00    +0.004 C 
ATOM      7  C   UNL     1      34.453 -23.241 -12.914  0.00  0.00    -0.002 C 
ATOM      8  C   UNL     1      35.686 -23.450 -15.811  0.00  0.00    -0.027 C 
ATOM      9  C   UNL     1      37.359 -23.048 -13.912  0.00  0.00    +0.005 C 
ATOM     10  C   UNL     1      37.257 -25.929 -15.027  0.00  0.00    -0.077 C 
ATOM     11  C   UNL     1      32.698 -23.609 -14.694  0.00  0.00    +0.000 C 
ATOM     12  C   UNL     1      32.964 -23.404 -13.206  0.00  0.00    -0.000 C 
ATOM     13  C   UNL     1      36.785 -22.739 -15.277  0.00  0.00    -0.028 C 
ATOM     14  C   UNL     1      35.247 -23.118 -17.106  0.00  0.00    -0.009 C 
ATOM     15  C   UNL     1      37.331 -26.628 -12.710  0.00  0.00    -0.101 C 
ATOM     16  C   UNL     1      37.373 -21.697 -16.013  0.00  0.00    -0.005 C 
ATOM     17  C   UNL     1      35.845 -22.085 -17.830  0.00  0.00    -0.022 C 
ATOM     18  C   UNL     1      36.903 -21.370 -17.283  0.00  0.00    -0.005 C 
ATOM     19  C   UNL     1      35.349 -21.750 -19.196  0.00  0.00    +0.031 C 
ATOM     20  H   UNL     1      38.507 -25.248 -13.611  0.00  0.00    -0.080 HD
ENDROOT
TORSDOF 0
ENDMDL
MODEL 8
REMARK VINA RESULT:      -5.5     16.374     19.219
REMARK  Name = 3037918
REMARK  0 active torsions:
REMARK  status: ('A' for Active; 'I' for Inactive)
REMARK                            x       y       z     vdW  Elec       q    Type
REMARK                         _______ _______ _______ _____ _____    ______ ____
ROOT
ATOM      1  N   UNL     1      34.197 -23.682 -15.633  0.00  0.00    +0.387 N 
ATOM      2  C   UNL     1      36.433 -23.450 -13.682  0.00  0.00    +0.015 C 
ATOM      3  C   UNL     1      34.994 -23.841 -13.252  0.00  0.00    -0.015 C 
ATOM      4  C   UNL     1      34.304 -24.548 -14.433  0.00  0.00    -0.053 C 
ATOM      5  C   UNL     1      36.303 -22.487 -14.894  0.00  0.00    -0.019 C 
ATOM      6  C   UNL     1      37.088 -22.690 -12.496  0.00  0.00    +0.004 C 
ATOM      7  C   UNL     1      34.963 -24.658 -11.945  0.00  0.00    -0.002 C 
ATOM      8  C   UNL     1      37.221 -24.688 -14.149  0.00  0.00    -0.027 C 
ATOM      9  C   UNL     1      35.032 -25.864 -14.776  0.00  0.00    +0.005 C 
ATOM     10  C   UNL     1      35.474 -23.080 -16.044  0.00  0.00    -0.077 C 
ATOM     11  C   UNL     1      37.074 -23.491 -11.192  0.00  0.00    +0.000 C 
ATOM     12  C   UNL     1      35.657 -23.910 -10.810  0.00  0.00    -0.000 C 
ATOM     13  C   UNL     1      36.541 -25.810 -14.676  0.00  0.00    -0.028 C 
ATOM     14  C   UNL     1      38.627 -24.713 -14.133  0.00  0.00    -0.009 C 
ATOM     15  C   UNL     1      33.154 -22.667 -15.490  0.00  0.00    -0.101 C 
ATOM     16  C   UNL     1      37.267 -26.930 -15.114  0.00  0.00    -0.005 C 
ATOM     17  C   UNL     1      39.337 -25.830 -14.579  0.00  0.00    -0.022 C 
ATOM     18  C   UNL     1      38.658 -26.940 -15.063  0.00  0.00    -0.005 C 
ATOM     19  C   UNL     1      40.828 -25.829 -14.537  0.00  0.00    +0.031 C 
ATOM     20  H   UNL     1      33.924 -24.310 -16.389  0.00  0.00    -0.080 HD
ENDROOT
TORSDOF 0
ENDMDL
