MODEL 1
REMARK VINA RESULT:      -7.3      0.000      0.000
REMARK  Name = 445382
REMARK  6 active torsions:
REMARK  status: ('A' for Active; 'I' for Inactive)
REMARK    1  A    between atoms: C_2  and  O_12
REMARK    2  A    between atoms: C_3  and  O_14
REMARK    3  A    between atoms: C_4  and  O_16
REMARK    4  A    between atoms: C_5  and  C_18
REMARK    5  A    between atoms: C_6  and  N_8
REMARK    6  A    between atoms: C_18  and  O_19
REMARK                            x       y       z     vdW  Elec       q    Type
REMARK                         _______ _______ _______ _____ _____    ______ ____
ROOT
ATOM      1  O   UNL     1      36.026 -25.002 -14.784  0.00  0.00    -0.333 OA
ATOM      2  C   UNL     1      35.830 -24.715 -11.936  0.00  0.00    +0.171 C 
ATOM      3  C   UNL     1      36.831 -25.667 -12.592  0.00  0.00    +0.169 C 
ATOM      4  C   UNL     1      34.654 -24.408 -12.866  0.00  0.00    +0.186 C 
ATOM      5  C   UNL     1      37.206 -25.171 -13.994  0.00  0.00    +0.175 C 
ATOM      6  C   UNL     1      35.148 -24.011 -14.255  0.00  0.00    +0.221 C 
ENDROOT
BRANCH   6   8
ATOM      7  O   UNL     1      35.212 -22.846 -16.914  0.00  0.00    -0.275 OA
ATOM      8  N   UNL     1      34.049 -23.872 -15.178  0.00  0.00    -0.281 N 
ATOM      9  C   UNL     1      34.177 -23.298 -16.433  0.00  0.00    +0.225 C 
ATOM     10  C   UNL     1      32.881 -23.302 -17.199  0.00  0.00    +0.095 C 
ATOM     11  H   UNL     1      33.163 -24.202 -14.902  0.00  0.00    +0.152 HD
ENDBRANCH   6   8
BRANCH   2  12
ATOM     12  O   UNL     1      35.335 -25.304 -10.732  0.00  0.00    -0.379 OA
ATOM     13  H   UNL     1      36.080 -25.526 -10.151  0.00  0.00    +0.211 HD
ENDBRANCH   2  12
BRANCH   3  14
ATOM     14  O   UNL     1      37.988 -25.734 -11.762  0.00  0.00    -0.379 OA
ATOM     15  H   UNL     1      38.761 -25.955 -12.303  0.00  0.00    +0.211 HD
ENDBRANCH   3  14
BRANCH   4  16
ATOM     16  O   UNL     1      33.899 -23.328 -12.317  0.00  0.00    -0.378 OA
ATOM     17  H   UNL     1      33.043 -23.659 -12.005  0.00  0.00    +0.211 HD
ENDBRANCH   4  16
BRANCH   5  18
ATOM     18  C   UNL     1      38.107 -26.156 -14.733  0.00  0.00    +0.169 C 
BRANCH  18  19
ATOM     19  O   UNL     1      37.379 -26.706 -15.816  0.00  0.00    -0.379 OA
ATOM     20  H   UNL     1      36.603 -27.177 -15.477  0.00  0.00    +0.211 HD
ENDBRANCH  18  19
ENDBRANCH   5  18
TORSDOF 6
ENDMDL
MODEL 2
REMARK VINA RESULT:      -7.0      1.697      3.143
REMARK  Name = 445382
REMARK  6 active torsions:
REMARK  status: ('A' for Active; 'I' for Inactive)
REMARK    1  A    between atoms: C_2  and  O_12
REMARK    2  A    between atoms: C_3  and  O_14
REMARK    3  A    between atoms: C_4  and  O_16
REMARK    4  A    between atoms: C_5  and  C_18
REMARK    5  A    between atoms: C_6  and  N_8
REMARK    6  A    between atoms: C_18  and  O_19
REMARK                            x       y       z     vdW  Elec       q    Type
REMARK                         _______ _______ _______ _____ _____    ______ ____
ROOT
ATOM      1  O   UNL     1      35.965 -23.756 -13.787  0.00  0.00    -0.333 OA
ATOM      2  C   UNL     1      37.389 -26.244 -13.906  0.00  0.00    +0.171 C 
ATOM      3  C   UNL     1      37.758 -25.140 -12.912  0.00  0.00    +0.169 C 
ATOM      4  C   UNL     1      36.630 -25.684 -15.111  0.00  0.00    +0.186 C 
ATOM      5  C   UNL     1      36.531 -24.282 -12.583  0.00  0.00    +0.175 C 
ATOM      6  C   UNL     1      35.488 -24.776 -14.661  0.00  0.00    +0.221 C 
ENDROOT
BRANCH   6   8
ATOM      7  O   UNL     1      32.779 -23.746 -14.832  0.00  0.00    -0.275 OA
ATOM      8  N   UNL     1      34.868 -24.124 -15.787  0.00  0.00    -0.281 N 
ATOM      9  C   UNL     1      33.561 -23.664 -15.775  0.00  0.00    +0.225 C 
ATOM     10  C   UNL     1      33.174 -23.001 -17.070  0.00  0.00    +0.095 C 
ATOM     11  H   UNL     1      35.400 -23.999 -16.606  0.00  0.00    +0.152 HD
ENDBRANCH   6   8
BRANCH   2  12
ATOM     12  O   UNL     1      38.581 -26.890 -14.360  0.00  0.00    -0.379 OA
ATOM     13  H   UNL     1      38.447 -27.217 -15.264  0.00  0.00    +0.211 HD
ENDBRANCH   2  12
BRANCH   3  14
ATOM     14  O   UNL     1      38.264 -25.758 -11.732  0.00  0.00    -0.379 OA
ATOM     15  H   UNL     1      37.536 -26.179 -11.250  0.00  0.00    +0.211 HD
ENDBRANCH   3  14
BRANCH   4  16
ATOM     16  O   UNL     1      36.090 -26.770 -15.863  0.00  0.00    -0.378 OA
ATOM     17  H   UNL     1      35.696 -27.418 -15.258  0.00  0.00    +0.211 HD
ENDBRANCH   4  16
BRANCH   5  18
ATOM     18  C   UNL     1      36.880 -23.094 -11.692  0.00  0.00    +0.169 C 
BRANCH  18  19
ATOM     19  O   UNL     1      38.287 -22.932 -11.688  0.00  0.00    -0.379 OA
ATOM     20  H   UNL     1      38.709 -23.776 -11.907  0.00  0.00    +0.211 HD
ENDBRANCH  18  19
ENDBRANCH   5  18
TORSDOF 6
ENDMDL
MODEL 3
REMARK VINA RESULT:      -7.0      1.831      4.548
REMARK  Name = 445382
REMARK  6 active torsions:
REMARK  status: ('A' for Active; 'I' for Inactive)
REMARK    1  A    between atoms: C_2  and  O_12
REMARK    2  A    between atoms: C_3  and  O_14
REMARK    3  A    between atoms: C_4  and  O_16
REMARK    4  A    between atoms: C_5  and  C_18
REMARK    5  A    between atoms: C_6  and  N_8
REMARK    6  A    between atoms: C_18  and  O_19
REMARK                            x       y       z     vdW  Elec       q    Type
REMARK                         _______ _______ _______ _____ _____    ______ ____
ROOT
ATOM      1  O   UNL     1      35.844 -23.887 -16.024  0.00  0.00    -0.333 OA
ATOM      2  C   UNL     1      34.171 -24.256 -13.723  0.00  0.00    +0.171 C 
ATOM      3  C   UNL     1      33.750 -23.381 -14.905  0.00  0.00    +0.169 C 
ATOM      4  C   UNL     1      35.691 -24.415 -13.656  0.00  0.00    +0.186 C 
ATOM      5  C   UNL     1      34.425 -23.861 -16.196  0.00  0.00    +0.175 C 
ATOM      6  C   UNL     1      36.259 -24.807 -15.018  0.00  0.00    +0.221 C 
ENDROOT
BRANCH   6   8
ATOM      7  O   UNL     1      38.018 -27.066 -14.533  0.00  0.00    -0.275 OA
ATOM      8  N   UNL     1      37.701 -24.807 -15.000  0.00  0.00    -0.281 N 
ATOM      9  C   UNL     1      38.459 -25.942 -14.758  0.00  0.00    +0.225 C 
ATOM     10  C   UNL     1      39.937 -25.668 -14.823  0.00  0.00    +0.095 C 
ATOM     11  H   UNL     1      38.170 -23.958 -15.170  0.00  0.00    +0.152 HD
ENDBRANCH   6   8
BRANCH   2  12
ATOM     12  O   UNL     1      33.706 -23.665 -12.508  0.00  0.00    -0.379 OA
ATOM     13  H   UNL     1      34.463 -23.328 -12.002  0.00  0.00    +0.211 HD
ENDBRANCH   2  12
BRANCH   3  14
ATOM     14  O   UNL     1      32.332 -23.455 -15.028  0.00  0.00    -0.379 OA
ATOM     15  H   UNL     1      31.936 -22.631 -14.705  0.00  0.00    +0.211 HD
ENDBRANCH   3  14
BRANCH   4  16
ATOM     16  O   UNL     1      36.009 -25.436 -12.710  0.00  0.00    -0.378 OA
ATOM     17  H   UNL     1      35.679 -26.289 -13.032  0.00  0.00    +0.211 HD
ENDBRANCH   4  16
BRANCH   5  18
ATOM     18  C   UNL     1      34.130 -22.941 -17.377  0.00  0.00    +0.169 C 
BRANCH  18  19
ATOM     19  O   UNL     1      33.674 -23.732 -18.460  0.00  0.00    -0.379 OA
ATOM     20  H   UNL     1      34.189 -24.552 -18.500  0.00  0.00    +0.211 HD
ENDBRANCH  18  19
ENDBRANCH   5  18
TORSDOF 6
ENDMDL
MODEL 4
REMARK VINA RESULT:      -6.9     11.049     13.307
REMARK  Name = 445382
REMARK  6 active torsions:
REMARK  status: ('A' for Active; 'I' for Inactive)
REMARK    1  A    between atoms: C_2  and  O_12
REMARK    2  A    between atoms: C_3  and  O_14
REMARK    3  A    between atoms: C_4  and  O_16
REMARK    4  A    between atoms: C_5  and  C_18
REMARK    5  A    between atoms: C_6  and  N_8
REMARK    6  A    between atoms: C_18  and  O_19
REMARK                            x       y       z     vdW  Elec       q    Type
REMARK                         _______ _______ _______ _____ _____    ______ ____
ROOT
ATOM      1  O   UNL     1      33.795 -15.027 -22.875  0.00  0.00    -0.333 OA
ATOM      2  C   UNL     1      35.037 -17.586 -23.244  0.00  0.00    +0.171 C 
ATOM      3  C   UNL     1      34.958 -16.909 -21.874  0.00  0.00    +0.169 C 
ATOM      4  C   UNL     1      34.917 -16.571 -24.382  0.00  0.00    +0.186 C 
ATOM      5  C   UNL     1      33.743 -15.976 -21.806  0.00  0.00    +0.175 C 
ATOM      6  C   UNL     1      33.726 -15.642 -24.159  0.00  0.00    +0.221 C 
ENDROOT
BRANCH   6   8
ATOM      7  O   UNL     1      32.524 -15.723 -26.801  0.00  0.00    -0.275 OA
ATOM      8  N   UNL     1      33.698 -14.587 -25.142  0.00  0.00    -0.281 N 
ATOM      9  C   UNL     1      33.097 -14.720 -26.383  0.00  0.00    +0.225 C 
ATOM     10  C   UNL     1      33.190 -13.460 -27.203  0.00  0.00    +0.095 C 
ATOM     11  H   UNL     1      34.127 -13.729 -24.919  0.00  0.00    +0.152 HD
ENDBRANCH   6   8
BRANCH   2  12
ATOM     12  O   UNL     1      36.283 -18.277 -23.360  0.00  0.00    -0.379 OA
ATOM     13  H   UNL     1      36.501 -18.695 -22.511  0.00  0.00    +0.211 HD
ENDBRANCH   2  12
BRANCH   3  14
ATOM     14  O   UNL     1      34.861 -17.926 -20.882  0.00  0.00    -0.379 OA
ATOM     15  H   UNL     1      35.304 -17.630 -20.071  0.00  0.00    +0.211 HD
ENDBRANCH   3  14
BRANCH   4  16
ATOM     16  O   UNL     1      34.735 -17.272 -25.611  0.00  0.00    -0.378 OA
ATOM     17  H   UNL     1      34.856 -16.660 -26.354  0.00  0.00    +0.211 HD
ENDBRANCH   4  16
BRANCH   5  18
ATOM     18  C   UNL     1      33.696 -15.185 -20.503  0.00  0.00    +0.169 C 
BRANCH  18  19
ATOM     19  O   UNL     1      34.993 -15.176 -19.933  0.00  0.00    -0.379 OA
ATOM     20  H   UNL     1      35.085 -14.405 -19.353  0.00  0.00    +0.211 HD
ENDBRANCH  18  19
ENDBRANCH   5  18
TORSDOF 6
ENDMDL
MODEL 5
REMARK VINA RESULT:      -6.8      2.113      3.751
REMARK  Name = 445382
REMARK  6 active torsions:
REMARK  status: ('A' for Active; 'I' for Inactive)
REMARK    1  A    between atoms: C_2  and  O_12
REMARK    2  A    between atoms: C_3  and  O_14
REMARK    3  A    between atoms: C_4  and  O_16
REMARK    4  A    between atoms: C_5  and  C_18
REMARK    5  A    between atoms: C_6  and  N_8
REMARK    6  A    between atoms: C_18  and  O_19
REMARK                            x       y       z     vdW  Elec       q    Type
REMARK                         _______ _______ _______ _____ _____    ______ ____
ROOT
ATOM      1  O   UNL     1      34.995 -23.580 -12.917  0.00  0.00    -0.333 OA
ATOM      2  C   UNL     1      36.860 -23.904 -15.071  0.00  0.00    +0.171 C 
ATOM      3  C   UNL     1      37.313 -23.638 -13.634  0.00  0.00    +0.169 C 
ATOM      4  C   UNL     1      35.425 -23.430 -15.305  0.00  0.00    +0.186 C 
ATOM      5  C   UNL     1      36.271 -24.160 -12.638  0.00  0.00    +0.175 C 
ATOM      6  C   UNL     1      34.498 -23.938 -14.203  0.00  0.00    +0.221 C 
ENDROOT
BRANCH   6   8
ATOM      7  O   UNL     1      31.990 -25.073 -13.280  0.00  0.00    -0.275 OA
ATOM      8  N   UNL     1      33.178 -23.369 -14.330  0.00  0.00    -0.281 N 
ATOM      9  C   UNL     1      32.034 -23.989 -13.856  0.00  0.00    +0.225 C 
ATOM     10  C   UNL     1      30.795 -23.168 -14.097  0.00  0.00    +0.095 C 
ATOM     11  H   UNL     1      33.087 -22.496 -14.777  0.00  0.00    +0.152 HD
ENDBRANCH   6   8
BRANCH   2  12
ATOM     12  O   UNL     1      37.733 -23.225 -15.976  0.00  0.00    -0.379 OA
ATOM     13  H   UNL     1      37.410 -23.339 -16.885  0.00  0.00    +0.211 HD
ENDBRANCH   2  12
BRANCH   3  14
ATOM     14  O   UNL     1      38.563 -24.293 -13.436  0.00  0.00    -0.379 OA
ATOM     15  H   UNL     1      38.412 -25.236 -13.269  0.00  0.00    +0.211 HD
ENDBRANCH   3  14
BRANCH   4  16
ATOM     16  O   UNL     1      34.970 -23.932 -16.561  0.00  0.00    -0.378 OA
ATOM     17  H   UNL     1      34.001 -23.912 -16.586  0.00  0.00    +0.211 HD
ENDBRANCH   4  16
BRANCH   5  18
ATOM     18  C   UNL     1      36.624 -23.805 -11.196  0.00  0.00    +0.169 C 
BRANCH  18  19
ATOM     19  O   UNL     1      37.517 -22.706 -11.208  0.00  0.00    -0.379 OA
ATOM     20  H   UNL     1      38.360 -22.980 -11.602  0.00  0.00    +0.211 HD
ENDBRANCH  18  19
ENDBRANCH   5  18
TORSDOF 6
ENDMDL
MODEL 6
REMARK VINA RESULT:      -6.7     10.731     12.942
REMARK  Name = 445382
REMARK  6 active torsions:
REMARK  status: ('A' for Active; 'I' for Inactive)
REMARK    1  A    between atoms: C_2  and  O_12
REMARK    2  A    between atoms: C_3  and  O_14
REMARK    3  A    between atoms: C_4  and  O_16
REMARK    4  A    between atoms: C_5  and  C_18
REMARK    5  A    between atoms: C_6  and  N_8
REMARK    6  A    between atoms: C_18  and  O_19
REMARK                            x       y       z     vdW  Elec       q    Type
REMARK                         _______ _______ _______ _____ _____    ______ ____
ROOT
ATOM      1  O   UNL     1      33.677 -15.566 -23.551  0.00  0.00    -0.333 OA
ATOM      2  C   UNL     1      35.331 -16.993 -21.692  0.00  0.00    +0.171 C 
ATOM      3  C   UNL     1      34.954 -17.571 -23.058  0.00  0.00    +0.169 C 
ATOM      4  C   UNL     1      34.333 -15.927 -21.238  0.00  0.00    +0.186 C 
ATOM      5  C   UNL     1      34.684 -16.444 -24.061  0.00  0.00    +0.175 C 
ATOM      6  C   UNL     1      34.076 -14.913 -22.350  0.00  0.00    +0.221 C 
ENDROOT
BRANCH   6   8
ATOM      7  O   UNL     1      33.440 -12.368 -23.595  0.00  0.00    -0.275 OA
ATOM      8  N   UNL     1      33.023 -13.997 -21.986  0.00  0.00    -0.281 N 
ATOM      9  C   UNL     1      32.795 -12.799 -22.642  0.00  0.00    +0.225 C 
ATOM     10  C   UNL     1      31.619 -12.049 -22.077  0.00  0.00    +0.095 C 
ATOM     11  H   UNL     1      32.435 -14.237 -21.232  0.00  0.00    +0.152 HD
ENDBRANCH   6   8
BRANCH   2  12
ATOM     12  O   UNL     1      35.367 -18.046 -20.726  0.00  0.00    -0.379 OA
ATOM     13  H   UNL     1      34.466 -18.231 -20.416  0.00  0.00    +0.211 HD
ENDBRANCH   2  12
BRANCH   3  14
ATOM     14  O   UNL     1      36.032 -18.389 -23.505  0.00  0.00    -0.379 OA
ATOM     15  H   UNL     1      35.876 -19.306 -23.234  0.00  0.00    +0.211 HD
ENDBRANCH   3  14
BRANCH   4  16
ATOM     16  O   UNL     1      34.866 -15.247 -20.103  0.00  0.00    -0.378 OA
ATOM     17  H   UNL     1      35.708 -15.654 -19.847  0.00  0.00    +0.211 HD
ENDBRANCH   4  16
BRANCH   5  18
ATOM     18  C   UNL     1      34.184 -16.974 -25.402  0.00  0.00    +0.169 C 
BRANCH  18  19
ATOM     19  O   UNL     1      33.817 -15.872 -26.213  0.00  0.00    -0.379 OA
ATOM     20  H   UNL     1      34.201 -15.060 -25.847  0.00  0.00    +0.211 HD
ENDBRANCH  18  19
ENDBRANCH   5  18
TORSDOF 6
ENDMDL
MODEL 7
REMARK VINA RESULT:      -6.7      2.033      3.230
REMARK  Name = 445382
REMARK  6 active torsions:
REMARK  status: ('A' for Active; 'I' for Inactive)
REMARK    1  A    between atoms: C_2  and  O_12
REMARK    2  A    between atoms: C_3  and  O_14
REMARK    3  A    between atoms: C_4  and  O_16
REMARK    4  A    between atoms: C_5  and  C_18
REMARK    5  A    between atoms: C_6  and  N_8
REMARK    6  A    between atoms: C_18  and  O_19
REMARK                            x       y       z     vdW  Elec       q    Type
REMARK                         _______ _______ _______ _____ _____    ______ ____
ROOT
ATOM      1  O   UNL     1      36.509 -23.211 -13.855  0.00  0.00    -0.333 OA
ATOM      2  C   UNL     1      36.990 -26.039 -13.801  0.00  0.00    +0.171 C 
ATOM      3  C   UNL     1      37.592 -25.090 -12.762  0.00  0.00    +0.169 C 
ATOM      4  C   UNL     1      36.625 -25.302 -15.091  0.00  0.00    +0.186 C 
ATOM      5  C   UNL     1      36.706 -23.850 -12.591  0.00  0.00    +0.175 C 
ATOM      6  C   UNL     1      35.821 -24.040 -14.788  0.00  0.00    +0.221 C 
ENDROOT
BRANCH   6   8
ATOM      7  O   UNL     1      37.785 -22.485 -16.256  0.00  0.00    -0.275 OA
ATOM      8  N   UNL     1      35.607 -23.260 -15.983  0.00  0.00    -0.281 N 
ATOM      9  C   UNL     1      36.612 -22.547 -16.616  0.00  0.00    +0.225 C 
ATOM     10  C   UNL     1      36.123 -21.843 -17.853  0.00  0.00    +0.095 C 
ATOM     11  H   UNL     1      34.701 -23.235 -16.367  0.00  0.00    +0.152 HD
ENDBRANCH   6   8
BRANCH   2  12
ATOM     12  O   UNL     1      37.931 -27.072 -14.100  0.00  0.00    -0.379 OA
ATOM     13  H   UNL     1      38.022 -27.158 -15.062  0.00  0.00    +0.211 HD
ENDBRANCH   2  12
BRANCH   3  14
ATOM     14  O   UNL     1      37.704 -25.795 -11.530  0.00  0.00    -0.379 OA
ATOM     15  H   UNL     1      36.852 -26.205 -11.313  0.00  0.00    +0.211 HD
ENDBRANCH   3  14
BRANCH   4  16
ATOM     16  O   UNL     1      35.840 -26.166 -15.911  0.00  0.00    -0.378 OA
ATOM     17  H   UNL     1      35.018 -26.394 -15.449  0.00  0.00    +0.211 HD
ENDBRANCH   4  16
BRANCH   5  18
ATOM     18  C   UNL     1      37.331 -22.819 -11.657  0.00  0.00    +0.169 C 
BRANCH  18  19
ATOM     19  O   UNL     1      38.735 -23.008 -11.652  0.00  0.00    -0.379 OA
ATOM     20  H   UNL     1      39.022 -23.272 -10.765  0.00  0.00    +0.211 HD
ENDBRANCH  18  19
ENDBRANCH   5  18
TORSDOF 6
ENDMDL
MODEL 8
REMARK VINA RESULT:      -6.6      8.650     12.357
REMARK  Name = 445382
REMARK  6 active torsions:
REMARK  status: ('A' for Active; 'I' for Inactive)
REMARK    1  A    between atoms: C_2  and  O_12
REMARK    2  A    between atoms: C_3  and  O_14
REMARK    3  A    between atoms: C_4  and  O_16
REMARK    4  A    between atoms: C_5  and  C_18
REMARK    5  A    between atoms: C_6  and  N_8
REMARK    6  A    between atoms: C_18  and  O_19
REMARK                            x       y       z     vdW  Elec       q    Type
REMARK                         _______ _______ _______ _____ _____    ______ ____
ROOT
ATOM      1  O   UNL     1      33.803 -16.652 -21.218  0.00  0.00    -0.333 OA
ATOM      2  C   UNL     1      34.924 -16.243 -23.827  0.00  0.00    +0.171 C 
ATOM      3  C   UNL     1      33.890 -15.289 -23.225  0.00  0.00    +0.169 C 
ATOM      4  C   UNL     1      34.852 -17.628 -23.183  0.00  0.00    +0.186 C 
ATOM      5  C   UNL     1      33.964 -15.313 -21.694  0.00  0.00    +0.175 C 
ATOM      6  C   UNL     1      34.843 -17.521 -21.659  0.00  0.00    +0.221 C 
ENDROOT
BRANCH   6   8
ATOM      7  O   UNL     1      36.847 -19.405 -20.728  0.00  0.00    -0.275 OA
ATOM      8  N   UNL     1      34.619 -18.808 -21.048  0.00  0.00    -0.281 N 
ATOM      9  C   UNL     1      35.645 -19.642 -20.634  0.00  0.00    +0.225 C 
ATOM     10  C   UNL     1      35.134 -20.911 -20.007  0.00  0.00    +0.095 C 
ATOM     11  H   UNL     1      33.690 -19.108 -20.919  0.00  0.00    +0.152 HD
ENDBRANCH   6   8
BRANCH   2  12
ATOM     12  O   UNL     1      34.694 -16.365 -25.232  0.00  0.00    -0.379 OA
ATOM     13  H   UNL     1      35.148 -15.645 -25.698  0.00  0.00    +0.211 HD
ENDBRANCH   2  12
BRANCH   3  14
ATOM     14  O   UNL     1      34.159 -13.978 -23.716  0.00  0.00    -0.379 OA
ATOM     15  H   UNL     1      34.378 -14.025 -24.659  0.00  0.00    +0.211 HD
ENDBRANCH   3  14
BRANCH   4  16
ATOM     16  O   UNL     1      35.991 -18.387 -23.587  0.00  0.00    -0.378 OA
ATOM     17  H   UNL     1      35.744 -18.981 -24.313  0.00  0.00    +0.211 HD
ENDBRANCH   4  16
BRANCH   5  18
ATOM     18  C   UNL     1      32.868 -14.470 -21.050  0.00  0.00    +0.169 C 
BRANCH  18  19
ATOM     19  O   UNL     1      31.934 -14.105 -22.050  0.00  0.00    -0.379 OA
ATOM     20  H   UNL     1      31.679 -13.177 -21.930  0.00  0.00    +0.211 HD
ENDBRANCH  18  19
ENDBRANCH   5  18
TORSDOF 6
ENDMDL
MODEL 9
REMARK VINA RESULT:      -6.6     10.118     13.872
REMARK  Name = 445382
REMARK  6 active torsions:
REMARK  status: ('A' for Active; 'I' for Inactive)
REMARK    1  A    between atoms: C_2  and  O_12
REMARK    2  A    between atoms: C_3  and  O_14
REMARK    3  A    between atoms: C_4  and  O_16
REMARK    4  A    between atoms: C_5  and  C_18
REMARK    5  A    between atoms: C_6  and  N_8
REMARK    6  A    between atoms: C_18  and  O_19
REMARK                            x       y       z     vdW  Elec       q    Type
REMARK                         _______ _______ _______ _____ _____    ______ ____
ROOT
ATOM      1  O   UNL     1      33.804 -15.873 -22.652  0.00  0.00    -0.333 OA
ATOM      2  C   UNL     1      33.960 -15.463 -25.487  0.00  0.00    +0.171 C 
ATOM      3  C   UNL     1      33.252 -14.474 -24.558  0.00  0.00    +0.169 C 
ATOM      4  C   UNL     1      34.049 -16.856 -24.862  0.00  0.00    +0.186 C 
ATOM      5  C   UNL     1      33.856 -14.534 -23.150  0.00  0.00    +0.175 C 
ATOM      6  C   UNL     1      34.578 -16.780 -23.432  0.00  0.00    +0.221 C 
ENDROOT
BRANCH   6   8
ATOM      7  O   UNL     1      35.378 -17.431 -20.718  0.00  0.00    -0.275 OA
ATOM      8  N   UNL     1      34.518 -18.067 -22.785  0.00  0.00    -0.281 N 
ATOM      9  C   UNL     1      34.925 -18.282 -21.478  0.00  0.00    +0.225 C 
ATOM     10  C   UNL     1      34.731 -19.711 -21.045  0.00  0.00    +0.095 C 
ATOM     11  H   UNL     1      34.169 -18.832 -23.299  0.00  0.00    +0.152 HD
ENDBRANCH   6   8
BRANCH   2  12
ATOM     12  O   UNL     1      33.248 -15.546 -26.722  0.00  0.00    -0.379 OA
ATOM     13  H   UNL     1      33.508 -16.354 -27.193  0.00  0.00    +0.211 HD
ENDBRANCH   2  12
BRANCH   3  14
ATOM     14  O   UNL     1      33.398 -13.168 -25.108  0.00  0.00    -0.379 OA
ATOM     15  H   UNL     1      32.686 -13.004 -25.745  0.00  0.00    +0.211 HD
ENDBRANCH   3  14
BRANCH   4  16
ATOM     16  O   UNL     1      34.934 -17.659 -25.642  0.00  0.00    -0.378 OA
ATOM     17  H   UNL     1      35.827 -17.282 -25.607  0.00  0.00    +0.211 HD
ENDBRANCH   4  16
BRANCH   5  18
ATOM     18  C   UNL     1      33.098 -13.654 -22.160  0.00  0.00    +0.169 C 
BRANCH  18  19
ATOM     19  O   UNL     1      31.859 -13.288 -22.740  0.00  0.00    -0.379 OA
ATOM     20  H   UNL     1      31.443 -12.596 -22.202  0.00  0.00    +0.211 HD
ENDBRANCH  18  19
ENDBRANCH   5  18
TORSDOF 6
ENDMDL
