MODEL 1
REMARK VINA RESULT:      -9.7      0.000      0.000
REMARK  Name = 16086836
REMARK  8 active torsions:
REMARK  status: ('A' for Active; 'I' for Inactive)
REMARK    1  A    between atoms: C_1  and  C_4
REMARK    2  A    between atoms: C_1  and  C_20
REMARK    3  A    between atoms: N_3  and  C_6
REMARK    4  A    between atoms: C_7  and  O_12
REMARK    5  A    between atoms: C_8  and  O_14
REMARK    6  A    between atoms: C_9  and  C_17
REMARK    7  A    between atoms: C_17  and  O_18
REMARK    8  A    between atoms: C_20  and  C_31
REMARK                            x       y       z     vdW  Elec       q    Type
REMARK                         _______ _______ _______ _____ _____    ______ ____
ROOT
ATOM      1  C   UNL     1      32.309 -13.026 -21.558  0.00  0.00    +0.086 C 
ENDROOT
BRANCH   1   4
ATOM      2  O   UNL     1      30.443 -11.511 -21.370  0.00  0.00    -0.275 OA
ATOM      3  N   UNL     1      32.615 -10.648 -21.600  0.00  0.00    -0.279 N 
ATOM      4  C   UNL     1      31.653 -11.652 -21.504  0.00  0.00    +0.226 C 
ATOM      5  H   UNL     1      33.549 -10.947 -21.686  0.00  0.00    +0.155 HD
BRANCH   3   6
ATOM      6  C   UNL     1      32.405  -9.249 -21.589  0.00  0.00    +0.119 C 
ATOM      7  C   UNL     1      32.239  -8.573 -22.788  0.00  0.00    +0.156 C 
ATOM      8  C   UNL     1      32.370  -8.576 -20.376  0.00  0.00    +0.150 C 
ATOM      9  C   UNL     1      32.033  -7.193 -22.776  0.00  0.00    +0.110 C 
ATOM     10  C   UNL     1      32.164  -7.197 -20.363  0.00  0.00    +0.038 C 
ATOM     11  C   UNL     1      31.996  -6.505 -21.563  0.00  0.00    +0.013 C 
BRANCH   7  12
ATOM     12  O   UNL     1      32.275  -9.244 -23.977  0.00  0.00    -0.504 OA
ATOM     13  H   UNL     1      31.770 -10.026 -24.089  0.00  0.00    +0.292 HD
ENDBRANCH   7  12
BRANCH   8  14
ATOM     14  O   UNL     1      32.533  -9.232 -19.192  0.00  0.00    -0.504 OA
ATOM     15  H   UNL     1      32.287  -8.818 -18.389  0.00  0.00    +0.292 HD
ENDBRANCH   8  14
BRANCH   9  17
ATOM     16  O   UNL     1      30.789  -5.977 -24.417  0.00  0.00    -0.245 OA
ATOM     17  C   UNL     1      31.855  -6.451 -24.015  0.00  0.00    +0.341 C 
BRANCH  17  18
ATOM     18  O   UNL     1      33.016  -6.323 -24.714  0.00  0.00    -0.477 OA
ATOM     19  H   UNL     1      33.415  -7.077 -25.100  0.00  0.00    +0.295 HD
ENDBRANCH  17  18
ENDBRANCH   9  17
ENDBRANCH   3   6
ENDBRANCH   1   4
BRANCH   1  20
ATOM     20  C   UNL     1      32.085 -13.771 -22.860  0.00  0.00    +0.017 C 
BRANCH  20  31
ATOM     21  O   UNL     1      32.957 -17.582 -21.055  0.00  0.00    -0.361 OA
ATOM     22  O   UNL     1      33.035 -13.607 -25.561  0.00  0.00    -0.296 OA
ATOM     23  C   UNL     1      34.509 -16.868 -23.347  0.00  0.00    +0.005 C 
ATOM     24  C   UNL     1      33.367 -15.953 -22.765  0.00  0.00    +0.034 C 
ATOM     25  C   UNL     1      35.315 -17.276 -21.136  0.00  0.00    +0.027 C 
ATOM     26  C   UNL     1      34.167 -18.267 -21.467  0.00  0.00    +0.093 C 
ATOM     27  C   UNL     1      33.263 -16.170 -21.224  0.00  0.00    +0.115 C 
ATOM     28  C   UNL     1      35.800 -16.797 -22.507  0.00  0.00    +0.003 C 
ATOM     29  C   UNL     1      34.120 -18.328 -23.005  0.00  0.00    +0.027 C 
ATOM     30  C   UNL     1      34.581 -16.119 -20.473  0.00  0.00    +0.032 C 
ATOM     31  C   UNL     1      33.361 -14.502 -23.325  0.00  0.00    +0.054 C 
ATOM     32  C   UNL     1      34.776 -16.619 -24.832  0.00  0.00    +0.008 C 
ATOM     33  C   UNL     1      34.251 -19.617 -20.791  0.00  0.00    +0.030 C 
ATOM     34  C   UNL     1      33.608 -15.925 -25.520  0.00  0.00    +0.064 C 
ATOM     35  C   UNL     1      33.317 -14.586 -24.866  0.00  0.00    +0.150 C 
ATOM     36  C   UNL     1      34.571 -13.640 -22.954  0.00  0.00    +0.007 C 
ENDBRANCH  20  31
ENDBRANCH   1  20
TORSDOF 8
ENDMDL
MODEL 2
REMARK VINA RESULT:      -9.3      1.644      2.320
REMARK  Name = 16086836
REMARK  8 active torsions:
REMARK  status: ('A' for Active; 'I' for Inactive)
REMARK    1  A    between atoms: C_1  and  C_4
REMARK    2  A    between atoms: C_1  and  C_20
REMARK    3  A    between atoms: N_3  and  C_6
REMARK    4  A    between atoms: C_7  and  O_12
REMARK    5  A    between atoms: C_8  and  O_14
REMARK    6  A    between atoms: C_9  and  C_17
REMARK    7  A    between atoms: C_17  and  O_18
REMARK    8  A    between atoms: C_20  and  C_31
REMARK                            x       y       z     vdW  Elec       q    Type
REMARK                         _______ _______ _______ _____ _____    ______ ____
ROOT
ATOM      1  C   UNL     1      33.360 -13.471 -22.865  0.00  0.00    +0.086 C 
ENDROOT
BRANCH   1   4
ATOM      2  O   UNL     1      33.546 -12.284 -24.955  0.00  0.00    -0.275 OA
ATOM      3  N   UNL     1      33.379 -11.075 -22.950  0.00  0.00    -0.279 N 
ATOM      4  C   UNL     1      33.449 -12.223 -23.735  0.00  0.00    +0.226 C 
ATOM      5  H   UNL     1      33.284 -11.215 -21.980  0.00  0.00    +0.155 HD
BRANCH   3   6
ATOM      6  C   UNL     1      33.427  -9.728 -23.384  0.00  0.00    +0.119 C 
ATOM      7  C   UNL     1      32.322  -8.912 -23.203  0.00  0.00    +0.156 C 
ATOM      8  C   UNL     1      34.582  -9.249 -23.985  0.00  0.00    +0.150 C 
ATOM      9  C   UNL     1      32.370  -7.586 -23.632  0.00  0.00    +0.110 C 
ATOM     10  C   UNL     1      34.631  -7.923 -24.414  0.00  0.00    +0.038 C 
ATOM     11  C   UNL     1      33.525  -7.091 -24.238  0.00  0.00    +0.013 C 
BRANCH   7  12
ATOM     12  O   UNL     1      31.189  -9.394 -22.610  0.00  0.00    -0.504 OA
ATOM     13  H   UNL     1      31.255 -10.009 -21.906  0.00  0.00    +0.292 HD
ENDBRANCH   7  12
BRANCH   8  14
ATOM     14  O   UNL     1      35.674 -10.045 -24.168  0.00  0.00    -0.504 OA
ATOM     15  H   UNL     1      36.527  -9.728 -23.948  0.00  0.00    +0.292 HD
ENDBRANCH   8  14
BRANCH   9  17
ATOM     16  O   UNL     1      30.661  -6.467 -22.389  0.00  0.00    -0.245 OA
ATOM     17  C   UNL     1      31.228  -6.700 -23.459  0.00  0.00    +0.341 C 
BRANCH  17  18
ATOM     18  O   UNL     1      30.832  -6.130 -24.630  0.00  0.00    -0.477 OA
ATOM     19  H   UNL     1      31.446  -6.022 -25.329  0.00  0.00    +0.295 HD
ENDBRANCH  17  18
ENDBRANCH   9  17
ENDBRANCH   3   6
ENDBRANCH   1   4
BRANCH   1  20
ATOM     20  C   UNL     1      32.837 -14.697 -23.590  0.00  0.00    +0.017 C 
BRANCH  20  31
ATOM     21  O   UNL     1      33.193 -18.072 -20.940  0.00  0.00    -0.361 OA
ATOM     22  O   UNL     1      33.676 -15.321 -26.261  0.00  0.00    -0.296 OA
ATOM     23  C   UNL     1      34.730 -18.170 -23.349  0.00  0.00    +0.005 C 
ATOM     24  C   UNL     1      33.770 -16.974 -22.990  0.00  0.00    +0.034 C 
ATOM     25  C   UNL     1      35.564 -18.176 -21.110  0.00  0.00    +0.027 C 
ATOM     26  C   UNL     1      34.263 -19.020 -21.188  0.00  0.00    +0.093 C 
ATOM     27  C   UNL     1      33.706 -16.806 -21.441  0.00  0.00    +0.115 C 
ATOM     28  C   UNL     1      36.053 -18.114 -22.559  0.00  0.00    +0.003 C 
ATOM     29  C   UNL     1      34.137 -19.428 -22.667  0.00  0.00    +0.027 C 
ATOM     30  C   UNL     1      35.048 -16.795 -20.734  0.00  0.00    +0.032 C 
ATOM     31  C   UNL     1      33.962 -15.711 -23.878  0.00  0.00    +0.054 C 
ATOM     32  C   UNL     1      34.963 -18.320 -24.852  0.00  0.00    +0.008 C 
ATOM     33  C   UNL     1      34.169 -20.171 -20.211  0.00  0.00    +0.030 C 
ATOM     34  C   UNL     1      33.887 -17.627 -25.675  0.00  0.00    +0.064 C 
ATOM     35  C   UNL     1      33.835 -16.143 -25.355  0.00  0.00    +0.150 C 
ATOM     36  C   UNL     1      35.306 -14.992 -23.733  0.00  0.00    +0.007 C 
ENDBRANCH  20  31
ENDBRANCH   1  20
TORSDOF 8
ENDMDL
MODEL 3
REMARK VINA RESULT:      -9.1     12.596     14.834
REMARK  Name = 16086836
REMARK  8 active torsions:
REMARK  status: ('A' for Active; 'I' for Inactive)
REMARK    1  A    between atoms: C_1  and  C_4
REMARK    2  A    between atoms: C_1  and  C_20
REMARK    3  A    between atoms: N_3  and  C_6
REMARK    4  A    between atoms: C_7  and  O_12
REMARK    5  A    between atoms: C_8  and  O_14
REMARK    6  A    between atoms: C_9  and  C_17
REMARK    7  A    between atoms: C_17  and  O_18
REMARK    8  A    between atoms: C_20  and  C_31
REMARK                            x       y       z     vdW  Elec       q    Type
REMARK                         _______ _______ _______ _____ _____    ______ ____
ROOT
ATOM      1  C   UNL     1      34.751 -23.119 -16.443  0.00  0.00    +0.086 C 
ENDROOT
BRANCH   1   4
ATOM      2  O   UNL     1      32.995 -23.820 -17.938  0.00  0.00    -0.275 OA
ATOM      3  N   UNL     1      32.516 -23.503 -15.662  0.00  0.00    -0.279 N 
ATOM      4  C   UNL     1      33.323 -23.517 -16.797  0.00  0.00    +0.226 C 
ATOM      5  H   UNL     1      32.956 -23.249 -14.818  0.00  0.00    +0.155 HD
BRANCH   3   6
ATOM      6  C   UNL     1      31.137 -23.811 -15.580  0.00  0.00    +0.119 C 
ATOM      7  C   UNL     1      30.232 -23.106 -16.358  0.00  0.00    +0.156 C 
ATOM      8  C   UNL     1      30.715 -24.815 -14.720  0.00  0.00    +0.150 C 
ATOM      9  C   UNL     1      28.873 -23.410 -16.276  0.00  0.00    +0.110 C 
ATOM     10  C   UNL     1      29.357 -25.119 -14.637  0.00  0.00    +0.038 C 
ATOM     11  C   UNL     1      28.435 -24.417 -15.415  0.00  0.00    +0.013 C 
BRANCH   7  12
ATOM     12  O   UNL     1      30.658 -22.119 -17.201  0.00  0.00    -0.504 OA
ATOM     13  H   UNL     1      30.640 -21.225 -16.922  0.00  0.00    +0.292 HD
ENDBRANCH   7  12
BRANCH   8  14
ATOM     14  O   UNL     1      31.598 -25.512 -13.951  0.00  0.00    -0.504 OA
ATOM     15  H   UNL     1      31.551 -26.447 -13.914  0.00  0.00    +0.292 HD
ENDBRANCH   8  14
BRANCH   9  17
ATOM     16  O   UNL     1      27.581 -21.506 -16.930  0.00  0.00    -0.245 OA
ATOM     17  C   UNL     1      27.894 -22.691 -17.077  0.00  0.00    +0.341 C 
BRANCH  17  18
ATOM     18  O   UNL     1      27.336 -23.474 -18.040  0.00  0.00    -0.477 OA
ATOM     19  H   UNL     1      27.401 -24.407 -17.980  0.00  0.00    +0.295 HD
ENDBRANCH  17  18
ENDBRANCH   9  17
ENDBRANCH   3   6
ENDBRANCH   1   4
BRANCH   1  20
ATOM     20  C   UNL     1      34.950 -22.757 -14.983  0.00  0.00    +0.017 C 
BRANCH  20  31
ATOM     21  O   UNL     1      39.037 -24.083 -14.684  0.00  0.00    -0.361 OA
ATOM     22  O   UNL     1      33.444 -23.339 -12.613  0.00  0.00    -0.296 OA
ATOM     23  C   UNL     1      37.169 -25.281 -12.881  0.00  0.00    +0.005 C 
ATOM     24  C   UNL     1      36.766 -24.170 -13.923  0.00  0.00    +0.034 C 
ATOM     25  C   UNL     1      38.462 -26.388 -14.558  0.00  0.00    +0.027 C 
ATOM     26  C   UNL     1      39.310 -25.268 -13.895  0.00  0.00    +0.093 C 
ATOM     27  C   UNL     1      37.683 -24.279 -15.180  0.00  0.00    +0.115 C 
ATOM     28  C   UNL     1      37.350 -26.662 -13.542  0.00  0.00    +0.003 C 
ATOM     29  C   UNL     1      38.654 -25.028 -12.523  0.00  0.00    +0.027 C 
ATOM     30  C   UNL     1      37.837 -25.677 -15.749  0.00  0.00    +0.032 C 
ATOM     31  C   UNL     1      35.232 -24.004 -14.121  0.00  0.00    +0.054 C 
ATOM     32  C   UNL     1      36.231 -25.338 -11.675  0.00  0.00    +0.008 C 
ATOM     33  C   UNL     1      40.800 -25.520 -13.840  0.00  0.00    +0.030 C 
ATOM     34  C   UNL     1      35.435 -24.052 -11.501  0.00  0.00    +0.064 C 
ATOM     35  C   UNL     1      34.595 -23.767 -12.734  0.00  0.00    +0.150 C 
ATOM     36  C   UNL     1      34.509 -25.197 -14.751  0.00  0.00    +0.007 C 
ENDBRANCH  20  31
ENDBRANCH   1  20
TORSDOF 8
ENDMDL
MODEL 4
REMARK VINA RESULT:      -8.8      1.800      2.331
REMARK  Name = 16086836
REMARK  8 active torsions:
REMARK  status: ('A' for Active; 'I' for Inactive)
REMARK    1  A    between atoms: C_1  and  C_4
REMARK    2  A    between atoms: C_1  and  C_20
REMARK    3  A    between atoms: N_3  and  C_6
REMARK    4  A    between atoms: C_7  and  O_12
REMARK    5  A    between atoms: C_8  and  O_14
REMARK    6  A    between atoms: C_9  and  C_17
REMARK    7  A    between atoms: C_17  and  O_18
REMARK    8  A    between atoms: C_20  and  C_31
REMARK                            x       y       z     vdW  Elec       q    Type
REMARK                         _______ _______ _______ _____ _____    ______ ____
ROOT
ATOM      1  C   UNL     1      33.788 -13.780 -22.930  0.00  0.00    +0.086 C 
ENDROOT
BRANCH   1   4
ATOM      2  O   UNL     1      33.567 -12.390 -24.887  0.00  0.00    -0.275 OA
ATOM      3  N   UNL     1      33.109 -11.486 -22.770  0.00  0.00    -0.279 N 
ATOM      4  C   UNL     1      33.489 -12.481 -23.667  0.00  0.00    +0.226 C 
ATOM      5  H   UNL     1      33.084 -11.743 -21.820  0.00  0.00    +0.155 HD
BRANCH   3   6
ATOM      6  C   UNL     1      32.753 -10.148 -23.064  0.00  0.00    +0.119 C 
ATOM      7  C   UNL     1      33.712  -9.280 -23.562  0.00  0.00    +0.156 C 
ATOM      8  C   UNL     1      31.448  -9.729 -22.849  0.00  0.00    +0.150 C 
ATOM      9  C   UNL     1      33.361  -7.961 -23.851  0.00  0.00    +0.110 C 
ATOM     10  C   UNL     1      31.096  -8.410 -23.138  0.00  0.00    +0.038 C 
ATOM     11  C   UNL     1      32.053  -7.526 -23.639  0.00  0.00    +0.013 C 
BRANCH   7  12
ATOM     12  O   UNL     1      34.994  -9.703 -23.770  0.00  0.00    -0.504 OA
ATOM     13  H   UNL     1      35.708  -9.107 -23.656  0.00  0.00    +0.292 HD
ENDBRANCH   7  12
BRANCH   8  14
ATOM     14  O   UNL     1      30.498 -10.575 -22.359  0.00  0.00    -0.504 OA
ATOM     15  H   UNL     1      29.781 -10.837 -22.900  0.00  0.00    +0.292 HD
ENDBRANCH   8  14
BRANCH   9  17
ATOM     16  O   UNL     1      34.174  -6.281 -25.346  0.00  0.00    -0.245 OA
ATOM     17  C   UNL     1      34.342  -7.022 -24.374  0.00  0.00    +0.341 C 
BRANCH  17  18
ATOM     18  O   UNL     1      35.503  -7.036 -23.665  0.00  0.00    -0.477 OA
ATOM     19  H   UNL     1      35.511  -6.749 -22.774  0.00  0.00    +0.295 HD
ENDBRANCH  17  18
ENDBRANCH   9  17
ENDBRANCH   3   6
ENDBRANCH   1   4
BRANCH   1  20
ATOM     20  C   UNL     1      33.143 -15.007 -23.547  0.00  0.00    +0.017 C 
BRANCH  20  31
ATOM     21  O   UNL     1      33.374 -18.312 -20.796  0.00  0.00    -0.361 OA
ATOM     22  O   UNL     1      33.824 -15.774 -26.225  0.00  0.00    -0.296 OA
ATOM     23  C   UNL     1      34.798 -18.597 -23.259  0.00  0.00    +0.005 C 
ATOM     24  C   UNL     1      33.940 -17.324 -22.905  0.00  0.00    +0.034 C 
ATOM     25  C   UNL     1      35.723 -18.590 -21.056  0.00  0.00    +0.027 C 
ATOM     26  C   UNL     1      34.364 -19.341 -21.053  0.00  0.00    +0.093 C 
ATOM     27  C   UNL     1      33.952 -17.103 -21.361  0.00  0.00    +0.115 C 
ATOM     28  C   UNL     1      36.154 -18.610 -22.525  0.00  0.00    +0.003 C 
ATOM     29  C   UNL     1      34.148 -19.787 -22.511  0.00  0.00    +0.027 C 
ATOM     30  C   UNL     1      35.321 -17.164 -20.709  0.00  0.00    +0.032 C 
ATOM     31  C   UNL     1      34.182 -16.108 -23.844  0.00  0.00    +0.054 C 
ATOM     32  C   UNL     1      34.957 -18.811 -24.765  0.00  0.00    +0.008 C 
ATOM     33  C   UNL     1      34.231 -20.451 -20.034  0.00  0.00    +0.030 C 
ATOM     34  C   UNL     1      33.898 -18.070 -25.568  0.00  0.00    +0.064 C 
ATOM     35  C   UNL     1      33.963 -16.577 -25.299  0.00  0.00    +0.150 C 
ATOM     36  C   UNL     1      35.578 -15.481 -23.776  0.00  0.00    +0.007 C 
ENDBRANCH  20  31
ENDBRANCH   1  20
TORSDOF 8
ENDMDL
MODEL 5
REMARK VINA RESULT:      -8.6      1.864      9.238
REMARK  Name = 16086836
REMARK  8 active torsions:
REMARK  status: ('A' for Active; 'I' for Inactive)
REMARK    1  A    between atoms: C_1  and  C_4
REMARK    2  A    between atoms: C_1  and  C_20
REMARK    3  A    between atoms: N_3  and  C_6
REMARK    4  A    between atoms: C_7  and  O_12
REMARK    5  A    between atoms: C_8  and  O_14
REMARK    6  A    between atoms: C_9  and  C_17
REMARK    7  A    between atoms: C_17  and  O_18
REMARK    8  A    between atoms: C_20  and  C_31
REMARK                            x       y       z     vdW  Elec       q    Type
REMARK                         _______ _______ _______ _____ _____    ______ ____
ROOT
ATOM      1  C   UNL     1      32.142 -12.099 -23.586  0.00  0.00    +0.086 C 
ENDROOT
BRANCH   1   4
ATOM      2  O   UNL     1      31.983 -14.115 -22.273  0.00  0.00    -0.275 OA
ATOM      3  N   UNL     1      33.395 -14.064 -24.148  0.00  0.00    -0.279 N 
ATOM      4  C   UNL     1      32.486 -13.540 -23.232  0.00  0.00    +0.226 C 
ATOM      5  H   UNL     1      33.681 -13.461 -24.872  0.00  0.00    +0.155 HD
BRANCH   3   6
ATOM      6  C   UNL     1      33.955 -15.364 -24.161  0.00  0.00    +0.119 C 
ATOM      7  C   UNL     1      34.571 -15.854 -23.020  0.00  0.00    +0.156 C 
ATOM      8  C   UNL     1      33.877 -16.127 -25.317  0.00  0.00    +0.150 C 
ATOM      9  C   UNL     1      35.123 -17.135 -23.034  0.00  0.00    +0.110 C 
ATOM     10  C   UNL     1      34.429 -17.408 -25.332  0.00  0.00    +0.038 C 
ATOM     11  C   UNL     1      35.052 -17.912 -24.190  0.00  0.00    +0.013 C 
BRANCH   7  12
ATOM     12  O   UNL     1      34.642 -15.095 -21.886  0.00  0.00    -0.504 OA
ATOM     13  H   UNL     1      33.980 -14.456 -21.709  0.00  0.00    +0.292 HD
ENDBRANCH   7  12
BRANCH   8  14
ATOM     14  O   UNL     1      33.273 -15.653 -26.444  0.00  0.00    -0.504 OA
ATOM     15  H   UNL     1      32.359 -15.801 -26.584  0.00  0.00    +0.292 HD
ENDBRANCH   8  14
BRANCH   9  17
ATOM     16  O   UNL     1      35.376 -17.563 -20.694  0.00  0.00    -0.245 OA
ATOM     17  C   UNL     1      35.778 -17.681 -21.854  0.00  0.00    +0.341 C 
BRANCH  17  18
ATOM     18  O   UNL     1      36.917 -18.361 -22.162  0.00  0.00    -0.477 OA
ATOM     19  H   UNL     1      36.953 -19.290 -22.048  0.00  0.00    +0.295 HD
ENDBRANCH  17  18
ENDBRANCH   9  17
ENDBRANCH   3   6
ENDBRANCH   1   4
BRANCH   1  20
ATOM     20  C   UNL     1      31.293 -11.390 -22.548  0.00  0.00    +0.017 C 
BRANCH  20  31
ATOM     21  O   UNL     1      30.667  -7.349 -23.897  0.00  0.00    -0.361 OA
ATOM     22  O   UNL     1      31.920 -11.516 -19.752  0.00  0.00    -0.296 OA
ATOM     23  C   UNL     1      32.112  -7.670 -21.451  0.00  0.00    +0.005 C 
ATOM     24  C   UNL     1      31.535  -8.884 -22.274  0.00  0.00    +0.034 C 
ATOM     25  C   UNL     1      32.908  -6.675 -23.472  0.00  0.00    +0.027 C 
ATOM     26  C   UNL     1      31.420  -6.292 -23.249  0.00  0.00    +0.093 C 
ATOM     27  C   UNL     1      31.520  -8.522 -23.791  0.00  0.00    +0.115 C 
ATOM     28  C   UNL     1      33.396  -7.095 -22.083  0.00  0.00    +0.003 C 
ATOM     29  C   UNL     1      31.183  -6.464 -21.738  0.00  0.00    +0.027 C 
ATOM     30  C   UNL     1      32.810  -7.929 -24.328  0.00  0.00    +0.032 C 
ATOM     31  C   UNL     1      32.081 -10.272 -21.835  0.00  0.00    +0.054 C 
ATOM     32  C   UNL     1      32.293  -7.987 -19.967  0.00  0.00    +0.008 C 
ATOM     33  C   UNL     1      31.000  -4.948 -23.799  0.00  0.00    +0.030 C 
ATOM     34  C   UNL     1      31.461  -9.182 -19.526  0.00  0.00    +0.064 C 
ATOM     35  C   UNL     1      31.836 -10.422 -20.317  0.00  0.00    +0.150 C 
ATOM     36  C   UNL     1      33.574 -10.508 -22.076  0.00  0.00    +0.007 C 
ENDBRANCH  20  31
ENDBRANCH   1  20
TORSDOF 8
ENDMDL
MODEL 6
REMARK VINA RESULT:      -8.6      2.349      8.946
REMARK  Name = 16086836
REMARK  8 active torsions:
REMARK  status: ('A' for Active; 'I' for Inactive)
REMARK    1  A    between atoms: C_1  and  C_4
REMARK    2  A    between atoms: C_1  and  C_20
REMARK    3  A    between atoms: N_3  and  C_6
REMARK    4  A    between atoms: C_7  and  O_12
REMARK    5  A    between atoms: C_8  and  O_14
REMARK    6  A    between atoms: C_9  and  C_17
REMARK    7  A    between atoms: C_17  and  O_18
REMARK    8  A    between atoms: C_20  and  C_31
REMARK                            x       y       z     vdW  Elec       q    Type
REMARK                         _______ _______ _______ _____ _____    ______ ____
ROOT
ATOM      1  C   UNL     1      32.690 -12.629 -23.260  0.00  0.00    +0.086 C 
ENDROOT
BRANCH   1   4
ATOM      2  O   UNL     1      32.222 -14.705 -22.127  0.00  0.00    -0.275 OA
ATOM      3  N   UNL     1      33.857 -14.650 -23.812  0.00  0.00    -0.279 N 
ATOM      4  C   UNL     1      32.882 -14.113 -22.974  0.00  0.00    +0.226 C 
ATOM      5  H   UNL     1      34.274 -14.027 -24.449  0.00  0.00    +0.155 HD
BRANCH   3   6
ATOM      6  C   UNL     1      34.317 -15.988 -23.853  0.00  0.00    +0.119 C 
ATOM      7  C   UNL     1      34.867 -16.556 -22.714  0.00  0.00    +0.156 C 
ATOM      8  C   UNL     1      34.212 -16.707 -25.034  0.00  0.00    +0.150 C 
ATOM      9  C   UNL     1      35.321 -17.875 -22.756  0.00  0.00    +0.110 C 
ATOM     10  C   UNL     1      34.666 -18.025 -25.077  0.00  0.00    +0.038 C 
ATOM     11  C   UNL     1      35.221 -18.609 -23.937  0.00  0.00    +0.013 C 
BRANCH   7  12
ATOM     12  O   UNL     1      34.966 -15.840 -21.556  0.00  0.00    -0.504 OA
ATOM     13  H   UNL     1      34.216 -15.736 -21.004  0.00  0.00    +0.292 HD
ENDBRANCH   7  12
BRANCH   8  14
ATOM     14  O   UNL     1      33.674 -16.155 -26.159  0.00  0.00    -0.504 OA
ATOM     15  H   UNL     1      32.816 -15.782 -26.134  0.00  0.00    +0.292 HD
ENDBRANCH   8  14
BRANCH   9  17
ATOM     16  O   UNL     1      35.289 -18.807 -20.553  0.00  0.00    -0.245 OA
ATOM     17  C   UNL     1      35.903 -18.505 -21.580  0.00  0.00    +0.341 C 
BRANCH  17  18
ATOM     18  O   UNL     1      37.236 -18.740 -21.724  0.00  0.00    -0.477 OA
ATOM     19  H   UNL     1      37.530 -19.469 -22.233  0.00  0.00    +0.295 HD
ENDBRANCH  17  18
ENDBRANCH   9  17
ENDBRANCH   3   6
ENDBRANCH   1   4
BRANCH   1  20
ATOM     20  C   UNL     1      33.972 -11.891 -23.597  0.00  0.00    +0.017 C 
BRANCH  20  31
ATOM     21  O   UNL     1      32.458  -8.824 -20.980  0.00  0.00    -0.361 OA
ATOM     22  O   UNL     1      35.569 -10.813 -25.722  0.00  0.00    -0.296 OA
ATOM     23  C   UNL     1      33.311  -7.983 -23.576  0.00  0.00    +0.005 C 
ATOM     24  C   UNL     1      33.402  -9.477 -23.084  0.00  0.00    +0.034 C 
ATOM     25  C   UNL     1      31.111  -7.812 -22.660  0.00  0.00    +0.027 C 
ATOM     26  C   UNL     1      32.164  -7.525 -21.555  0.00  0.00    +0.093 C 
ATOM     27  C   UNL     1      32.250  -9.762 -22.073  0.00  0.00    +0.115 C 
ATOM     28  C   UNL     1      31.874  -7.583 -23.967  0.00  0.00    +0.003 C 
ATOM     29  C   UNL     1      33.434  -7.096 -22.312  0.00  0.00    +0.027 C 
ATOM     30  C   UNL     1      30.871  -9.308 -22.517  0.00  0.00    +0.032 C 
ATOM     31  C   UNL     1      33.686 -10.506 -24.215  0.00  0.00    +0.054 C 
ATOM     32  C   UNL     1      34.320  -7.653 -24.677  0.00  0.00    +0.008 C 
ATOM     33  C   UNL     1      31.730  -6.567 -20.469  0.00  0.00    +0.030 C 
ATOM     34  C   UNL     1      35.472  -8.647 -24.720  0.00  0.00    +0.064 C 
ATOM     35  C   UNL     1      34.960 -10.056 -24.962  0.00  0.00    +0.150 C 
ATOM     36  C   UNL     1      32.581 -10.667 -25.263  0.00  0.00    +0.007 C 
ENDBRANCH  20  31
ENDBRANCH   1  20
TORSDOF 8
ENDMDL
MODEL 7
REMARK VINA RESULT:      -8.6      8.432     13.326
REMARK  Name = 16086836
REMARK  8 active torsions:
REMARK  status: ('A' for Active; 'I' for Inactive)
REMARK    1  A    between atoms: C_1  and  C_4
REMARK    2  A    between atoms: C_1  and  C_20
REMARK    3  A    between atoms: N_3  and  C_6
REMARK    4  A    between atoms: C_7  and  O_12
REMARK    5  A    between atoms: C_8  and  O_14
REMARK    6  A    between atoms: C_9  and  C_17
REMARK    7  A    between atoms: C_17  and  O_18
REMARK    8  A    between atoms: C_20  and  C_31
REMARK                            x       y       z     vdW  Elec       q    Type
REMARK                         _______ _______ _______ _____ _____    ______ ____
ROOT
ATOM      1  C   UNL     1      33.483 -23.907 -16.127  0.00  0.00    +0.086 C 
ENDROOT
BRANCH   1   4
ATOM      2  O   UNL     1      33.413 -24.107 -18.528  0.00  0.00    -0.275 OA
ATOM      3  N   UNL     1      34.588 -22.325 -17.550  0.00  0.00    -0.279 N 
ATOM      4  C   UNL     1      33.817 -23.485 -17.552  0.00  0.00    +0.226 C 
ATOM      5  H   UNL     1      34.806 -21.949 -16.667  0.00  0.00    +0.155 HD
BRANCH   3   6
ATOM      6  C   UNL     1      35.096 -21.625 -18.670  0.00  0.00    +0.119 C 
ATOM      7  C   UNL     1      34.218 -20.991 -19.536  0.00  0.00    +0.156 C 
ATOM      8  C   UNL     1      36.467 -21.586 -18.884  0.00  0.00    +0.150 C 
ATOM      9  C   UNL     1      34.719 -20.302 -20.640  0.00  0.00    +0.110 C 
ATOM     10  C   UNL     1      36.969 -20.897 -19.988  0.00  0.00    +0.038 C 
ATOM     11  C   UNL     1      36.095 -20.255 -20.866  0.00  0.00    +0.013 C 
BRANCH   7  12
ATOM     12  O   UNL     1      32.870 -21.036 -19.317  0.00  0.00    -0.504 OA
ATOM     13  H   UNL     1      32.346 -21.679 -19.754  0.00  0.00    +0.292 HD
ENDBRANCH   7  12
BRANCH   8  14
ATOM     14  O   UNL     1      37.338 -22.207 -18.039  0.00  0.00    -0.504 OA
ATOM     15  H   UNL     1      37.206 -23.104 -17.806  0.00  0.00    +0.292 HD
ENDBRANCH   8  14
BRANCH   9  17
ATOM     16  O   UNL     1      32.651 -19.330 -21.344  0.00  0.00    -0.245 OA
ATOM     17  C   UNL     1      33.827 -19.625 -21.569  0.00  0.00    +0.341 C 
BRANCH  17  18
ATOM     18  O   UNL     1      34.434 -19.336 -22.753  0.00  0.00    -0.477 OA
ATOM     19  H   UNL     1      34.005 -19.536 -23.561  0.00  0.00    +0.295 HD
ENDBRANCH  17  18
ENDBRANCH   9  17
ENDBRANCH   3   6
ENDBRANCH   1   4
BRANCH   1  20
ATOM     20  C   UNL     1      34.319 -23.220 -15.064  0.00  0.00    +0.017 C 
BRANCH  20  31
ATOM     21  O   UNL     1      38.493 -24.275 -14.994  0.00  0.00    -0.361 OA
ATOM     22  O   UNL     1      33.142 -23.272 -12.449  0.00  0.00    -0.296 OA
ATOM     23  C   UNL     1      36.935 -25.074 -12.734  0.00  0.00    +0.005 C 
ATOM     24  C   UNL     1      36.338 -24.264 -13.946  0.00  0.00    +0.034 C 
ATOM     25  C   UNL     1      38.097 -26.502 -14.257  0.00  0.00    +0.027 C 
ATOM     26  C   UNL     1      38.937 -25.223 -13.990  0.00  0.00    +0.093 C 
ATOM     27  C   UNL     1      37.108 -24.637 -15.250  0.00  0.00    +0.115 C 
ATOM     28  C   UNL     1      37.133 -26.566 -13.070  0.00  0.00    +0.003 C 
ATOM     29  C   UNL     1      38.431 -24.685 -12.640  0.00  0.00    +0.027 C 
ATOM     30  C   UNL     1      37.291 -26.124 -15.491  0.00  0.00    +0.032 C 
ATOM     31  C   UNL     1      34.784 -24.211 -13.977  0.00  0.00    +0.054 C 
ATOM     32  C   UNL     1      36.149 -24.875 -11.437  0.00  0.00    +0.008 C 
ATOM     33  C   UNL     1      40.437 -25.396 -14.072  0.00  0.00    +0.030 C 
ATOM     34  C   UNL     1      35.293 -23.618 -11.468  0.00  0.00    +0.064 C 
ATOM     35  C   UNL     1      34.298 -23.671 -12.614  0.00  0.00    +0.150 C 
ATOM     36  C   UNL     1      34.076 -25.548 -14.211  0.00  0.00    +0.007 C 
ENDBRANCH  20  31
ENDBRANCH   1  20
TORSDOF 8
ENDMDL
MODEL 8
REMARK VINA RESULT:      -8.2      1.880      9.384
REMARK  Name = 16086836
REMARK  8 active torsions:
REMARK  status: ('A' for Active; 'I' for Inactive)
REMARK    1  A    between atoms: C_1  and  C_4
REMARK    2  A    between atoms: C_1  and  C_20
REMARK    3  A    between atoms: N_3  and  C_6
REMARK    4  A    between atoms: C_7  and  O_12
REMARK    5  A    between atoms: C_8  and  O_14
REMARK    6  A    between atoms: C_9  and  C_17
REMARK    7  A    between atoms: C_17  and  O_18
REMARK    8  A    between atoms: C_20  and  C_31
REMARK                            x       y       z     vdW  Elec       q    Type
REMARK                         _______ _______ _______ _____ _____    ______ ____
ROOT
ATOM      1  C   UNL     1      32.512 -11.326 -23.269  0.00  0.00    +0.086 C 
ENDROOT
BRANCH   1   4
ATOM      2  O   UNL     1      31.771 -13.131 -21.853  0.00  0.00    -0.275 OA
ATOM      3  N   UNL     1      33.690 -13.413 -23.175  0.00  0.00    -0.279 N 
ATOM      4  C   UNL     1      32.596 -12.721 -22.661  0.00  0.00    +0.226 C 
ATOM      5  H   UNL     1      34.240 -12.931 -23.834  0.00  0.00    +0.155 HD
BRANCH   3   6
ATOM      6  C   UNL     1      34.104 -14.729 -22.861  0.00  0.00    +0.119 C 
ATOM      7  C   UNL     1      34.160 -15.685 -23.863  0.00  0.00    +0.156 C 
ATOM      8  C   UNL     1      34.445 -15.040 -21.552  0.00  0.00    +0.150 C 
ATOM      9  C   UNL     1      34.567 -16.983 -23.551  0.00  0.00    +0.110 C 
ATOM     10  C   UNL     1      34.852 -16.337 -21.240  0.00  0.00    +0.038 C 
ATOM     11  C   UNL     1      34.913 -17.309 -22.240  0.00  0.00    +0.013 C 
BRANCH   7  12
ATOM     12  O   UNL     1      33.821 -15.369 -25.147  0.00  0.00    -0.504 OA
ATOM     13  H   UNL     1      33.848 -16.028 -25.814  0.00  0.00    +0.292 HD
ENDBRANCH   7  12
BRANCH   8  14
ATOM     14  O   UNL     1      34.392 -14.107 -20.560  0.00  0.00    -0.504 OA
ATOM     15  H   UNL     1      34.783 -14.284 -19.728  0.00  0.00    +0.292 HD
ENDBRANCH   8  14
BRANCH   9  17
ATOM     16  O   UNL     1      34.635 -17.811 -25.794  0.00  0.00    -0.245 OA
ATOM     17  C   UNL     1      34.638 -18.013 -24.577  0.00  0.00    +0.341 C 
BRANCH  17  18
ATOM     18  O   UNL     1      34.711 -19.265 -24.050  0.00  0.00    -0.477 OA
ATOM     19  H   UNL     1      34.808 -20.006 -24.615  0.00  0.00    +0.295 HD
ENDBRANCH  17  18
ENDBRANCH   9  17
ENDBRANCH   3   6
ENDBRANCH   1   4
BRANCH   1  20
ATOM     20  C   UNL     1      31.548 -10.396 -22.559  0.00  0.00    +0.017 C 
BRANCH  20  31
ATOM     21  O   UNL     1      30.396  -6.706 -24.457  0.00  0.00    -0.361 OA
ATOM     22  O   UNL     1      32.346 -10.010 -19.831  0.00  0.00    -0.296 OA
ATOM     23  C   UNL     1      32.008  -6.485 -22.106  0.00  0.00    +0.005 C 
ATOM     24  C   UNL     1      31.523  -7.866 -22.689  0.00  0.00    +0.034 C 
ATOM     25  C   UNL     1      32.569  -5.749 -24.309  0.00  0.00    +0.027 C 
ATOM     26  C   UNL     1      31.063  -5.489 -24.036  0.00  0.00    +0.093 C 
ATOM     27  C   UNL     1      31.380  -7.755 -24.238  0.00  0.00    +0.115 C 
ATOM     28  C   UNL     1      33.180  -5.890 -22.912  0.00  0.00    +0.003 C 
ATOM     29  C   UNL     1      30.935  -5.441 -22.502  0.00  0.00    +0.027 C 
ATOM     30  C   UNL     1      32.562  -7.127 -24.954  0.00  0.00    +0.032 C 
ATOM     31  C   UNL     1      32.246  -9.104 -22.085  0.00  0.00    +0.054 C 
ATOM     32  C   UNL     1      32.310  -6.541 -20.608  0.00  0.00    +0.008 C 
ATOM     33  C   UNL     1      30.464  -4.298 -24.750  0.00  0.00    +0.030 C 
ATOM     34  C   UNL     1      31.643  -7.729 -19.929  0.00  0.00    +0.064 C 
ATOM     35  C   UNL     1      32.108  -9.035 -20.549  0.00  0.00    +0.150 C 
ATOM     36  C   UNL     1      33.740  -9.223 -22.400  0.00  0.00    +0.007 C 
ENDBRANCH  20  31
ENDBRANCH   1  20
TORSDOF 8
ENDMDL
MODEL 9
REMARK VINA RESULT:      -8.1      1.606      2.821
REMARK  Name = 16086836
REMARK  8 active torsions:
REMARK  status: ('A' for Active; 'I' for Inactive)
REMARK    1  A    between atoms: C_1  and  C_4
REMARK    2  A    between atoms: C_1  and  C_20
REMARK    3  A    between atoms: N_3  and  C_6
REMARK    4  A    between atoms: C_7  and  O_12
REMARK    5  A    between atoms: C_8  and  O_14
REMARK    6  A    between atoms: C_9  and  C_17
REMARK    7  A    between atoms: C_17  and  O_18
REMARK    8  A    between atoms: C_20  and  C_31
REMARK                            x       y       z     vdW  Elec       q    Type
REMARK                         _______ _______ _______ _____ _____    ______ ____
ROOT
ATOM      1  C   UNL     1      33.129 -11.648 -24.073  0.00  0.00    +0.086 C 
ENDROOT
BRANCH   1   4
ATOM      2  O   UNL     1      34.336  -9.573 -23.856  0.00  0.00    -0.275 OA
ATOM      3  N   UNL     1      32.231  -9.796 -22.842  0.00  0.00    -0.279 N 
ATOM      4  C   UNL     1      33.332 -10.219 -23.583  0.00  0.00    +0.226 C 
ATOM      5  H   UNL     1      31.500 -10.447 -22.738  0.00  0.00    +0.155 HD
BRANCH   3   6
ATOM      6  C   UNL     1      32.040  -8.538 -22.222  0.00  0.00    +0.119 C 
ATOM      7  C   UNL     1      31.654  -7.450 -22.988  0.00  0.00    +0.156 C 
ATOM      8  C   UNL     1      32.246  -8.417 -20.855  0.00  0.00    +0.150 C 
ATOM      9  C   UNL     1      31.467  -6.211 -22.376  0.00  0.00    +0.110 C 
ATOM     10  C   UNL     1      32.059  -7.178 -20.242  0.00  0.00    +0.038 C 
ATOM     11  C   UNL     1      31.670  -6.075 -21.003  0.00  0.00    +0.013 C 
BRANCH   7  12
ATOM     12  O   UNL     1      31.454  -7.581 -24.333  0.00  0.00    -0.504 OA
ATOM     13  H   UNL     1      32.184  -7.541 -24.920  0.00  0.00    +0.292 HD
ENDBRANCH   7  12
BRANCH   8  14
ATOM     14  O   UNL     1      32.627  -9.481 -20.094  0.00  0.00    -0.504 OA
ATOM     15  H   UNL     1      33.012  -9.341 -19.252  0.00  0.00    +0.292 HD
ENDBRANCH   8  14
BRANCH   9  17
ATOM     16  O   UNL     1      31.227  -4.901 -24.363  0.00  0.00    -0.245 OA
ATOM     17  C   UNL     1      31.061  -5.046 -23.149  0.00  0.00    +0.341 C 
BRANCH  17  18
ATOM     18  O   UNL     1      30.458  -4.098 -22.380  0.00  0.00    -0.477 OA
ATOM     19  H   UNL     1      30.968  -3.586 -21.784  0.00  0.00    +0.295 HD
ENDBRANCH  17  18
ENDBRANCH   9  17
ENDBRANCH   3   6
ENDBRANCH   1   4
BRANCH   1  20
ATOM     20  C   UNL     1      34.065 -12.660 -23.441  0.00  0.00    +0.017 C 
BRANCH  20  31
ATOM     21  O   UNL     1      36.206 -16.338 -22.784  0.00  0.00    -0.361 OA
ATOM     22  O   UNL     1      32.018 -12.231 -21.479  0.00  0.00    -0.296 OA
ATOM     23  C   UNL     1      33.640 -16.114 -21.544  0.00  0.00    +0.005 C 
ATOM     24  C   UNL     1      34.282 -14.961 -22.405  0.00  0.00    +0.034 C 
ATOM     25  C   UNL     1      34.309 -17.717 -23.185  0.00  0.00    +0.027 C 
ATOM     26  C   UNL     1      35.481 -17.451 -22.201  0.00  0.00    +0.093 C 
ATOM     27  C   UNL     1      35.194 -15.583 -23.507  0.00  0.00    +0.115 C 
ATOM     28  C   UNL     1      33.069 -17.248 -22.419  0.00  0.00    +0.003 C 
ATOM     29  C   UNL     1      34.818 -16.906 -20.924  0.00  0.00    +0.027 C 
ATOM     30  C   UNL     1      34.571 -16.716 -24.301  0.00  0.00    +0.032 C 
ATOM     31  C   UNL     1      33.291 -13.828 -22.798  0.00  0.00    +0.054 C 
ATOM     32  C   UNL     1      32.619 -15.603 -20.527  0.00  0.00    +0.008 C 
ATOM     33  C   UNL     1      36.419 -18.614 -21.971  0.00  0.00    +0.030 C 
ATOM     34  C   UNL     1      32.789 -14.119 -20.234  0.00  0.00    +0.064 C 
ATOM     35  C   UNL     1      32.636 -13.299 -21.503  0.00  0.00    +0.150 C 
ATOM     36  C   UNL     1      32.157 -14.232 -23.745  0.00  0.00    +0.007 C 
ENDBRANCH  20  31
ENDBRANCH   1  20
TORSDOF 8
ENDMDL
