MODEL 1
REMARK VINA RESULT:      -8.1      0.000      0.000
REMARK  Name = 2765
REMARK  4 active torsions:
REMARK  status: ('A' for Active; 'I' for Inactive)
REMARK    1  A    between atoms: C_1  and  C_7
REMARK    2  A    between atoms: C_2  and  O_10
REMARK    3  A    between atoms: O_10  and  C_11
REMARK    4  A    between atoms: C_11  and  C_14
REMARK                            x       y       z     vdW  Elec       q    Type
REMARK                         _______ _______ _______ _____ _____    ______ ____
ROOT
ATOM      1  C   UNL     1      34.646 -16.851 -22.309  0.00  0.00    +0.011 C 
ATOM      2  C   UNL     1      34.545 -18.233 -22.223  0.00  0.00    +0.135 C 
ATOM      3  C   UNL     1      34.813 -16.251 -23.557  0.00  0.00    -0.001 C 
ATOM      4  C   UNL     1      34.609 -19.026 -23.360  0.00  0.00    +0.037 C 
ATOM      5  C   UNL     1      34.878 -17.038 -24.707  0.00  0.00    -0.000 C 
ATOM      6  C   UNL     1      34.776 -18.426 -24.608  0.00  0.00    +0.003 C 
ENDROOT
BRANCH   1   7
ATOM      7  C   UNL     1      34.577 -15.994 -21.088  0.00  0.00    +0.025 C 
ATOM      8  C   UNL     1      34.310 -14.531 -21.240  0.00  0.00    +0.005 C 
ATOM      9  C   UNL     1      33.257 -15.433 -20.667  0.00  0.00    +0.005 C 
ENDBRANCH   1   7
BRANCH   2  10
ATOM     10  O   UNL     1      34.381 -18.843 -21.001  0.00  0.00    -0.468 OA
BRANCH  10  11
ATOM     11  C   UNL     1      33.315 -19.760 -20.876  0.00  0.00    +0.266 C 
BRANCH  11  14
ATOM     12  N   UNL     1      35.085 -20.953 -19.596  0.00  0.00    -0.296 N 
ATOM     13  N   UNL     1      32.958 -21.753 -19.492  0.00  0.00    -0.228 NA
ATOM     14  C   UNL     1      33.781 -20.856 -19.975  0.00  0.00    +0.154 C 
ATOM     15  C   UNL     1      35.258 -22.059 -18.706  0.00  0.00    +0.084 C 
ATOM     16  C   UNL     1      33.834 -22.633 -18.659  0.00  0.00    +0.116 C 
ATOM     17  H   UNL     1      35.804 -20.350 -19.894  0.00  0.00    +0.153 HD
ENDBRANCH  11  14
ENDBRANCH  10  11
ENDBRANCH   2  10
TORSDOF 4
ENDMDL
MODEL 2
REMARK VINA RESULT:      -7.7      0.951      3.033
REMARK  Name = 2765
REMARK  4 active torsions:
REMARK  status: ('A' for Active; 'I' for Inactive)
REMARK    1  A    between atoms: C_1  and  C_7
REMARK    2  A    between atoms: C_2  and  O_10
REMARK    3  A    between atoms: O_10  and  C_11
REMARK    4  A    between atoms: C_11  and  C_14
REMARK                            x       y       z     vdW  Elec       q    Type
REMARK                         _______ _______ _______ _____ _____    ______ ____
ROOT
ATOM      1  C   UNL     1      34.946 -16.679 -22.987  0.00  0.00    +0.011 C 
ATOM      2  C   UNL     1      34.954 -17.137 -21.677  0.00  0.00    +0.135 C 
ATOM      3  C   UNL     1      34.642 -15.342 -23.247  0.00  0.00    -0.001 C 
ATOM      4  C   UNL     1      34.664 -16.284 -20.621  0.00  0.00    +0.037 C 
ATOM      5  C   UNL     1      34.349 -14.476 -22.193  0.00  0.00    -0.000 C 
ATOM      6  C   UNL     1      34.359 -14.948 -20.880  0.00  0.00    +0.003 C 
ENDROOT
BRANCH   1   7
ATOM      7  C   UNL     1      35.259 -17.592 -24.126  0.00  0.00    +0.025 C 
ATOM      8  C   UNL     1      34.179 -18.471 -24.673  0.00  0.00    +0.005 C 
ATOM      9  C   UNL     1      34.675 -17.302 -25.472  0.00  0.00    +0.005 C 
ENDBRANCH   1   7
BRANCH   2  10
ATOM     10  O   UNL     1      35.251 -18.452 -21.402  0.00  0.00    -0.468 OA
BRANCH  10  11
ATOM     11  C   UNL     1      34.165 -19.322 -21.165  0.00  0.00    +0.266 C 
BRANCH  11  14
ATOM     12  N   UNL     1      33.790 -21.302 -19.706  0.00  0.00    -0.296 N 
ATOM     13  N   UNL     1      35.908 -20.495 -19.902  0.00  0.00    -0.228 NA
ATOM     14  C   UNL     1      34.646 -20.384 -20.233  0.00  0.00    +0.154 C 
ATOM     15  C   UNL     1      34.506 -22.227 -18.882  0.00  0.00    +0.084 C 
ATOM     16  C   UNL     1      35.934 -21.667 -18.974  0.00  0.00    +0.116 C 
ATOM     17  H   UNL     1      32.819 -21.324 -19.867  0.00  0.00    +0.153 HD
ENDBRANCH  11  14
ENDBRANCH  10  11
ENDBRANCH   2  10
TORSDOF 4
ENDMDL
MODEL 3
REMARK VINA RESULT:      -7.7      4.033      8.412
REMARK  Name = 2765
REMARK  4 active torsions:
REMARK  status: ('A' for Active; 'I' for Inactive)
REMARK    1  A    between atoms: C_1  and  C_7
REMARK    2  A    between atoms: C_2  and  O_10
REMARK    3  A    between atoms: O_10  and  C_11
REMARK    4  A    between atoms: C_11  and  C_14
REMARK                            x       y       z     vdW  Elec       q    Type
REMARK                         _______ _______ _______ _____ _____    ______ ____
ROOT
ATOM      1  C   UNL     1      30.571 -23.055 -15.779  0.00  0.00    +0.011 C 
ATOM      2  C   UNL     1      31.862 -23.032 -16.289  0.00  0.00    +0.135 C 
ATOM      3  C   UNL     1      30.365 -23.413 -14.447  0.00  0.00    -0.001 C 
ATOM      4  C   UNL     1      32.950 -23.359 -15.492  0.00  0.00    +0.037 C 
ATOM      5  C   UNL     1      31.451 -23.743 -13.636  0.00  0.00    -0.000 C 
ATOM      6  C   UNL     1      32.745 -23.716 -14.160  0.00  0.00    +0.003 C 
ENDROOT
BRANCH   1   7
ATOM      7  C   UNL     1      29.398 -22.703 -16.632  0.00  0.00    +0.025 C 
ATOM      8  C   UNL     1      28.302 -23.705 -16.812  0.00  0.00    +0.005 C 
ATOM      9  C   UNL     1      28.070 -22.475 -15.984  0.00  0.00    +0.005 C 
ENDBRANCH   1   7
BRANCH   2  10
ATOM     10  O   UNL     1      32.085 -22.683 -17.601  0.00  0.00    -0.468 OA
BRANCH  10  11
ATOM     11  C   UNL     1      33.384 -22.896 -18.113  0.00  0.00    +0.266 C 
BRANCH  11  14
ATOM     12  N   UNL     1      32.644 -21.035 -19.591  0.00  0.00    -0.296 N 
ATOM     13  N   UNL     1      34.864 -21.528 -19.510  0.00  0.00    -0.228 NA
ATOM     14  C   UNL     1      33.653 -21.806 -19.097  0.00  0.00    +0.154 C 
ATOM     15  C   UNL     1      33.171 -20.045 -20.479  0.00  0.00    +0.084 C 
ATOM     16  C   UNL     1      34.667 -20.394 -20.464  0.00  0.00    +0.116 C 
ATOM     17  H   UNL     1      31.691 -21.145 -19.368  0.00  0.00    +0.153 HD
ENDBRANCH  11  14
ENDBRANCH  10  11
ENDBRANCH   2  10
TORSDOF 4
ENDMDL
MODEL 4
REMARK VINA RESULT:      -7.5      5.695      8.313
REMARK  Name = 2765
REMARK  4 active torsions:
REMARK  status: ('A' for Active; 'I' for Inactive)
REMARK    1  A    between atoms: C_1  and  C_7
REMARK    2  A    between atoms: C_2  and  O_10
REMARK    3  A    between atoms: O_10  and  C_11
REMARK    4  A    between atoms: C_11  and  C_14
REMARK                            x       y       z     vdW  Elec       q    Type
REMARK                         _______ _______ _______ _____ _____    ______ ____
ROOT
ATOM      1  C   UNL     1      33.294 -23.177 -17.136  0.00  0.00    +0.011 C 
ATOM      2  C   UNL     1      34.101 -23.596 -16.087  0.00  0.00    +0.135 C 
ATOM      3  C   UNL     1      31.951 -22.886 -16.895  0.00  0.00    -0.001 C 
ATOM      4  C   UNL     1      33.591 -23.730 -14.803  0.00  0.00    +0.037 C 
ATOM      5  C   UNL     1      31.428 -23.016 -15.609  0.00  0.00    -0.000 C 
ATOM      6  C   UNL     1      32.249 -23.439 -14.562  0.00  0.00    +0.003 C 
ENDROOT
BRANCH   1   7
ATOM      7  C   UNL     1      33.837 -23.030 -18.518  0.00  0.00    +0.025 C 
ATOM      8  C   UNL     1      33.461 -21.829 -19.325  0.00  0.00    +0.005 C 
ATOM      9  C   UNL     1      34.856 -21.970 -18.791  0.00  0.00    +0.005 C 
ENDBRANCH   1   7
BRANCH   2  10
ATOM     10  O   UNL     1      35.427 -23.889 -16.305  0.00  0.00    -0.468 OA
BRANCH  10  11
ATOM     11  C   UNL     1      36.380 -23.148 -15.572  0.00  0.00    +0.266 C 
BRANCH  11  14
ATOM     12  N   UNL     1      37.345 -25.425 -15.296  0.00  0.00    -0.296 N 
ATOM     13  N   UNL     1      38.009 -23.793 -13.857  0.00  0.00    -0.228 NA
ATOM     14  C   UNL     1      37.263 -24.132 -14.877  0.00  0.00    +0.154 C 
ATOM     15  C   UNL     1      38.285 -26.144 -14.492  0.00  0.00    +0.084 C 
ATOM     16  C   UNL     1      38.711 -25.061 -13.488  0.00  0.00    +0.116 C 
ATOM     17  H   UNL     1      36.832 -25.809 -16.044  0.00  0.00    +0.153 HD
ENDBRANCH  11  14
ENDBRANCH  10  11
ENDBRANCH   2  10
TORSDOF 4
ENDMDL
MODEL 5
REMARK VINA RESULT:      -7.5      3.401      5.885
REMARK  Name = 2765
REMARK  4 active torsions:
REMARK  status: ('A' for Active; 'I' for Inactive)
REMARK    1  A    between atoms: C_1  and  C_7
REMARK    2  A    between atoms: C_2  and  O_10
REMARK    3  A    between atoms: O_10  and  C_11
REMARK    4  A    between atoms: C_11  and  C_14
REMARK                            x       y       z     vdW  Elec       q    Type
REMARK                         _______ _______ _______ _____ _____    ______ ____
ROOT
ATOM      1  C   UNL     1      34.972 -18.285 -22.580  0.00  0.00    +0.011 C 
ATOM      2  C   UNL     1      34.836 -16.989 -23.057  0.00  0.00    +0.135 C 
ATOM      3  C   UNL     1      34.843 -19.359 -23.461  0.00  0.00    -0.001 C 
ATOM      4  C   UNL     1      34.573 -16.746 -24.398  0.00  0.00    +0.037 C 
ATOM      5  C   UNL     1      34.580 -19.126 -24.811  0.00  0.00    -0.000 C 
ATOM      6  C   UNL     1      34.444 -17.818 -25.279  0.00  0.00    +0.003 C 
ENDROOT
BRANCH   1   7
ATOM      7  C   UNL     1      35.256 -18.552 -21.139  0.00  0.00    +0.025 C 
ATOM      8  C   UNL     1      35.138 -19.950 -20.620  0.00  0.00    +0.005 C 
ATOM      9  C   UNL     1      36.488 -19.313 -20.769  0.00  0.00    +0.005 C 
ENDBRANCH   1   7
BRANCH   2  10
ATOM     10  O   UNL     1      34.959 -15.917 -22.203  0.00  0.00    -0.468 OA
BRANCH  10  11
ATOM     11  C   UNL     1      33.787 -15.472 -21.554  0.00  0.00    +0.266 C 
BRANCH  11  14
ATOM     12  N   UNL     1      34.204 -13.569 -23.102  0.00  0.00    -0.296 N 
ATOM     13  N   UNL     1      32.271 -13.576 -21.902  0.00  0.00    -0.228 NA
ATOM     14  C   UNL     1      33.401 -14.174 -22.184  0.00  0.00    +0.154 C 
ATOM     15  C   UNL     1      33.589 -12.368 -23.577  0.00  0.00    +0.084 C 
ATOM     16  C   UNL     1      32.300 -12.340 -22.742  0.00  0.00    +0.116 C 
ATOM     17  H   UNL     1      35.080 -13.909 -23.395  0.00  0.00    +0.153 HD
ENDBRANCH  11  14
ENDBRANCH  10  11
ENDBRANCH   2  10
TORSDOF 4
ENDMDL
MODEL 6
REMARK VINA RESULT:      -7.5      5.298      7.526
REMARK  Name = 2765
REMARK  4 active torsions:
REMARK  status: ('A' for Active; 'I' for Inactive)
REMARK    1  A    between atoms: C_1  and  C_7
REMARK    2  A    between atoms: C_2  and  O_10
REMARK    3  A    between atoms: O_10  and  C_11
REMARK    4  A    between atoms: C_11  and  C_14
REMARK                            x       y       z     vdW  Elec       q    Type
REMARK                         _______ _______ _______ _____ _____    ______ ____
ROOT
ATOM      1  C   UNL     1      34.412 -15.512 -22.916  0.00  0.00    +0.011 C 
ATOM      2  C   UNL     1      33.859 -14.968 -24.067  0.00  0.00    +0.135 C 
ATOM      3  C   UNL     1      34.954 -16.797 -22.955  0.00  0.00    -0.001 C 
ATOM      4  C   UNL     1      33.838 -15.684 -25.256  0.00  0.00    +0.037 C 
ATOM      5  C   UNL     1      34.939 -17.525 -24.144  0.00  0.00    -0.000 C 
ATOM      6  C   UNL     1      34.380 -16.968 -25.295  0.00  0.00    +0.003 C 
ENDROOT
BRANCH   1   7
ATOM      7  C   UNL     1      34.438 -14.746 -21.635  0.00  0.00    +0.025 C 
ATOM      8  C   UNL     1      33.285 -14.865 -20.691  0.00  0.00    +0.005 C 
ATOM      9  C   UNL     1      34.607 -15.487 -20.348  0.00  0.00    +0.005 C 
ENDBRANCH   1   7
BRANCH   2  10
ATOM     10  O   UNL     1      33.319 -13.703 -24.048  0.00  0.00    -0.468 OA
BRANCH  10  11
ATOM     11  C   UNL     1      33.563 -12.880 -25.170  0.00  0.00    +0.266 C 
BRANCH  11  14
ATOM     12  N   UNL     1      34.989 -10.845 -25.046  0.00  0.00    -0.296 N 
ATOM     13  N   UNL     1      33.066 -10.888 -23.829  0.00  0.00    -0.228 NA
ATOM     14  C   UNL     1      33.868 -11.512 -24.655  0.00  0.00    +0.154 C 
ATOM     15  C   UNL     1      35.024  -9.548 -24.443  0.00  0.00    +0.084 C 
ATOM     16  C   UNL     1      33.749  -9.580 -23.586  0.00  0.00    +0.116 C 
ATOM     17  H   UNL     1      35.675 -11.204 -25.654  0.00  0.00    +0.153 HD
ENDBRANCH  11  14
ENDBRANCH  10  11
ENDBRANCH   2  10
TORSDOF 4
ENDMDL
MODEL 7
REMARK VINA RESULT:      -7.4      5.003      7.768
REMARK  Name = 2765
REMARK  4 active torsions:
REMARK  status: ('A' for Active; 'I' for Inactive)
REMARK    1  A    between atoms: C_1  and  C_7
REMARK    2  A    between atoms: C_2  and  O_10
REMARK    3  A    between atoms: O_10  and  C_11
REMARK    4  A    between atoms: C_11  and  C_14
REMARK                            x       y       z     vdW  Elec       q    Type
REMARK                         _______ _______ _______ _____ _____    ______ ____
ROOT
ATOM      1  C   UNL     1      34.799 -16.078 -23.216  0.00  0.00    +0.011 C 
ATOM      2  C   UNL     1      34.460 -14.797 -22.802  0.00  0.00    +0.135 C 
ATOM      3  C   UNL     1      34.996 -17.079 -22.264  0.00  0.00    -0.001 C 
ATOM      4  C   UNL     1      34.315 -14.498 -21.454  0.00  0.00    +0.037 C 
ATOM      5  C   UNL     1      34.852 -16.790 -20.908  0.00  0.00    -0.000 C 
ATOM      6  C   UNL     1      34.511 -15.498 -20.502  0.00  0.00    +0.003 C 
ENDROOT
BRANCH   1   7
ATOM      7  C   UNL     1      34.956 -16.405 -24.664  0.00  0.00    +0.025 C 
ATOM      8  C   UNL     1      34.565 -17.764 -25.151  0.00  0.00    +0.005 C 
ATOM      9  C   UNL     1      33.734 -16.568 -25.510  0.00  0.00    +0.005 C 
ENDBRANCH   1   7
BRANCH   2  10
ATOM     10  O   UNL     1      34.263 -13.797 -23.725  0.00  0.00    -0.468 OA
BRANCH  10  11
ATOM     11  C   UNL     1      33.079 -13.038 -23.611  0.00  0.00    +0.266 C 
BRANCH  11  14
ATOM     12  N   UNL     1      34.593 -11.211 -24.361  0.00  0.00    -0.296 N 
ATOM     13  N   UNL     1      32.737 -10.650 -23.170  0.00  0.00    -0.228 NA
ATOM     14  C   UNL     1      33.467 -11.599 -23.700  0.00  0.00    +0.154 C 
ATOM     15  C   UNL     1      34.713  -9.786 -24.333  0.00  0.00    +0.084 C 
ATOM     16  C   UNL     1      33.486  -9.397 -23.494  0.00  0.00    +0.116 C 
ATOM     17  H   UNL     1      35.230 -11.823 -24.796  0.00  0.00    +0.153 HD
ENDBRANCH  11  14
ENDBRANCH  10  11
ENDBRANCH   2  10
TORSDOF 4
ENDMDL
MODEL 8
REMARK VINA RESULT:      -7.4      4.062      6.400
REMARK  Name = 2765
REMARK  4 active torsions:
REMARK  status: ('A' for Active; 'I' for Inactive)
REMARK    1  A    between atoms: C_1  and  C_7
REMARK    2  A    between atoms: C_2  and  O_10
REMARK    3  A    between atoms: O_10  and  C_11
REMARK    4  A    between atoms: C_11  and  C_14
REMARK                            x       y       z     vdW  Elec       q    Type
REMARK                         _______ _______ _______ _____ _____    ______ ____
ROOT
ATOM      1  C   UNL     1      34.701 -16.773 -22.222  0.00  0.00    +0.011 C 
ATOM      2  C   UNL     1      34.820 -17.235 -23.525  0.00  0.00    +0.135 C 
ATOM      3  C   UNL     1      34.719 -17.684 -21.165  0.00  0.00    -0.001 C 
ATOM      4  C   UNL     1      34.957 -18.590 -23.792  0.00  0.00    +0.037 C 
ATOM      5  C   UNL     1      34.857 -19.048 -21.422  0.00  0.00    -0.000 C 
ATOM      6  C   UNL     1      34.976 -19.501 -22.736  0.00  0.00    +0.003 C 
ENDROOT
BRANCH   1   7
ATOM      7  C   UNL     1      34.554 -15.316 -21.929  0.00  0.00    +0.025 C 
ATOM      8  C   UNL     1      33.224 -14.792 -21.492  0.00  0.00    +0.005 C 
ATOM      9  C   UNL     1      34.359 -14.875 -20.514  0.00  0.00    +0.005 C 
ENDBRANCH   1   7
BRANCH   2  10
ATOM     10  O   UNL     1      34.804 -16.352 -24.580  0.00  0.00    -0.468 OA
BRANCH  10  11
ATOM     11  C   UNL     1      33.629 -16.303 -25.361  0.00  0.00    +0.266 C 
BRANCH  11  14
ATOM     12  N   UNL     1      33.412 -13.845 -25.045  0.00  0.00    -0.296 N 
ATOM     13  N   UNL     1      33.511 -14.652 -27.170  0.00  0.00    -0.228 NA
ATOM     14  C   UNL     1      33.507 -14.911 -25.887  0.00  0.00    +0.154 C 
ATOM     15  C   UNL     1      33.347 -12.629 -25.797  0.00  0.00    +0.084 C 
ATOM     16  C   UNL     1      33.372 -13.165 -27.236  0.00  0.00    +0.116 C 
ATOM     17  H   UNL     1      33.390 -13.903 -24.062  0.00  0.00    +0.153 HD
ENDBRANCH  11  14
ENDBRANCH  10  11
ENDBRANCH   2  10
TORSDOF 4
ENDMDL
MODEL 9
REMARK VINA RESULT:      -7.2      5.964      8.626
REMARK  Name = 2765
REMARK  4 active torsions:
REMARK  status: ('A' for Active; 'I' for Inactive)
REMARK    1  A    between atoms: C_1  and  C_7
REMARK    2  A    between atoms: C_2  and  O_10
REMARK    3  A    between atoms: O_10  and  C_11
REMARK    4  A    between atoms: C_11  and  C_14
REMARK                            x       y       z     vdW  Elec       q    Type
REMARK                         _______ _______ _______ _____ _____    ______ ____
ROOT
ATOM      1  C   UNL     1      32.020  -9.617 -21.532  0.00  0.00    +0.011 C 
ATOM      2  C   UNL     1      32.708  -9.798 -22.724  0.00  0.00    +0.135 C 
ATOM      3  C   UNL     1      32.120  -8.400 -20.858  0.00  0.00    -0.001 C 
ATOM      4  C   UNL     1      33.494  -8.785 -23.255  0.00  0.00    +0.037 C 
ATOM      5  C   UNL     1      32.907  -7.374 -21.383  0.00  0.00    -0.000 C 
ATOM      6  C   UNL     1      33.594  -7.568 -22.582  0.00  0.00    +0.003 C 
ENDROOT
BRANCH   1   7
ATOM      7  C   UNL     1      31.173 -10.704 -20.956  0.00  0.00    +0.025 C 
ATOM      8  C   UNL     1      31.807 -11.734 -20.077  0.00  0.00    +0.005 C 
ATOM      9  C   UNL     1      30.888 -10.704 -19.488  0.00  0.00    +0.005 C 
ENDBRANCH   1   7
BRANCH   2  10
ATOM     10  O   UNL     1      32.622 -10.992 -23.401  0.00  0.00    -0.468 OA
BRANCH  10  11
ATOM     11  C   UNL     1      33.770 -11.418 -24.105  0.00  0.00    +0.266 C 
BRANCH  11  14
ATOM     12  N   UNL     1      34.379 -13.588 -23.049  0.00  0.00    -0.296 N 
ATOM     13  N   UNL     1      33.197 -13.631 -24.993  0.00  0.00    -0.228 NA
ATOM     14  C   UNL     1      33.780 -12.911 -24.067  0.00  0.00    +0.154 C 
ATOM     15  C   UNL     1      34.213 -14.997 -23.230  0.00  0.00    +0.084 C 
ATOM     16  C   UNL     1      33.450 -15.041 -24.563  0.00  0.00    +0.116 C 
ATOM     17  H   UNL     1      34.858 -13.167 -22.298  0.00  0.00    +0.153 HD
ENDBRANCH  11  14
ENDBRANCH  10  11
ENDBRANCH   2  10
TORSDOF 4
ENDMDL
