MODEL 1
REMARK VINA RESULT:     -10.2      0.000      0.000
REMARK  Name = 11553058
REMARK  6 active torsions:
REMARK  status: ('A' for Active; 'I' for Inactive)
REMARK    1  A    between atoms: C_3  and  N_22
REMARK    2  A    between atoms: C_5  and  C_10
REMARK    3  A    between atoms: C_7  and  C_16
REMARK    4  A    between atoms: N_22  and  C_24
REMARK    5  A    between atoms: C_24  and  C_25
REMARK    6  A    between atoms: C_25  and  N_26
REMARK                            x       y       z     vdW  Elec       q    Type
REMARK                         _______ _______ _______ _____ _____    ______ ____
ROOT
ATOM      1  O   UNL     1      31.950 -10.331 -22.010  0.00  0.00    -0.436 OA
ATOM      2  N   UNL     1      31.677 -12.292 -20.679  0.00  0.00    -0.210 NA
ATOM      3  C   UNL     1      33.308 -13.571 -22.680  0.00  0.00    +0.051 C 
ATOM      4  C   UNL     1      32.966 -12.201 -22.764  0.00  0.00    +0.070 A 
ATOM      5  C   UNL     1      33.233 -11.145 -23.670  0.00  0.00    +0.040 A 
ATOM      6  C   UNL     1      32.172 -11.654 -21.756  0.00  0.00    +0.231 A 
ATOM      7  C   UNL     1      32.595 -10.034 -23.168  0.00  0.00    +0.147 A 
ATOM      8  C   UNL     1      32.808 -14.268 -21.568  0.00  0.00    +0.035 C 
ATOM      9  C   UNL     1      32.026 -13.599 -20.635  0.00  0.00    +0.103 C 
ENDROOT
BRANCH   5  10
ATOM     10  C   UNL     1      33.997 -11.134 -24.886  0.00  0.00    +0.003 C 
ATOM     11  C   UNL     1      33.624 -11.955 -25.951  0.00  0.00    +0.000 C 
ATOM     12  C   UNL     1      35.112 -10.304 -25.002  0.00  0.00    +0.000 C 
ATOM     13  C   UNL     1      34.367 -11.945 -27.132  0.00  0.00    +0.000 C 
ATOM     14  C   UNL     1      35.854 -10.294 -26.183  0.00  0.00    +0.000 C 
ATOM     15  C   UNL     1      35.481 -11.115 -27.248  0.00  0.00    +0.000 C 
ENDBRANCH   5  10
BRANCH   7  16
ATOM     16  C   UNL     1      32.467  -8.666 -23.590  0.00  0.00    +0.035 C 
ATOM     17  C   UNL     1      31.214  -8.153 -23.935  0.00  0.00    +0.003 C 
ATOM     18  C   UNL     1      33.593  -7.844 -23.661  0.00  0.00    +0.003 C 
ATOM     19  C   UNL     1      31.089  -6.827 -24.346  0.00  0.00    +0.000 C 
ATOM     20  C   UNL     1      33.468  -6.517 -24.072  0.00  0.00    +0.000 C 
ATOM     21  C   UNL     1      32.216  -6.008 -24.414  0.00  0.00    +0.000 C 
ENDBRANCH   7  16
BRANCH   3  22
ATOM     22  N   UNL     1      34.091 -14.221 -23.622  0.00  0.00    -0.334 N 
ATOM     23  H   UNL     1      35.023 -13.925 -23.735  0.00  0.00    +0.147 HD
BRANCH  22  24
ATOM     24  C   UNL     1      33.616 -15.308 -24.445  0.00  0.00    +0.064 C 
BRANCH  24  25
ATOM     25  C   UNL     1      34.670 -16.407 -24.497  0.00  0.00    -0.056 C 
BRANCH  25  26
ATOM     26  N   UNL     1      34.541 -17.288 -23.339  0.00  0.00    +0.385 N 
ATOM     27  N   UNL     1      35.586 -19.153 -21.381  0.00  0.00    +0.381 N 
ATOM     28  C   UNL     1      34.854 -18.677 -23.702  0.00  0.00    -0.101 C 
ATOM     29  C   UNL     1      35.404 -16.835 -22.240  0.00  0.00    -0.101 C 
ATOM     30  C   UNL     1      34.729 -19.596 -22.484  0.00  0.00    -0.105 C 
ATOM     31  C   UNL     1      35.277 -17.766 -21.031  0.00  0.00    -0.105 C 
ATOM     32  H   UNL     1      33.573 -17.252 -23.020  0.00  0.00    -0.080 HD
ATOM     33  H   UNL     1      36.564 -19.221 -21.666  0.00  0.00    -0.085 HD
ATOM     34  H   UNL     1      35.419 -19.748 -20.569  0.00  0.00    -0.085 HD
ENDBRANCH  25  26
ENDBRANCH  24  25
ENDBRANCH  22  24
ENDBRANCH   3  22
TORSDOF 6
ENDMDL
MODEL 2
REMARK VINA RESULT:     -10.2      0.033      1.248
REMARK  Name = 11553058
REMARK  6 active torsions:
REMARK  status: ('A' for Active; 'I' for Inactive)
REMARK    1  A    between atoms: C_3  and  N_22
REMARK    2  A    between atoms: C_5  and  C_10
REMARK    3  A    between atoms: C_7  and  C_16
REMARK    4  A    between atoms: N_22  and  C_24
REMARK    5  A    between atoms: C_24  and  C_25
REMARK    6  A    between atoms: C_25  and  N_26
REMARK                            x       y       z     vdW  Elec       q    Type
REMARK                         _______ _______ _______ _____ _____    ______ ____
ROOT
ATOM      1  O   UNL     1      31.956 -10.318 -22.013  0.00  0.00    -0.436 OA
ATOM      2  N   UNL     1      31.681 -12.276 -20.678  0.00  0.00    -0.210 NA
ATOM      3  C   UNL     1      33.316 -13.560 -22.673  0.00  0.00    +0.051 C 
ATOM      4  C   UNL     1      32.973 -12.189 -22.760  0.00  0.00    +0.070 A 
ATOM      5  C   UNL     1      33.242 -11.136 -23.669  0.00  0.00    +0.040 A 
ATOM      6  C   UNL     1      32.178 -11.640 -21.755  0.00  0.00    +0.231 A 
ATOM      7  C   UNL     1      32.603 -10.024 -23.170  0.00  0.00    +0.147 A 
ATOM      8  C   UNL     1      32.813 -14.254 -21.560  0.00  0.00    +0.035 C 
ATOM      9  C   UNL     1      32.030 -13.583 -20.629  0.00  0.00    +0.103 C 
ENDROOT
BRANCH   5  10
ATOM     10  C   UNL     1      34.007 -11.128 -24.883  0.00  0.00    +0.003 C 
ATOM     11  C   UNL     1      35.123 -10.299 -25.000  0.00  0.00    +0.000 C 
ATOM     12  C   UNL     1      33.634 -11.948 -25.949  0.00  0.00    +0.000 C 
ATOM     13  C   UNL     1      35.866 -10.290 -26.181  0.00  0.00    +0.000 C 
ATOM     14  C   UNL     1      34.377 -11.939 -27.129  0.00  0.00    +0.000 C 
ATOM     15  C   UNL     1      35.493 -11.111 -27.245  0.00  0.00    +0.000 C 
ENDBRANCH   5  10
BRANCH   7  16
ATOM     16  C   UNL     1      32.476  -8.657 -23.597  0.00  0.00    +0.035 C 
ATOM     17  C   UNL     1      33.602  -7.831 -23.647  0.00  0.00    +0.003 C 
ATOM     18  C   UNL     1      31.227  -8.147 -23.958  0.00  0.00    +0.003 C 
ATOM     19  C   UNL     1      33.478  -6.504 -24.059  0.00  0.00    +0.000 C 
ATOM     20  C   UNL     1      31.104  -6.820 -24.369  0.00  0.00    +0.000 C 
ATOM     21  C   UNL     1      32.230  -5.998 -24.421  0.00  0.00    +0.000 C 
ENDBRANCH   7  16
BRANCH   3  22
ATOM     22  N   UNL     1      34.099 -14.212 -23.611  0.00  0.00    -0.334 N 
ATOM     23  H   UNL     1      35.038 -13.931 -23.709  0.00  0.00    +0.147 HD
BRANCH  22  24
ATOM     24  C   UNL     1      33.617 -15.281 -24.454  0.00  0.00    +0.064 C 
BRANCH  24  25
ATOM     25  C   UNL     1      34.665 -16.383 -24.530  0.00  0.00    -0.056 C 
BRANCH  25  26
ATOM     26  N   UNL     1      34.545 -17.278 -23.381  0.00  0.00    +0.385 N 
ATOM     27  N   UNL     1      35.601 -19.170 -21.455  0.00  0.00    +0.381 N 
ATOM     28  C   UNL     1      34.847 -18.663 -23.763  0.00  0.00    -0.101 C 
ATOM     29  C   UNL     1      35.420 -16.841 -22.285  0.00  0.00    -0.101 C 
ATOM     30  C   UNL     1      34.732 -19.596 -22.555  0.00  0.00    -0.105 C 
ATOM     31  C   UNL     1      35.302 -17.785 -21.086  0.00  0.00    -0.105 C 
ATOM     32  H   UNL     1      33.580 -17.241 -23.052  0.00  0.00    -0.080 HD
ATOM     33  H   UNL     1      36.576 -19.237 -21.751  0.00  0.00    -0.085 HD
ATOM     34  H   UNL     1      35.440 -19.773 -20.649  0.00  0.00    -0.085 HD
ENDBRANCH  25  26
ENDBRANCH  24  25
ENDBRANCH  22  24
ENDBRANCH   3  22
TORSDOF 6
ENDMDL
MODEL 3
REMARK VINA RESULT:      -9.9      2.562      8.087
REMARK  Name = 11553058
REMARK  6 active torsions:
REMARK  status: ('A' for Active; 'I' for Inactive)
REMARK    1  A    between atoms: C_3  and  N_22
REMARK    2  A    between atoms: C_5  and  C_10
REMARK    3  A    between atoms: C_7  and  C_16
REMARK    4  A    between atoms: N_22  and  C_24
REMARK    5  A    between atoms: C_24  and  C_25
REMARK    6  A    between atoms: C_25  and  N_26
REMARK                            x       y       z     vdW  Elec       q    Type
REMARK                         _______ _______ _______ _____ _____    ______ ____
ROOT
ATOM      1  O   UNL     1      32.462 -13.741 -22.084  0.00  0.00    -0.436 OA
ATOM      2  N   UNL     1      31.209 -12.273 -20.683  0.00  0.00    -0.210 NA
ATOM      3  C   UNL     1      32.084 -10.208 -22.491  0.00  0.00    +0.051 C 
ATOM      4  C   UNL     1      32.461 -11.561 -22.668  0.00  0.00    +0.070 A 
ATOM      5  C   UNL     1      33.248 -12.278 -23.603  0.00  0.00    +0.040 A 
ATOM      6  C   UNL     1      31.997 -12.503 -21.750  0.00  0.00    +0.231 A 
ATOM      7  C   UNL     1      33.217 -13.594 -23.204  0.00  0.00    +0.147 A 
ATOM      8  C   UNL     1      31.262  -9.933 -21.386  0.00  0.00    +0.035 C 
ATOM      9  C   UNL     1      30.870 -10.969 -20.548  0.00  0.00    +0.103 C 
ENDROOT
BRANCH   5  10
ATOM     10  C   UNL     1      33.969 -11.820 -24.757  0.00  0.00    +0.003 C 
ATOM     11  C   UNL     1      34.922 -10.810 -24.628  0.00  0.00    +0.000 C 
ATOM     12  C   UNL     1      33.714 -12.383 -26.008  0.00  0.00    +0.000 C 
ATOM     13  C   UNL     1      35.622 -10.364 -25.750  0.00  0.00    +0.000 C 
ATOM     14  C   UNL     1      34.413 -11.937 -27.129  0.00  0.00    +0.000 C 
ATOM     15  C   UNL     1      35.367 -10.928 -27.000  0.00  0.00    +0.000 C 
ENDBRANCH   5  10
BRANCH   7  16
ATOM     16  C   UNL     1      33.793 -14.814 -23.702  0.00  0.00    +0.035 C 
ATOM     17  C   UNL     1      34.689 -15.539 -22.912  0.00  0.00    +0.003 C 
ATOM     18  C   UNL     1      33.462 -15.278 -24.977  0.00  0.00    +0.003 C 
ATOM     19  C   UNL     1      35.249 -16.722 -23.395  0.00  0.00    +0.000 C 
ATOM     20  C   UNL     1      34.023 -16.461 -25.460  0.00  0.00    +0.000 C 
ATOM     21  C   UNL     1      34.916 -17.183 -24.668  0.00  0.00    +0.000 C 
ENDBRANCH   7  16
BRANCH   3  22
ATOM     22  N   UNL     1      32.485  -9.188 -23.339  0.00  0.00    -0.334 N 
ATOM     23  H   UNL     1      32.254  -9.260 -24.294  0.00  0.00    +0.147 HD
BRANCH  22  24
ATOM     24  C   UNL     1      33.221  -8.025 -22.902  0.00  0.00    +0.064 C 
BRANCH  24  25
ATOM     25  C   UNL     1      33.086  -6.916 -23.937  0.00  0.00    -0.056 C 
BRANCH  25  26
ATOM     26  N   UNL     1      31.916  -6.090 -23.647  0.00  0.00    +0.385 N 
ATOM     27  N   UNL     1      30.605  -3.785 -22.477  0.00  0.00    +0.381 N 
ATOM     28  C   UNL     1      31.689  -5.997 -22.199  0.00  0.00    -0.101 C 
ATOM     29  C   UNL     1      32.062  -4.752 -24.234  0.00  0.00    -0.101 C 
ATOM     30  C   UNL     1      30.469  -5.123 -21.896  0.00  0.00    -0.105 C 
ATOM     31  C   UNL     1      30.841  -3.885 -23.919  0.00  0.00    -0.105 C 
ATOM     32  H   UNL     1      31.101  -6.536 -24.069  0.00  0.00    -0.080 HD
ATOM     33  H   UNL     1      31.391  -3.305 -22.038  0.00  0.00    -0.085 HD
ATOM     34  H   UNL     1      29.744  -3.262 -22.315  0.00  0.00    -0.085 HD
ENDBRANCH  25  26
ENDBRANCH  24  25
ENDBRANCH  22  24
ENDBRANCH   3  22
TORSDOF 6
ENDMDL
MODEL 4
REMARK VINA RESULT:      -9.6      2.545      8.071
REMARK  Name = 11553058
REMARK  6 active torsions:
REMARK  status: ('A' for Active; 'I' for Inactive)
REMARK    1  A    between atoms: C_3  and  N_22
REMARK    2  A    between atoms: C_5  and  C_10
REMARK    3  A    between atoms: C_7  and  C_16
REMARK    4  A    between atoms: N_22  and  C_24
REMARK    5  A    between atoms: C_24  and  C_25
REMARK    6  A    between atoms: C_25  and  N_26
REMARK                            x       y       z     vdW  Elec       q    Type
REMARK                         _______ _______ _______ _____ _____    ______ ____
ROOT
ATOM      1  O   UNL     1      32.936 -14.039 -20.683  0.00  0.00    -0.436 OA
ATOM      2  N   UNL     1      31.879 -12.284 -19.460  0.00  0.00    -0.210 NA
ATOM      3  C   UNL     1      31.720 -10.947 -22.006  0.00  0.00    +0.051 C 
ATOM      4  C   UNL     1      32.302 -12.230 -21.875  0.00  0.00    +0.070 A 
ATOM      5  C   UNL     1      32.906 -13.162 -22.755  0.00  0.00    +0.040 A 
ATOM      6  C   UNL     1      32.342 -12.812 -20.608  0.00  0.00    +0.231 A 
ATOM      7  C   UNL     1      33.272 -14.240 -21.983  0.00  0.00    +0.147 A 
ATOM      8  C   UNL     1      31.227 -10.366 -20.827  0.00  0.00    +0.035 C 
ATOM      9  C   UNL     1      31.330 -11.058 -19.627  0.00  0.00    +0.103 C 
ENDROOT
BRANCH   5  10
ATOM     10  C   UNL     1      33.136 -13.090 -24.170  0.00  0.00    +0.003 C 
ATOM     11  C   UNL     1      32.601 -14.063 -25.014  0.00  0.00    +0.000 C 
ATOM     12  C   UNL     1      33.897 -12.048 -24.702  0.00  0.00    +0.000 C 
ATOM     13  C   UNL     1      32.825 -13.994 -26.389  0.00  0.00    +0.000 C 
ATOM     14  C   UNL     1      34.121 -11.979 -26.076  0.00  0.00    +0.000 C 
ATOM     15  C   UNL     1      33.585 -12.952 -26.920  0.00  0.00    +0.000 C 
ENDBRANCH   5  10
BRANCH   7  16
ATOM     16  C   UNL     1      33.916 -15.499 -22.247  0.00  0.00    +0.035 C 
ATOM     17  C   UNL     1      33.750 -16.569 -21.364  0.00  0.00    +0.003 C 
ATOM     18  C   UNL     1      34.712 -15.656 -23.382  0.00  0.00    +0.003 C 
ATOM     19  C   UNL     1      34.375 -17.789 -21.618  0.00  0.00    +0.000 C 
ATOM     20  C   UNL     1      35.338 -16.877 -23.636  0.00  0.00    +0.000 C 
ATOM     21  C   UNL     1      35.169 -17.944 -22.754  0.00  0.00    +0.000 C 
ENDBRANCH   7  16
BRANCH   3  22
ATOM     22  N   UNL     1      31.626 -10.272 -23.214  0.00  0.00    -0.334 N 
ATOM     23  H   UNL     1      31.775 -10.781 -24.043  0.00  0.00    +0.147 HD
BRANCH  22  24
ATOM     24  C   UNL     1      31.320  -8.865 -23.324  0.00  0.00    +0.064 C 
BRANCH  24  25
ATOM     25  C   UNL     1      32.612  -8.069 -23.448  0.00  0.00    -0.056 C 
BRANCH  25  26
ATOM     26  N   UNL     1      32.338  -6.638 -23.343  0.00  0.00    +0.385 N 
ATOM     27  N   UNL     1      30.709  -4.279 -23.771  0.00  0.00    +0.381 N 
ATOM     28  C   UNL     1      32.214  -6.030 -24.674  0.00  0.00    -0.101 C 
ATOM     29  C   UNL     1      31.126  -6.395 -22.549  0.00  0.00    -0.101 C 
ATOM     30  C   UNL     1      31.917  -4.533 -24.561  0.00  0.00    -0.105 C 
ATOM     31  C   UNL     1      30.835  -4.895 -22.449  0.00  0.00    -0.105 C 
ATOM     32  H   UNL     1      33.126  -6.200 -22.865  0.00  0.00    -0.080 HD
ATOM     33  H   UNL     1      29.902  -4.674 -24.253  0.00  0.00    -0.085 HD
ATOM     34  H   UNL     1      30.589  -3.272 -23.660  0.00  0.00    -0.085 HD
ENDBRANCH  25  26
ENDBRANCH  24  25
ENDBRANCH  22  24
ENDBRANCH   3  22
TORSDOF 6
ENDMDL
MODEL 5
REMARK VINA RESULT:      -9.4     10.089     14.115
REMARK  Name = 11553058
REMARK  6 active torsions:
REMARK  status: ('A' for Active; 'I' for Inactive)
REMARK    1  A    between atoms: C_3  and  N_22
REMARK    2  A    between atoms: C_5  and  C_10
REMARK    3  A    between atoms: C_7  and  C_16
REMARK    4  A    between atoms: N_22  and  C_24
REMARK    5  A    between atoms: C_24  and  C_25
REMARK    6  A    between atoms: C_25  and  N_26
REMARK                            x       y       z     vdW  Elec       q    Type
REMARK                         _______ _______ _______ _____ _____    ______ ____
ROOT
ATOM      1  O   UNL     1      31.692 -22.538 -17.741  0.00  0.00    -0.436 OA
ATOM      2  N   UNL     1      29.897 -23.382 -16.415  0.00  0.00    -0.210 NA
ATOM      3  C   UNL     1      31.974 -24.288 -14.635  0.00  0.00    +0.051 C 
ATOM      4  C   UNL     1      32.270 -23.593 -15.832  0.00  0.00    +0.070 A 
ATOM      5  C   UNL     1      33.451 -23.162 -16.484  0.00  0.00    +0.040 A 
ATOM      6  C   UNL     1      31.210 -23.187 -16.642  0.00  0.00    +0.231 A 
ATOM      7  C   UNL     1      33.046 -22.528 -17.636  0.00  0.00    +0.147 A 
ATOM      8  C   UNL     1      30.612 -24.510 -14.368  0.00  0.00    +0.035 C 
ATOM      9  C   UNL     1      29.655 -24.050 -15.262  0.00  0.00    +0.103 C 
ENDROOT
BRANCH   5  10
ATOM     10  C   UNL     1      34.828 -23.307 -16.106  0.00  0.00    +0.003 C 
ATOM     11  C   UNL     1      35.630 -22.176 -15.944  0.00  0.00    +0.000 C 
ATOM     12  C   UNL     1      35.366 -24.578 -15.903  0.00  0.00    +0.000 C 
ATOM     13  C   UNL     1      36.969 -22.317 -15.578  0.00  0.00    +0.000 C 
ATOM     14  C   UNL     1      36.705 -24.719 -15.538  0.00  0.00    +0.000 C 
ATOM     15  C   UNL     1      37.506 -23.589 -15.375  0.00  0.00    +0.000 C 
ENDBRANCH   5  10
BRANCH   7  16
ATOM     16  C   UNL     1      33.725 -21.875 -18.723  0.00  0.00    +0.035 C 
ATOM     17  C   UNL     1      33.059 -20.917 -19.491  0.00  0.00    +0.003 C 
ATOM     18  C   UNL     1      35.051 -22.198 -19.017  0.00  0.00    +0.003 C 
ATOM     19  C   UNL     1      33.717 -20.285 -20.546  0.00  0.00    +0.000 C 
ATOM     20  C   UNL     1      35.709 -21.566 -20.072  0.00  0.00    +0.000 C 
ATOM     21  C   UNL     1      35.042 -20.609 -20.837  0.00  0.00    +0.000 C 
ENDBRANCH   7  16
BRANCH   3  22
ATOM     22  N   UNL     1      32.944 -24.739 -13.754  0.00  0.00    -0.334 N 
ATOM     23  H   UNL     1      33.146 -25.703 -13.739  0.00  0.00    +0.147 HD
BRANCH  22  24
ATOM     24  C   UNL     1      33.676 -23.876 -12.858  0.00  0.00    +0.064 C 
BRANCH  24  25
ATOM     25  C   UNL     1      34.632 -24.708 -12.013  0.00  0.00    -0.056 C 
BRANCH  25  26
ATOM     26  N   UNL     1      36.017 -24.359 -12.322  0.00  0.00    +0.385 N 
ATOM     27  N   UNL     1      38.794 -23.927 -11.613  0.00  0.00    +0.381 N 
ATOM     28  C   UNL     1      36.435 -23.166 -11.575  0.00  0.00    -0.101 C 
ATOM     29  C   UNL     1      36.915 -25.487 -12.039  0.00  0.00    -0.101 C 
ATOM     30  C   UNL     1      37.889 -22.809 -11.892  0.00  0.00    -0.105 C 
ATOM     31  C   UNL     1      38.367 -25.116 -12.352  0.00  0.00    -0.105 C 
ATOM     32  H   UNL     1      36.075 -24.148 -13.319  0.00  0.00    -0.080 HD
ATOM     33  H   UNL     1      38.782 -24.128 -10.613  0.00  0.00    -0.085 HD
ATOM     34  H   UNL     1      39.738 -23.673 -11.905  0.00  0.00    -0.085 HD
ENDBRANCH  25  26
ENDBRANCH  24  25
ENDBRANCH  22  24
ENDBRANCH   3  22
TORSDOF 6
ENDMDL
MODEL 6
REMARK VINA RESULT:      -9.4     10.118     14.127
REMARK  Name = 11553058
REMARK  6 active torsions:
REMARK  status: ('A' for Active; 'I' for Inactive)
REMARK    1  A    between atoms: C_3  and  N_22
REMARK    2  A    between atoms: C_5  and  C_10
REMARK    3  A    between atoms: C_7  and  C_16
REMARK    4  A    between atoms: N_22  and  C_24
REMARK    5  A    between atoms: C_24  and  C_25
REMARK    6  A    between atoms: C_25  and  N_26
REMARK                            x       y       z     vdW  Elec       q    Type
REMARK                         _______ _______ _______ _____ _____    ______ ____
ROOT
ATOM      1  O   UNL     1      31.705 -22.548 -17.736  0.00  0.00    -0.436 OA
ATOM      2  N   UNL     1      29.909 -23.384 -16.406  0.00  0.00    -0.210 NA
ATOM      3  C   UNL     1      31.984 -24.288 -14.624  0.00  0.00    +0.051 C 
ATOM      4  C   UNL     1      32.281 -23.598 -15.823  0.00  0.00    +0.070 A 
ATOM      5  C   UNL     1      33.463 -23.171 -16.478  0.00  0.00    +0.040 A 
ATOM      6  C   UNL     1      31.222 -23.192 -16.634  0.00  0.00    +0.231 A 
ATOM      7  C   UNL     1      33.059 -22.541 -17.632  0.00  0.00    +0.147 A 
ATOM      8  C   UNL     1      30.622 -24.505 -14.356  0.00  0.00    +0.035 C 
ATOM      9  C   UNL     1      29.665 -24.046 -15.251  0.00  0.00    +0.103 C 
ENDROOT
BRANCH   5  10
ATOM     10  C   UNL     1      34.840 -23.318 -16.100  0.00  0.00    +0.003 C 
ATOM     11  C   UNL     1      35.380 -24.590 -15.910  0.00  0.00    +0.000 C 
ATOM     12  C   UNL     1      35.639 -22.188 -15.920  0.00  0.00    +0.000 C 
ATOM     13  C   UNL     1      36.718 -24.733 -15.542  0.00  0.00    +0.000 C 
ATOM     14  C   UNL     1      36.976 -22.330 -15.551  0.00  0.00    +0.000 C 
ATOM     15  C   UNL     1      37.516 -23.603 -15.363  0.00  0.00    +0.000 C 
ENDBRANCH   5  10
BRANCH   7  16
ATOM     16  C   UNL     1      33.739 -21.894 -18.721  0.00  0.00    +0.035 C 
ATOM     17  C   UNL     1      35.079 -22.190 -18.985  0.00  0.00    +0.003 C 
ATOM     18  C   UNL     1      33.066 -20.966 -19.518  0.00  0.00    +0.003 C 
ATOM     19  C   UNL     1      35.740 -21.562 -20.040  0.00  0.00    +0.000 C 
ATOM     20  C   UNL     1      33.727 -20.338 -20.573  0.00  0.00    +0.000 C 
ATOM     21  C   UNL     1      35.064 -20.636 -20.835  0.00  0.00    +0.000 C 
ENDBRANCH   7  16
BRANCH   3  22
ATOM     22  N   UNL     1      32.953 -24.737 -13.741  0.00  0.00    -0.334 N 
ATOM     23  H   UNL     1      33.158 -25.700 -13.727  0.00  0.00    +0.147 HD
BRANCH  22  24
ATOM     24  C   UNL     1      33.681 -23.873 -12.842  0.00  0.00    +0.064 C 
BRANCH  24  25
ATOM     25  C   UNL     1      34.641 -24.704 -12.001  0.00  0.00    -0.056 C 
BRANCH  25  26
ATOM     26  N   UNL     1      36.025 -24.358 -12.320  0.00  0.00    +0.385 N 
ATOM     27  N   UNL     1      38.808 -23.933 -11.631  0.00  0.00    +0.381 N 
ATOM     28  C   UNL     1      36.451 -23.166 -11.574  0.00  0.00    -0.101 C 
ATOM     29  C   UNL     1      36.922 -25.488 -12.045  0.00  0.00    -0.101 C 
ATOM     30  C   UNL     1      37.904 -22.813 -11.902  0.00  0.00    -0.105 C 
ATOM     31  C   UNL     1      38.373 -25.120 -12.369  0.00  0.00    -0.105 C 
ATOM     32  H   UNL     1      36.076 -24.145 -13.316  0.00  0.00    -0.080 HD
ATOM     33  H   UNL     1      38.803 -24.136 -10.631  0.00  0.00    -0.085 HD
ATOM     34  H   UNL     1      39.750 -23.681 -11.930  0.00  0.00    -0.085 HD
ENDBRANCH  25  26
ENDBRANCH  24  25
ENDBRANCH  22  24
ENDBRANCH   3  22
TORSDOF 6
ENDMDL
MODEL 7
REMARK VINA RESULT:      -9.1      2.853      8.319
REMARK  Name = 11553058
REMARK  6 active torsions:
REMARK  status: ('A' for Active; 'I' for Inactive)
REMARK    1  A    between atoms: C_3  and  N_22
REMARK    2  A    between atoms: C_5  and  C_10
REMARK    3  A    between atoms: C_7  and  C_16
REMARK    4  A    between atoms: N_22  and  C_24
REMARK    5  A    between atoms: C_24  and  C_25
REMARK    6  A    between atoms: C_25  and  N_26
REMARK                            x       y       z     vdW  Elec       q    Type
REMARK                         _______ _______ _______ _____ _____    ______ ____
ROOT
ATOM      1  O   UNL     1      34.189 -15.862 -26.048  0.00  0.00    -0.436 OA
ATOM      2  N   UNL     1      33.832 -13.963 -27.447  0.00  0.00    -0.210 NA
ATOM      3  C   UNL     1      33.298 -12.566 -24.984  0.00  0.00    +0.051 C 
ATOM      4  C   UNL     1      33.637 -13.940 -25.002  0.00  0.00    +0.070 A 
ATOM      5  C   UNL     1      33.810 -14.952 -24.025  0.00  0.00    +0.040 A 
ATOM      6  C   UNL     1      33.881 -14.547 -26.234  0.00  0.00    +0.231 A 
ATOM      7  C   UNL     1      34.144 -16.097 -24.711  0.00  0.00    +0.147 A 
ATOM      8  C   UNL     1      33.237 -11.927 -26.234  0.00  0.00    +0.035 C 
ATOM      9  C   UNL     1      33.505 -12.651 -27.388  0.00  0.00    +0.103 C 
ENDROOT
BRANCH   5  10
ATOM     10  C   UNL     1      33.685 -14.896 -22.596  0.00  0.00    +0.003 C 
ATOM     11  C   UNL     1      32.421 -14.892 -22.006  0.00  0.00    +0.000 C 
ATOM     12  C   UNL     1      34.828 -14.843 -21.797  0.00  0.00    +0.000 C 
ATOM     13  C   UNL     1      32.299 -14.836 -20.617  0.00  0.00    +0.000 C 
ATOM     14  C   UNL     1      34.706 -14.787 -20.409  0.00  0.00    +0.000 C 
ATOM     15  C   UNL     1      33.442 -14.784 -19.819  0.00  0.00    +0.000 C 
ENDBRANCH   5  10
BRANCH   7  16
ATOM     16  C   UNL     1      34.447 -17.450 -24.330  0.00  0.00    +0.035 C 
ATOM     17  C   UNL     1      34.262 -18.493 -25.242  0.00  0.00    +0.003 C 
ATOM     18  C   UNL     1      34.924 -17.729 -23.048  0.00  0.00    +0.003 C 
ATOM     19  C   UNL     1      34.554 -19.806 -24.873  0.00  0.00    +0.000 C 
ATOM     20  C   UNL     1      35.215 -19.042 -22.679  0.00  0.00    +0.000 C 
ATOM     21  C   UNL     1      35.031 -20.081 -23.591  0.00  0.00    +0.000 C 
ENDBRANCH   7  16
BRANCH   3  22
ATOM     22  N   UNL     1      33.035 -11.860 -23.821  0.00  0.00    -0.334 N 
ATOM     23  H   UNL     1      32.555 -12.322 -23.096  0.00  0.00    +0.147 HD
BRANCH  22  24
ATOM     24  C   UNL     1      33.425 -10.486 -23.612  0.00  0.00    +0.064 C 
BRANCH  24  25
ATOM     25  C   UNL     1      32.190  -9.596 -23.628  0.00  0.00    -0.056 C 
BRANCH  25  26
ATOM     26  N   UNL     1      31.937  -9.055 -22.294  0.00  0.00    +0.385 N 
ATOM     27  N   UNL     1      32.655  -8.548 -19.531  0.00  0.00    +0.381 N 
ATOM     28  C   UNL     1      31.910 -10.128 -21.291  0.00  0.00    -0.101 C 
ATOM     29  C   UNL     1      32.944  -8.044 -21.942  0.00  0.00    -0.101 C 
ATOM     30  C   UNL     1      31.657  -9.557 -19.894  0.00  0.00    -0.105 C 
ATOM     31  C   UNL     1      32.685  -7.486 -20.540  0.00  0.00    -0.105 C 
ATOM     32  H   UNL     1      31.023  -8.604 -22.303  0.00  0.00    -0.080 HD
ATOM     33  H   UNL     1      33.574  -8.987 -19.476  0.00  0.00    -0.085 HD
ATOM     34  H   UNL     1      32.409  -8.144 -18.628  0.00  0.00    -0.085 HD
ENDBRANCH  25  26
ENDBRANCH  24  25
ENDBRANCH  22  24
ENDBRANCH   3  22
TORSDOF 6
ENDMDL
MODEL 8
REMARK VINA RESULT:      -9.1      1.740      3.773
REMARK  Name = 11553058
REMARK  6 active torsions:
REMARK  status: ('A' for Active; 'I' for Inactive)
REMARK    1  A    between atoms: C_3  and  N_22
REMARK    2  A    between atoms: C_5  and  C_10
REMARK    3  A    between atoms: C_7  and  C_16
REMARK    4  A    between atoms: N_22  and  C_24
REMARK    5  A    between atoms: C_24  and  C_25
REMARK    6  A    between atoms: C_25  and  N_26
REMARK                            x       y       z     vdW  Elec       q    Type
REMARK                         _______ _______ _______ _____ _____    ______ ____
ROOT
ATOM      1  O   UNL     1      33.346 -10.835 -24.925  0.00  0.00    -0.436 OA
ATOM      2  N   UNL     1      33.772 -13.101 -25.538  0.00  0.00    -0.210 NA
ATOM      3  C   UNL     1      32.810 -13.730 -22.896  0.00  0.00    +0.051 C 
ATOM      4  C   UNL     1      32.878 -12.397 -23.365  0.00  0.00    +0.070 A 
ATOM      5  C   UNL     1      32.565 -11.121 -22.834  0.00  0.00    +0.040 A 
ATOM      6  C   UNL     1      33.355 -12.172 -24.656  0.00  0.00    +0.231 A 
ATOM      7  C   UNL     1      32.867 -10.209 -23.819  0.00  0.00    +0.147 A 
ATOM      8  C   UNL     1      33.238 -14.724 -23.791  0.00  0.00    +0.035 C 
ATOM      9  C   UNL     1      33.692 -14.362 -25.052  0.00  0.00    +0.103 C 
ENDROOT
BRANCH   5  10
ATOM     10  C   UNL     1      32.042 -10.751 -21.550  0.00  0.00    +0.003 C 
ATOM     11  C   UNL     1      30.938 -11.424 -21.027  0.00  0.00    +0.000 C 
ATOM     12  C   UNL     1      32.634  -9.716 -20.826  0.00  0.00    +0.000 C 
ATOM     13  C   UNL     1      30.427 -11.064 -19.779  0.00  0.00    +0.000 C 
ATOM     14  C   UNL     1      32.124  -9.355 -19.579  0.00  0.00    +0.000 C 
ATOM     15  C   UNL     1      31.021 -10.030 -19.055  0.00  0.00    +0.000 C 
ENDBRANCH   5  10
BRANCH   7  16
ATOM     16  C   UNL     1      32.788  -8.777 -23.929  0.00  0.00    +0.035 C 
ATOM     17  C   UNL     1      31.543  -8.142 -23.932  0.00  0.00    +0.003 C 
ATOM     18  C   UNL     1      33.953  -8.015 -24.035  0.00  0.00    +0.003 C 
ATOM     19  C   UNL     1      31.466  -6.754 -24.040  0.00  0.00    +0.000 C 
ATOM     20  C   UNL     1      33.876  -6.627 -24.143  0.00  0.00    +0.000 C 
ATOM     21  C   UNL     1      32.632  -5.996 -24.145  0.00  0.00    +0.000 C 
ENDBRANCH   7  16
BRANCH   3  22
ATOM     22  N   UNL     1      32.353 -14.072 -21.633  0.00  0.00    -0.334 N 
ATOM     23  H   UNL     1      31.774 -13.432 -21.159  0.00  0.00    +0.147 HD
BRANCH  22  24
ATOM     24  C   UNL     1      32.678 -15.314 -20.973  0.00  0.00    +0.064 C 
BRANCH  24  25
ATOM     25  C   UNL     1      34.181 -15.391 -20.737  0.00  0.00    -0.056 C 
BRANCH  25  26
ATOM     26  N   UNL     1      34.668 -16.742 -21.009  0.00  0.00    +0.385 N 
ATOM     27  N   UNL     1      34.791 -19.181 -22.570  0.00  0.00    +0.381 N 
ATOM     28  C   UNL     1      33.563 -17.708 -20.998  0.00  0.00    -0.101 C 
ATOM     29  C   UNL     1      35.385 -16.790 -22.290  0.00  0.00    -0.101 C 
ATOM     30  C   UNL     1      34.075 -19.120 -21.293  0.00  0.00    -0.105 C 
ATOM     31  C   UNL     1      35.885 -18.208 -22.578  0.00  0.00    -0.105 C 
ATOM     32  H   UNL     1      35.322 -16.996 -20.268  0.00  0.00    -0.080 HD
ATOM     33  H   UNL     1      34.144 -18.969 -23.330  0.00  0.00    -0.085 HD
ATOM     34  H   UNL     1      35.176 -20.118 -22.692  0.00  0.00    -0.085 HD
ENDBRANCH  25  26
ENDBRANCH  24  25
ENDBRANCH  22  24
ENDBRANCH   3  22
TORSDOF 6
ENDMDL
MODEL 9
REMARK VINA RESULT:      -8.0     10.554     14.436
REMARK  Name = 11553058
REMARK  6 active torsions:
REMARK  status: ('A' for Active; 'I' for Inactive)
REMARK    1  A    between atoms: C_3  and  N_22
REMARK    2  A    between atoms: C_5  and  C_10
REMARK    3  A    between atoms: C_7  and  C_16
REMARK    4  A    between atoms: N_22  and  C_24
REMARK    5  A    between atoms: C_24  and  C_25
REMARK    6  A    between atoms: C_25  and  N_26
REMARK                            x       y       z     vdW  Elec       q    Type
REMARK                         _______ _______ _______ _____ _____    ______ ____
ROOT
ATOM      1  O   UNL     1      32.218 -22.295 -18.224  0.00  0.00    -0.436 OA
ATOM      2  N   UNL     1      33.786 -21.395 -19.781  0.00  0.00    -0.210 NA
ATOM      3  C   UNL     1      35.783 -22.341 -17.931  0.00  0.00    +0.051 C 
ATOM      4  C   UNL     1      34.399 -22.518 -17.689  0.00  0.00    +0.070 A 
ATOM      5  C   UNL     1      33.620 -23.105 -16.661  0.00  0.00    +0.040 A 
ATOM      6  C   UNL     1      33.494 -22.032 -18.631  0.00  0.00    +0.231 A 
ATOM      7  C   UNL     1      32.306 -22.943 -17.034  0.00  0.00    +0.147 A 
ATOM      8  C   UNL     1      36.123 -21.679 -19.122  0.00  0.00    +0.035 C 
ATOM      9  C   UNL     1      35.117 -21.245 -19.977  0.00  0.00    +0.103 C 
ENDROOT
BRANCH   5  10
ATOM     10  C   UNL     1      34.021 -23.756 -15.446  0.00  0.00    +0.003 C 
ATOM     11  C   UNL     1      34.692 -24.978 -15.498  0.00  0.00    +0.000 C 
ATOM     12  C   UNL     1      33.739 -23.167 -14.213  0.00  0.00    +0.000 C 
ATOM     13  C   UNL     1      35.081 -25.611 -14.316  0.00  0.00    +0.000 C 
ATOM     14  C   UNL     1      34.127 -23.800 -13.033  0.00  0.00    +0.000 C 
ATOM     15  C   UNL     1      34.799 -25.021 -13.084  0.00  0.00    +0.000 C 
ENDBRANCH   5  10
BRANCH   7  16
ATOM     16  C   UNL     1      31.040 -23.301 -16.453  0.00  0.00    +0.035 C 
ATOM     17  C   UNL     1      29.973 -22.399 -16.487  0.00  0.00    +0.003 C 
ATOM     18  C   UNL     1      30.871 -24.550 -15.851  0.00  0.00    +0.003 C 
ATOM     19  C   UNL     1      28.746 -22.745 -15.922  0.00  0.00    +0.000 C 
ATOM     20  C   UNL     1      29.643 -24.895 -15.286  0.00  0.00    +0.000 C 
ATOM     21  C   UNL     1      28.580 -23.994 -15.323  0.00  0.00    +0.000 C 
ENDBRANCH   7  16
BRANCH   3  22
ATOM     22  N   UNL     1      36.772 -22.782 -17.066  0.00  0.00    -0.334 N 
ATOM     23  H   UNL     1      37.016 -23.736 -17.089  0.00  0.00    +0.147 HD
BRANCH  22  24
ATOM     24  C   UNL     1      37.463 -21.923 -16.135  0.00  0.00    +0.064 C 
BRANCH  24  25
ATOM     25  C   UNL     1      37.300 -22.465 -14.721  0.00  0.00    -0.056 C 
BRANCH  25  26
ATOM     26  N   UNL     1      37.856 -23.813 -14.627  0.00  0.00    +0.385 N 
ATOM     27  N   UNL     1      39.907 -25.716 -13.870  0.00  0.00    +0.381 N 
ATOM     28  C   UNL     1      39.116 -23.912 -15.376  0.00  0.00    -0.101 C 
ATOM     29  C   UNL     1      38.057 -24.198 -13.224  0.00  0.00    -0.101 C 
ATOM     30  C   UNL     1      39.702 -25.322 -15.266  0.00  0.00    -0.105 C 
ATOM     31  C   UNL     1      38.651 -25.606 -13.127  0.00  0.00    -0.105 C 
ATOM     32  H   UNL     1      37.187 -24.461 -15.043  0.00  0.00    -0.080 HD
ATOM     33  H   UNL     1      40.605 -25.105 -13.446  0.00  0.00    -0.085 HD
ATOM     34  H   UNL     1      40.229 -26.684 -13.841  0.00  0.00    -0.085 HD
ENDBRANCH  25  26
ENDBRANCH  24  25
ENDBRANCH  22  24
ENDBRANCH   3  22
TORSDOF 6
ENDMDL
