MODEL 1
REMARK VINA RESULT:     -11.8      0.000      0.000
REMARK  Name = 16041426
REMARK  5 active torsions:
REMARK  status: ('A' for Active; 'I' for Inactive)
REMARK    1  A    between atoms: C_1  and  C_5
REMARK    2  A    between atoms: C_1  and  O_15
REMARK    3  A    between atoms: C_7  and  C_9
REMARK    4  A    between atoms: O_15  and  C_19
REMARK    5  A    between atoms: C_20  and  C_23
REMARK                            x       y       z     vdW  Elec       q    Type
REMARK                         _______ _______ _______ _____ _____    ______ ____
ROOT
ATOM      1  C   UNL     1      33.436 -14.980 -24.355  0.00  0.00    +0.212 C 
ATOM      2  C   UNL     1      33.389 -15.140 -25.883  0.00  0.00    +0.054 C 
ENDROOT
BRANCH   1   5
ATOM      3  O   UNL     1      32.479 -11.967 -22.696  0.00  0.00    -0.354 OA
ATOM      4  N   UNL     1      32.451 -13.348 -22.848  0.00  0.00    -0.078 NA
ATOM      5  C   UNL     1      33.234 -13.596 -23.901  0.00  0.00    +0.140 C 
ATOM      6  C   UNL     1      33.779 -12.421 -24.449  0.00  0.00    +0.062 C 
ATOM      7  C   UNL     1      33.273 -11.435 -23.655  0.00  0.00    +0.177 C 
BRANCH   7   9
ATOM      8 CL   UNL     1      31.141  -6.850 -22.630  0.00  0.00    -0.082 Cl
ATOM      9  C   UNL     1      33.401  -9.998 -23.625  0.00  0.00    +0.038 C 
ATOM     10  C   UNL     1      32.334  -9.211 -23.191  0.00  0.00    +0.015 C 
ATOM     11  C   UNL     1      34.590  -9.395 -24.033  0.00  0.00    +0.003 C 
ATOM     12  C   UNL     1      32.457  -7.822 -23.164  0.00  0.00    +0.058 C 
ATOM     13  C   UNL     1      34.714  -8.007 -24.006  0.00  0.00    +0.001 C 
ATOM     14  C   UNL     1      33.647  -7.220 -23.571  0.00  0.00    +0.011 C 
ENDBRANCH   7   9
ENDBRANCH   1   5
BRANCH   1  15
ATOM     15  O   UNL     1      34.699 -15.544 -23.943  0.00  0.00    -0.444 OA
BRANCH  15  19
ATOM     16  N   UNL     1      34.590 -17.330 -22.386  0.00  0.00    -0.264 N 
ATOM     17  N   UNL     1      34.778 -17.820 -24.511  0.00  0.00    -0.092 NA
ATOM     18  N   UNL     1      34.732 -19.000 -23.793  0.00  0.00    -0.126 NA
ATOM     19  C   UNL     1      34.692 -16.870 -23.640  0.00  0.00    +0.320 A 
ATOM     20  C   UNL     1      34.619 -18.685 -22.523  0.00  0.00    +0.169 A 
ATOM     21  C   UNL     1      34.474 -16.570 -21.164  0.00  0.00    +0.137 C 
BRANCH  20  23
ATOM     22  N   UNL     1      34.390 -21.409 -19.285  0.00  0.00    -0.242 NA
ATOM     23  C   UNL     1      34.541 -19.611 -21.421  0.00  0.00    +0.039 C 
ATOM     24  C   UNL     1      33.303 -19.997 -20.919  0.00  0.00    +0.024 C 
ATOM     25  C   UNL     1      35.704 -20.124 -20.856  0.00  0.00    +0.024 C 
ATOM     26  C   UNL     1      33.281 -20.889 -19.859  0.00  0.00    +0.099 C 
ATOM     27  C   UNL     1      35.575 -21.011 -19.800  0.00  0.00    +0.099 C 
ENDBRANCH  20  23
ENDBRANCH  15  19
ENDBRANCH   1  15
TORSDOF 5
ENDMDL
MODEL 2
REMARK VINA RESULT:     -11.7      0.768      1.595
REMARK  Name = 16041426
REMARK  5 active torsions:
REMARK  status: ('A' for Active; 'I' for Inactive)
REMARK    1  A    between atoms: C_1  and  C_5
REMARK    2  A    between atoms: C_1  and  O_15
REMARK    3  A    between atoms: C_7  and  C_9
REMARK    4  A    between atoms: O_15  and  C_19
REMARK    5  A    between atoms: C_20  and  C_23
REMARK                            x       y       z     vdW  Elec       q    Type
REMARK                         _______ _______ _______ _____ _____    ______ ____
ROOT
ATOM      1  C   UNL     1      33.514 -14.959 -24.306  0.00  0.00    +0.212 C 
ATOM      2  C   UNL     1      33.407 -15.184 -25.823  0.00  0.00    +0.054 C 
ENDROOT
BRANCH   1   5
ATOM      3  O   UNL     1      32.450 -11.916 -22.770  0.00  0.00    -0.354 OA
ATOM      4  N   UNL     1      32.447 -13.300 -22.885  0.00  0.00    -0.078 NA
ATOM      5  C   UNL     1      33.275 -13.566 -23.899  0.00  0.00    +0.140 C 
ATOM      6  C   UNL     1      33.826 -12.398 -24.458  0.00  0.00    +0.062 C 
ATOM      7  C   UNL     1      33.275 -11.398 -23.712  0.00  0.00    +0.177 C 
BRANCH   7   9
ATOM      8 CL   UNL     1      31.001  -6.817 -23.034  0.00  0.00    -0.082 Cl
ATOM      9  C   UNL     1      33.381  -9.960 -23.717  0.00  0.00    +0.038 C 
ATOM     10  C   UNL     1      32.270  -9.176 -23.408  0.00  0.00    +0.015 C 
ATOM     11  C   UNL     1      34.596  -9.352 -24.035  0.00  0.00    +0.003 C 
ATOM     12  C   UNL     1      32.373  -7.785 -23.414  0.00  0.00    +0.058 C 
ATOM     13  C   UNL     1      34.700  -7.961 -24.041  0.00  0.00    +0.001 C 
ATOM     14  C   UNL     1      33.588  -7.178 -23.731  0.00  0.00    +0.011 C 
ENDBRANCH   7   9
ENDBRANCH   1   5
BRANCH   1  15
ATOM     15  O   UNL     1      34.816 -15.454 -23.930  0.00  0.00    -0.444 OA
BRANCH  15  19
ATOM     16  N   UNL     1      34.886 -17.490 -22.715  0.00  0.00    -0.264 N 
ATOM     17  N   UNL     1      34.933 -15.613 -21.591  0.00  0.00    -0.092 NA
ATOM     18  N   UNL     1      34.983 -16.661 -20.692  0.00  0.00    -0.126 NA
ATOM     19  C   UNL     1      34.877 -16.152 -22.763  0.00  0.00    +0.320 A 
ATOM     20  C   UNL     1      34.954 -17.776 -21.385  0.00  0.00    +0.169 A 
ATOM     21  C   UNL     1      34.837 -18.422 -23.816  0.00  0.00    +0.137 C 
BRANCH  20  23
ATOM     22  N   UNL     1      35.040 -21.705 -19.799  0.00  0.00    -0.242 NA
ATOM     23  C   UNL     1      34.984 -19.114 -20.846  0.00  0.00    +0.039 C 
ATOM     24  C   UNL     1      36.201 -19.739 -20.595  0.00  0.00    +0.024 C 
ATOM     25  C   UNL     1      33.796 -19.783 -20.573  0.00  0.00    +0.024 C 
ATOM     26  C   UNL     1      36.175 -21.024 -20.076  0.00  0.00    +0.099 C 
ATOM     27  C   UNL     1      33.878 -21.065 -20.056  0.00  0.00    +0.099 C 
ENDBRANCH  20  23
ENDBRANCH  15  19
ENDBRANCH   1  15
TORSDOF 5
ENDMDL
MODEL 3
REMARK VINA RESULT:     -11.5      0.949      1.602
REMARK  Name = 16041426
REMARK  5 active torsions:
REMARK  status: ('A' for Active; 'I' for Inactive)
REMARK    1  A    between atoms: C_1  and  C_5
REMARK    2  A    between atoms: C_1  and  O_15
REMARK    3  A    between atoms: C_7  and  C_9
REMARK    4  A    between atoms: O_15  and  C_19
REMARK    5  A    between atoms: C_20  and  C_23
REMARK                            x       y       z     vdW  Elec       q    Type
REMARK                         _______ _______ _______ _____ _____    ______ ____
ROOT
ATOM      1  C   UNL     1      33.364 -14.925 -24.247  0.00  0.00    +0.212 C 
ATOM      2  C   UNL     1      33.404 -14.876 -25.783  0.00  0.00    +0.054 C 
ENDROOT
BRANCH   1   5
ATOM      3  O   UNL     1      32.151 -12.246 -22.222  0.00  0.00    -0.354 OA
ATOM      4  N   UNL     1      32.254 -13.594 -22.542  0.00  0.00    -0.078 NA
ATOM      5  C   UNL     1      33.037 -13.633 -23.624  0.00  0.00    +0.140 C 
ATOM      6  C   UNL     1      33.456 -12.352 -24.027  0.00  0.00    +0.062 C 
ATOM      7  C   UNL     1      32.872 -11.525 -23.113  0.00  0.00    +0.177 C 
BRANCH   7   9
ATOM      8 CL   UNL     1      34.683  -6.877 -24.427  0.00  0.00    -0.082 Cl
ATOM      9  C   UNL     1      32.860 -10.097 -22.907  0.00  0.00    +0.038 C 
ATOM     10  C   UNL     1      33.681  -9.274 -23.678  0.00  0.00    +0.015 C 
ATOM     11  C   UNL     1      32.030  -9.540 -21.935  0.00  0.00    +0.003 C 
ATOM     12  C   UNL     1      33.670  -7.894 -23.478  0.00  0.00    +0.058 C 
ATOM     13  C   UNL     1      32.019  -8.160 -21.734  0.00  0.00    +0.001 C 
ATOM     14  C   UNL     1      32.839  -7.337 -22.506  0.00  0.00    +0.011 C 
ENDBRANCH   7   9
ENDBRANCH   1   5
BRANCH   1  15
ATOM     15  O   UNL     1      34.644 -15.454 -23.841  0.00  0.00    -0.444 OA
BRANCH  15  19
ATOM     16  N   UNL     1      34.554 -17.272 -22.320  0.00  0.00    -0.264 N 
ATOM     17  N   UNL     1      34.835 -17.714 -24.445  0.00  0.00    -0.092 NA
ATOM     18  N   UNL     1      34.811 -18.908 -23.750  0.00  0.00    -0.126 NA
ATOM     19  C   UNL     1      34.680 -16.785 -23.561  0.00  0.00    +0.320 A 
ATOM     20  C   UNL     1      34.642 -18.621 -22.480  0.00  0.00    +0.169 A 
ATOM     21  C   UNL     1      34.365 -16.539 -21.090  0.00  0.00    +0.137 C 
BRANCH  20  23
ATOM     22  N   UNL     1      34.411 -21.409 -19.296  0.00  0.00    -0.242 NA
ATOM     23  C   UNL     1      34.564 -19.571 -21.396  0.00  0.00    +0.039 C 
ATOM     24  C   UNL     1      35.727 -20.083 -20.831  0.00  0.00    +0.024 C 
ATOM     25  C   UNL     1      33.325 -19.976 -20.912  0.00  0.00    +0.024 C 
ATOM     26  C   UNL     1      35.597 -20.991 -19.793  0.00  0.00    +0.099 C 
ATOM     27  C   UNL     1      33.303 -20.889 -19.870  0.00  0.00    +0.099 C 
ENDBRANCH  20  23
ENDBRANCH  15  19
ENDBRANCH   1  15
TORSDOF 5
ENDMDL
MODEL 4
REMARK VINA RESULT:     -11.3      1.700      2.246
REMARK  Name = 16041426
REMARK  5 active torsions:
REMARK  status: ('A' for Active; 'I' for Inactive)
REMARK    1  A    between atoms: C_1  and  C_5
REMARK    2  A    between atoms: C_1  and  O_15
REMARK    3  A    between atoms: C_7  and  C_9
REMARK    4  A    between atoms: O_15  and  C_19
REMARK    5  A    between atoms: C_20  and  C_23
REMARK                            x       y       z     vdW  Elec       q    Type
REMARK                         _______ _______ _______ _____ _____    ______ ____
ROOT
ATOM      1  C   UNL     1      33.428 -15.140 -24.546  0.00  0.00    +0.212 C 
ATOM      2  C   UNL     1      33.448 -15.055 -26.082  0.00  0.00    +0.054 C 
ENDROOT
BRANCH   1   5
ATOM      3  O   UNL     1      33.072 -11.705 -23.637  0.00  0.00    -0.354 OA
ATOM      4  N   UNL     1      33.435 -12.709 -24.526  0.00  0.00    -0.078 NA
ATOM      5  C   UNL     1      33.163 -13.851 -23.889  0.00  0.00    +0.140 C 
ATOM      6  C   UNL     1      32.629 -13.632 -22.606  0.00  0.00    +0.062 C 
ATOM      7  C   UNL     1      32.595 -12.273 -22.503  0.00  0.00    +0.177 C 
BRANCH   7   9
ATOM      8 CL   UNL     1      32.020  -7.385 -20.957  0.00  0.00    -0.082 Cl
ATOM      9  C   UNL     1      32.175 -11.349 -21.479  0.00  0.00    +0.038 C 
ATOM     10  C   UNL     1      32.286  -9.974 -21.690  0.00  0.00    +0.015 C 
ATOM     11  C   UNL     1      31.660 -11.829 -20.275  0.00  0.00    +0.003 C 
ATOM     12  C   UNL     1      31.881  -9.081 -20.698  0.00  0.00    +0.058 C 
ATOM     13  C   UNL     1      31.255 -10.937 -19.283  0.00  0.00    +0.001 C 
ATOM     14  C   UNL     1      31.366  -9.562 -19.495  0.00  0.00    +0.011 C 
ENDBRANCH   7   9
ENDBRANCH   1   5
BRANCH   1  15
ATOM     15  O   UNL     1      34.691 -15.729 -24.173  0.00  0.00    -0.444 OA
BRANCH  15  19
ATOM     16  N   UNL     1      34.611 -17.442 -22.533  0.00  0.00    -0.264 N 
ATOM     17  N   UNL     1      34.659 -18.029 -24.641  0.00  0.00    -0.092 NA
ATOM     18  N   UNL     1      34.614 -19.174 -23.870  0.00  0.00    -0.126 NA
ATOM     19  C   UNL     1      34.656 -17.040 -23.810  0.00  0.00    +0.320 A 
ATOM     20  C   UNL     1      34.585 -18.801 -22.611  0.00  0.00    +0.169 A 
ATOM     21  C   UNL     1      34.592 -16.625 -21.342  0.00  0.00    +0.137 C 
BRANCH  20  23
ATOM     22  N   UNL     1      34.449 -21.373 -19.245  0.00  0.00    -0.242 NA
ATOM     23  C   UNL     1      34.539 -19.676 -21.465  0.00  0.00    +0.039 C 
ATOM     24  C   UNL     1      33.314 -20.057 -20.927  0.00  0.00    +0.024 C 
ATOM     25  C   UNL     1      35.718 -20.143 -20.895  0.00  0.00    +0.024 C 
ATOM     26  C   UNL     1      33.324 -20.900 -19.826  0.00  0.00    +0.099 C 
ATOM     27  C   UNL     1      35.620 -20.981 -19.796  0.00  0.00    +0.099 C 
ENDBRANCH  20  23
ENDBRANCH  15  19
ENDBRANCH   1  15
TORSDOF 5
ENDMDL
MODEL 5
REMARK VINA RESULT:     -11.2      3.729      9.829
REMARK  Name = 16041426
REMARK  5 active torsions:
REMARK  status: ('A' for Active; 'I' for Inactive)
REMARK    1  A    between atoms: C_1  and  C_5
REMARK    2  A    between atoms: C_1  and  O_15
REMARK    3  A    between atoms: C_7  and  C_9
REMARK    4  A    between atoms: O_15  and  C_19
REMARK    5  A    between atoms: C_20  and  C_23
REMARK                            x       y       z     vdW  Elec       q    Type
REMARK                         _______ _______ _______ _____ _____    ______ ____
ROOT
ATOM      1  C   UNL     1      33.888 -14.206 -23.630  0.00  0.00    +0.212 C 
ATOM      2  C   UNL     1      33.405 -14.785 -24.970  0.00  0.00    +0.054 C 
ENDROOT
BRANCH   1   5
ATOM      3  O   UNL     1      34.950 -16.070 -20.775  0.00  0.00    -0.354 OA
ATOM      4  N   UNL     1      34.606 -14.882 -21.408  0.00  0.00    -0.078 NA
ATOM      5  C   UNL     1      34.303 -15.232 -22.660  0.00  0.00    +0.140 C 
ATOM      6  C   UNL     1      34.435 -16.616 -22.874  0.00  0.00    +0.062 C 
ATOM      7  C   UNL     1      34.842 -17.088 -21.661  0.00  0.00    +0.177 C 
BRANCH   7   9
ATOM      8 CL   UNL     1      33.216 -21.608 -19.779  0.00  0.00    -0.082 Cl
ATOM      9  C   UNL     1      35.169 -18.395 -21.145  0.00  0.00    +0.038 C 
ATOM     10  C   UNL     1      34.152 -19.268 -20.758  0.00  0.00    +0.015 C 
ATOM     11  C   UNL     1      36.503 -18.784 -21.030  0.00  0.00    +0.003 C 
ATOM     12  C   UNL     1      34.469 -20.530 -20.258  0.00  0.00    +0.058 C 
ATOM     13  C   UNL     1      36.821 -20.047 -20.529  0.00  0.00    +0.001 C 
ATOM     14  C   UNL     1      35.803 -20.920 -20.144  0.00  0.00    +0.011 C 
ENDBRANCH   7   9
ENDBRANCH   1   5
BRANCH   1  15
ATOM     15  O   UNL     1      32.814 -13.367 -23.157  0.00  0.00    -0.444 OA
BRANCH  15  19
ATOM     16  N   UNL     1      32.254 -11.120 -22.645  0.00  0.00    -0.264 N 
ATOM     17  N   UNL     1      33.902 -11.483 -24.039  0.00  0.00    -0.092 NA
ATOM     18  N   UNL     1      33.752 -10.118 -23.887  0.00  0.00    -0.126 NA
ATOM     19  C   UNL     1      33.000 -12.026 -23.291  0.00  0.00    +0.320 A 
ATOM     20  C   UNL     1      32.761  -9.921 -23.049  0.00  0.00    +0.169 A 
ATOM     21  C   UNL     1      31.163 -11.353 -21.730  0.00  0.00    +0.137 C 
BRANCH  20  23
ATOM     22  N   UNL     1      31.290  -6.162 -21.756  0.00  0.00    -0.242 NA
ATOM     23  C   UNL     1      32.260  -8.642 -22.608  0.00  0.00    +0.039 C 
ATOM     24  C   UNL     1      32.680  -8.108 -21.395  0.00  0.00    +0.024 C 
ATOM     25  C   UNL     1      31.356  -7.938 -23.396  0.00  0.00    +0.024 C 
ATOM     26  C   UNL     1      32.170  -6.876 -21.017  0.00  0.00    +0.099 C 
ATOM     27  C   UNL     1      30.905  -6.714 -22.929  0.00  0.00    +0.099 C 
ENDBRANCH  20  23
ENDBRANCH  15  19
ENDBRANCH   1  15
TORSDOF 5
ENDMDL
MODEL 6
REMARK VINA RESULT:     -11.1      5.316      9.154
REMARK  Name = 16041426
REMARK  5 active torsions:
REMARK  status: ('A' for Active; 'I' for Inactive)
REMARK    1  A    between atoms: C_1  and  C_5
REMARK    2  A    between atoms: C_1  and  O_15
REMARK    3  A    between atoms: C_7  and  C_9
REMARK    4  A    between atoms: O_15  and  C_19
REMARK    5  A    between atoms: C_20  and  C_23
REMARK                            x       y       z     vdW  Elec       q    Type
REMARK                         _______ _______ _______ _____ _____    ______ ____
ROOT
ATOM      1  C   UNL     1      33.934 -22.470 -18.766  0.00  0.00    +0.212 C 
ATOM      2  C   UNL     1      34.067 -23.779 -19.562  0.00  0.00    +0.054 C 
ENDROOT
BRANCH   1   5
ATOM      3  O   UNL     1      32.721 -19.654 -20.596  0.00  0.00    -0.354 OA
ATOM      4  N   UNL     1      32.539 -20.736 -19.744  0.00  0.00    -0.078 NA
ATOM      5  C   UNL     1      33.751 -21.282 -19.614  0.00  0.00    +0.140 C 
ATOM      6  C   UNL     1      34.729 -20.593 -20.353  0.00  0.00    +0.062 C 
ATOM      7  C   UNL     1      34.027 -19.585 -20.947  0.00  0.00    +0.177 C 
BRANCH   7   9
ATOM      8 CL   UNL     1      34.497 -14.506 -21.720  0.00  0.00    -0.082 Cl
ATOM      9  C   UNL     1      34.372 -18.503 -21.836  0.00  0.00    +0.038 C 
ATOM     10  C   UNL     1      34.280 -17.182 -21.398  0.00  0.00    +0.015 C 
ATOM     11  C   UNL     1      34.796 -18.778 -23.137  0.00  0.00    +0.003 C 
ATOM     12  C   UNL     1      34.612 -16.136 -22.259  0.00  0.00    +0.058 C 
ATOM     13  C   UNL     1      35.128 -17.733 -23.998  0.00  0.00    +0.001 C 
ATOM     14  C   UNL     1      35.036 -16.412 -23.559  0.00  0.00    +0.011 C 
ENDBRANCH   7   9
ENDBRANCH   1   5
BRANCH   1  15
ATOM     15  O   UNL     1      35.105 -22.405 -17.926  0.00  0.00    -0.444 OA
BRANCH  15  19
ATOM     16  N   UNL     1      36.034 -23.131 -15.867  0.00  0.00    -0.264 N 
ATOM     17  N   UNL     1      33.900 -23.470 -16.215  0.00  0.00    -0.092 NA
ATOM     18  N   UNL     1      34.223 -23.965 -14.967  0.00  0.00    -0.126 NA
ATOM     19  C   UNL     1      34.996 -22.991 -16.703  0.00  0.00    +0.320 A 
ATOM     20  C   UNL     1      35.505 -23.753 -14.777  0.00  0.00    +0.169 A 
ATOM     21  C   UNL     1      37.402 -22.717 -16.070  0.00  0.00    +0.137 C 
BRANCH  20  23
ATOM     22  N   UNL     1      37.736 -24.819 -11.336  0.00  0.00    -0.242 NA
ATOM     23  C   UNL     1      36.264 -24.116 -13.606  0.00  0.00    +0.039 C 
ATOM     24  C   UNL     1      36.952 -25.324 -13.567  0.00  0.00    +0.024 C 
ATOM     25  C   UNL     1      36.311 -23.260 -12.511  0.00  0.00    +0.024 C 
ATOM     26  C   UNL     1      37.667 -25.626 -12.419  0.00  0.00    +0.099 C 
ATOM     27  C   UNL     1      37.055 -23.655 -11.411  0.00  0.00    +0.099 C 
ENDBRANCH  20  23
ENDBRANCH  15  19
ENDBRANCH   1  15
TORSDOF 5
ENDMDL
MODEL 7
REMARK VINA RESULT:     -10.8      1.675      2.405
REMARK  Name = 16041426
REMARK  5 active torsions:
REMARK  status: ('A' for Active; 'I' for Inactive)
REMARK    1  A    between atoms: C_1  and  C_5
REMARK    2  A    between atoms: C_1  and  O_15
REMARK    3  A    between atoms: C_7  and  C_9
REMARK    4  A    between atoms: O_15  and  C_19
REMARK    5  A    between atoms: C_20  and  C_23
REMARK                            x       y       z     vdW  Elec       q    Type
REMARK                         _______ _______ _______ _____ _____    ______ ____
ROOT
ATOM      1  C   UNL     1      33.646 -15.649 -24.494  0.00  0.00    +0.212 C 
ATOM      2  C   UNL     1      33.555 -15.983 -25.992  0.00  0.00    +0.054 C 
ENDROOT
BRANCH   1   5
ATOM      3  O   UNL     1      33.578 -12.079 -24.475  0.00  0.00    -0.354 OA
ATOM      4  N   UNL     1      33.909 -13.298 -25.053  0.00  0.00    -0.078 NA
ATOM      5  C   UNL     1      33.462 -14.220 -24.196  0.00  0.00    +0.140 C 
ATOM      6  C   UNL     1      32.844 -13.647 -23.070  0.00  0.00    +0.062 C 
ATOM      7  C   UNL     1      32.945 -12.307 -23.299  0.00  0.00    +0.177 C 
BRANCH   7   9
ATOM      8 CL   UNL     1      30.861 -10.249 -19.052  0.00  0.00    -0.082 Cl
ATOM      9  C   UNL     1      32.537 -11.126 -22.578  0.00  0.00    +0.038 C 
ATOM     10  C   UNL     1      31.965 -11.245 -21.311  0.00  0.00    +0.015 C 
ATOM     11  C   UNL     1      32.712  -9.865 -23.148  0.00  0.00    +0.003 C 
ATOM     12  C   UNL     1      31.569 -10.104 -20.614  0.00  0.00    +0.058 C 
ATOM     13  C   UNL     1      32.316  -8.724 -22.452  0.00  0.00    +0.001 C 
ATOM     14  C   UNL     1      31.744  -8.843 -21.185  0.00  0.00    +0.011 C 
ENDBRANCH   7   9
ENDBRANCH   1   5
BRANCH   1  15
ATOM     15  O   UNL     1      34.918 -16.170 -24.055  0.00  0.00    -0.444 OA
BRANCH  15  19
ATOM     16  N   UNL     1      34.831 -18.116 -22.701  0.00  0.00    -0.264 N 
ATOM     17  N   UNL     1      35.023 -16.174 -21.710  0.00  0.00    -0.092 NA
ATOM     18  N   UNL     1      34.993 -17.157 -20.740  0.00  0.00    -0.126 NA
ATOM     19  C   UNL     1      34.925 -16.787 -22.842  0.00  0.00    +0.320 A 
ATOM     20  C   UNL     1      34.878 -18.313 -21.354  0.00  0.00    +0.169 A 
ATOM     21  C   UNL     1      34.709 -19.116 -23.735  0.00  0.00    +0.137 C 
BRANCH  20  23
ATOM     22  N   UNL     1      34.662 -22.117 -19.498  0.00  0.00    -0.242 NA
ATOM     23  C   UNL     1      34.804 -19.608 -20.723  0.00  0.00    +0.039 C 
ATOM     24  C   UNL     1      35.970 -20.306 -20.425  0.00  0.00    +0.024 C 
ATOM     25  C   UNL     1      33.569 -20.163 -20.409  0.00  0.00    +0.024 C 
ATOM     26  C   UNL     1      35.846 -21.546 -19.818  0.00  0.00    +0.099 C 
ATOM     27  C   UNL     1      33.552 -21.408 -19.803  0.00  0.00    +0.099 C 
ENDBRANCH  20  23
ENDBRANCH  15  19
ENDBRANCH   1  15
TORSDOF 5
ENDMDL
MODEL 8
REMARK VINA RESULT:     -10.4      3.624      9.608
REMARK  Name = 16041426
REMARK  5 active torsions:
REMARK  status: ('A' for Active; 'I' for Inactive)
REMARK    1  A    between atoms: C_1  and  C_5
REMARK    2  A    between atoms: C_1  and  O_15
REMARK    3  A    between atoms: C_7  and  C_9
REMARK    4  A    between atoms: O_15  and  C_19
REMARK    5  A    between atoms: C_20  and  C_23
REMARK                            x       y       z     vdW  Elec       q    Type
REMARK                         _______ _______ _______ _____ _____    ______ ____
ROOT
ATOM      1  C   UNL     1      34.484 -15.687 -23.916  0.00  0.00    +0.212 C 
ATOM      2  C   UNL     1      34.728 -16.362 -25.276  0.00  0.00    +0.054 C 
ENDROOT
BRANCH   1   5
ATOM      3  O   UNL     1      35.140 -17.132 -20.718  0.00  0.00    -0.354 OA
ATOM      4  N   UNL     1      34.921 -16.043 -21.552  0.00  0.00    -0.078 NA
ATOM      5  C   UNL     1      34.744 -16.568 -22.767  0.00  0.00    +0.140 C 
ATOM      6  C   UNL     1      34.838 -17.971 -22.761  0.00  0.00    +0.062 C 
ATOM      7  C   UNL     1      35.086 -18.268 -21.453  0.00  0.00    +0.177 C 
BRANCH   7   9
ATOM      8 CL   UNL     1      33.065 -22.266 -18.896  0.00  0.00    -0.082 Cl
ATOM      9  C   UNL     1      35.297 -19.491 -20.718  0.00  0.00    +0.038 C 
ATOM     10  C   UNL     1      34.206 -20.204 -20.222  0.00  0.00    +0.015 C 
ATOM     11  C   UNL     1      36.593 -19.959 -20.501  0.00  0.00    +0.003 C 
ATOM     12  C   UNL     1      34.410 -21.386 -19.510  0.00  0.00    +0.058 C 
ATOM     13  C   UNL     1      36.798 -21.141 -19.790  0.00  0.00    +0.001 C 
ATOM     14  C   UNL     1      35.706 -21.854 -19.294  0.00  0.00    +0.011 C 
ENDBRANCH   7   9
ENDBRANCH   1   5
BRANCH   1  15
ATOM     15  O   UNL     1      33.132 -15.188 -23.966  0.00  0.00    -0.444 OA
BRANCH  15  19
ATOM     16  N   UNL     1      33.222 -12.818 -24.027  0.00  0.00    -0.264 N 
ATOM     17  N   UNL     1      32.424 -13.776 -22.229  0.00  0.00    -0.092 NA
ATOM     18  N   UNL     1      32.383 -12.407 -22.049  0.00  0.00    -0.126 NA
ATOM     19  C   UNL     1      32.924 -13.966 -23.405  0.00  0.00    +0.320 A 
ATOM     20  C   UNL     1      32.865 -11.851 -23.137  0.00  0.00    +0.169 A 
ATOM     21  C   UNL     1      33.791 -12.639 -25.343  0.00  0.00    +0.137 C 
BRANCH  20  23
ATOM     22  N   UNL     1      33.294  -7.694 -23.841  0.00  0.00    -0.242 NA
ATOM     23  C   UNL     1      33.011 -10.437 -23.377  0.00  0.00    +0.039 C 
ATOM     24  C   UNL     1      31.928  -9.583 -23.197  0.00  0.00    +0.024 C 
ATOM     25  C   UNL     1      34.234  -9.921 -23.788  0.00  0.00    +0.024 C 
ATOM     26  C   UNL     1      32.119  -8.232 -23.440  0.00  0.00    +0.099 C 
ATOM     27  C   UNL     1      34.323  -8.555 -24.005  0.00  0.00    +0.099 C 
ENDBRANCH  20  23
ENDBRANCH  15  19
ENDBRANCH   1  15
TORSDOF 5
ENDMDL
MODEL 9
REMARK VINA RESULT:     -10.4      4.738      8.175
REMARK  Name = 16041426
REMARK  5 active torsions:
REMARK  status: ('A' for Active; 'I' for Inactive)
REMARK    1  A    between atoms: C_1  and  C_5
REMARK    2  A    between atoms: C_1  and  O_15
REMARK    3  A    between atoms: C_7  and  C_9
REMARK    4  A    between atoms: O_15  and  C_19
REMARK    5  A    between atoms: C_20  and  C_23
REMARK                            x       y       z     vdW  Elec       q    Type
REMARK                         _______ _______ _______ _____ _____    ______ ____
ROOT
ATOM      1  C   UNL     1      35.661 -21.547 -19.588  0.00  0.00    +0.212 C 
ATOM      2  C   UNL     1      36.986 -21.930 -20.268  0.00  0.00    +0.054 C 
ENDROOT
BRANCH   1   5
ATOM      3  O   UNL     1      33.370 -19.149 -20.911  0.00  0.00    -0.354 OA
ATOM      4  N   UNL     1      33.661 -20.352 -20.280  0.00  0.00    -0.078 NA
ATOM      5  C   UNL     1      34.994 -20.392 -20.208  0.00  0.00    +0.140 C 
ATOM      6  C   UNL     1      35.593 -19.250 -20.770  0.00  0.00    +0.062 C 
ATOM      7  C   UNL     1      34.529 -18.509 -21.193  0.00  0.00    +0.177 C 
BRANCH   7   9
ATOM      8 CL   UNL     1      32.587 -13.729 -21.160  0.00  0.00    -0.082 Cl
ATOM      9  C   UNL     1      34.387 -17.234 -21.854  0.00  0.00    +0.038 C 
ATOM     10  C   UNL     1      33.644 -16.216 -21.256  0.00  0.00    +0.015 C 
ATOM     11  C   UNL     1      34.990 -17.020 -23.093  0.00  0.00    +0.003 C 
ATOM     12  C   UNL     1      33.505 -14.985 -21.896  0.00  0.00    +0.058 C 
ATOM     13  C   UNL     1      34.852 -15.790 -23.734  0.00  0.00    +0.001 C 
ATOM     14  C   UNL     1      34.109 -14.772 -23.135  0.00  0.00    +0.011 C 
ENDBRANCH   7   9
ENDBRANCH   1   5
BRANCH   1  15
ATOM     15  O   UNL     1      35.981 -21.349 -18.195  0.00  0.00    -0.444 OA
BRANCH  15  19
ATOM     16  N   UNL     1      36.319 -22.726 -16.293  0.00  0.00    -0.264 N 
ATOM     17  N   UNL     1      34.484 -22.998 -17.453  0.00  0.00    -0.092 NA
ATOM     18  N   UNL     1      34.472 -23.894 -16.402  0.00  0.00    -0.126 NA
ATOM     19  C   UNL     1      35.588 -22.337 -17.345  0.00  0.00    +0.320 A 
ATOM     20  C   UNL     1      35.580 -23.715 -15.719  0.00  0.00    +0.169 A 
ATOM     21  C   UNL     1      37.599 -22.218 -15.861  0.00  0.00    +0.137 C 
BRANCH  20  23
ATOM     22  N   UNL     1      36.754 -25.858 -12.256  0.00  0.00    -0.242 NA
ATOM     23  C   UNL     1      35.980 -24.444 -14.540  0.00  0.00    +0.039 C 
ATOM     24  C   UNL     1      35.557 -24.025 -13.283  0.00  0.00    +0.024 C 
ATOM     25  C   UNL     1      36.788 -25.569 -14.656  0.00  0.00    +0.024 C 
ATOM     26  C   UNL     1      35.968 -24.759 -12.182  0.00  0.00    +0.099 C 
ATOM     27  C   UNL     1      37.144 -26.235 -13.494  0.00  0.00    +0.099 C 
ENDBRANCH  20  23
ENDBRANCH  15  19
ENDBRANCH   1  15
TORSDOF 5
ENDMDL
