MODEL 1
REMARK VINA RESULT:      -8.0      0.000      0.000
REMARK  Name = 54695768
REMARK  2 active torsions:
REMARK  status: ('A' for Active; 'I' for Inactive)
REMARK    1  A    between atoms: C_5  and  O_13
REMARK    2  A    between atoms: C_7  and  O_15
REMARK                            x       y       z     vdW  Elec       q    Type
REMARK                         _______ _______ _______ _____ _____    ______ ____
ROOT
ATOM      1  O   UNL     1      34.860 -16.976 -25.772  0.00  0.00    -0.264 OA
ATOM      2  N   UNL     1      33.701 -15.388 -24.522  0.00  0.00    -0.291 N 
ATOM      3  C   UNL     1      33.363 -14.869 -23.229  0.00  0.00    +0.066 A 
ATOM      4  C   UNL     1      33.888 -15.488 -22.080  0.00  0.00    +0.053 A 
ATOM      5  C   UNL     1      34.770 -16.649 -22.235  0.00  0.00    +0.174 A 
ATOM      6  C   UNL     1      34.540 -16.493 -24.685  0.00  0.00    +0.298 A 
ATOM      7  C   UNL     1      35.079 -17.124 -23.446  0.00  0.00    +0.225 A 
ATOM      8  C   UNL     1      32.518 -13.756 -23.075  0.00  0.00    +0.017 C 
ATOM      9  C   UNL     1      33.560 -14.983 -20.810  0.00  0.00    +0.005 C 
ATOM     10  C   UNL     1      33.152 -14.741 -25.712  0.00  0.00    +0.134 C 
ATOM     11  C   UNL     1      32.200 -13.266 -21.808  0.00  0.00    +0.001 C 
ATOM     12  C   UNL     1      32.721 -13.879 -20.675  0.00  0.00    +0.000 C 
ENDROOT
BRANCH   5  13
ATOM     13  O   UNL     1      35.254 -17.213 -21.073  0.00  0.00    -0.503 OA
ATOM     14  H   UNL     1      34.694 -17.740 -20.538  0.00  0.00    +0.292 HD
ENDBRANCH   5  13
BRANCH   7  15
ATOM     15  O   UNL     1      35.910 -18.218 -23.586  0.00  0.00    -0.500 OA
ATOM     16  H   UNL     1      35.723 -19.011 -23.122  0.00  0.00    +0.292 HD
ENDBRANCH   7  15
TORSDOF 2
ENDMDL
MODEL 2
REMARK VINA RESULT:      -7.7      1.862      3.890
REMARK  Name = 54695768
REMARK  2 active torsions:
REMARK  status: ('A' for Active; 'I' for Inactive)
REMARK    1  A    between atoms: C_5  and  O_13
REMARK    2  A    between atoms: C_7  and  O_15
REMARK                            x       y       z     vdW  Elec       q    Type
REMARK                         _______ _______ _______ _____ _____    ______ ____
ROOT
ATOM      1  O   UNL     1      32.958 -13.675 -24.615  0.00  0.00    -0.264 OA
ATOM      2  N   UNL     1      33.807 -15.049 -22.937  0.00  0.00    -0.291 N 
ATOM      3  C   UNL     1      34.420 -16.294 -22.579  0.00  0.00    +0.066 A 
ATOM      4  C   UNL     1      34.710 -17.233 -23.586  0.00  0.00    +0.053 A 
ATOM      5  C   UNL     1      34.378 -16.912 -24.977  0.00  0.00    +0.174 A 
ATOM      6  C   UNL     1      33.485 -14.730 -24.258  0.00  0.00    +0.298 A 
ATOM      7  C   UNL     1      33.806 -15.747 -25.299  0.00  0.00    +0.225 A 
ATOM      8  C   UNL     1      34.741 -16.607 -21.246  0.00  0.00    +0.017 C 
ATOM      9  C   UNL     1      35.312 -18.456 -23.241  0.00  0.00    +0.005 C 
ATOM     10  C   UNL     1      33.508 -14.078 -21.886  0.00  0.00    +0.134 C 
ATOM     11  C   UNL     1      35.338 -17.825 -20.918  0.00  0.00    +0.001 C 
ATOM     12  C   UNL     1      35.623 -18.750 -21.915  0.00  0.00    +0.000 C 
ENDROOT
BRANCH   5  13
ATOM     13  O   UNL     1      34.685 -17.871 -25.921  0.00  0.00    -0.503 OA
ATOM     14  H   UNL     1      34.576 -18.779 -25.720  0.00  0.00    +0.292 HD
ENDBRANCH   5  13
BRANCH   7  15
ATOM     15  O   UNL     1      33.495 -15.450 -26.612  0.00  0.00    -0.500 OA
ATOM     16  H   UNL     1      34.178 -15.362 -27.247  0.00  0.00    +0.292 HD
ENDBRANCH   7  15
TORSDOF 2
ENDMDL
MODEL 3
REMARK VINA RESULT:      -7.7      1.859      3.150
REMARK  Name = 54695768
REMARK  2 active torsions:
REMARK  status: ('A' for Active; 'I' for Inactive)
REMARK    1  A    between atoms: C_5  and  O_13
REMARK    2  A    between atoms: C_7  and  O_15
REMARK                            x       y       z     vdW  Elec       q    Type
REMARK                         _______ _______ _______ _____ _____    ______ ____
ROOT
ATOM      1  O   UNL     1      34.769 -17.774 -25.910  0.00  0.00    -0.264 OA
ATOM      2  N   UNL     1      34.801 -17.225 -23.647  0.00  0.00    -0.291 N 
ATOM      3  C   UNL     1      34.442 -16.295 -22.616  0.00  0.00    +0.066 A 
ATOM      4  C   UNL     1      33.748 -15.120 -22.959  0.00  0.00    +0.053 A 
ATOM      5  C   UNL     1      33.408 -14.878 -24.364  0.00  0.00    +0.174 A 
ATOM      6  C   UNL     1      34.484 -17.007 -24.989  0.00  0.00    +0.298 A 
ATOM      7  C   UNL     1      33.747 -15.752 -25.317  0.00  0.00    +0.225 A 
ATOM      8  C   UNL     1      34.766 -16.523 -21.267  0.00  0.00    +0.017 C 
ATOM      9  C   UNL     1      33.394 -14.205 -21.953  0.00  0.00    +0.005 C 
ATOM     10  C   UNL     1      35.522 -18.443 -23.283  0.00  0.00    +0.134 C 
ATOM     11  C   UNL     1      34.408 -15.605 -20.278  0.00  0.00    +0.001 C 
ATOM     12  C   UNL     1      33.722 -14.447 -20.620  0.00  0.00    +0.000 C 
ENDROOT
BRANCH   5  13
ATOM     13  O   UNL     1      32.727 -13.710 -24.641  0.00  0.00    -0.503 OA
ATOM     14  H   UNL     1      33.201 -12.924 -24.829  0.00  0.00    +0.292 HD
ENDBRANCH   5  13
BRANCH   7  15
ATOM     15  O   UNL     1      33.425 -15.519 -26.640  0.00  0.00    -0.500 OA
ATOM     16  H   UNL     1      33.141 -16.226 -27.185  0.00  0.00    +0.292 HD
ENDBRANCH   7  15
TORSDOF 2
ENDMDL
MODEL 4
REMARK VINA RESULT:      -7.7      1.219      2.961
REMARK  Name = 54695768
REMARK  2 active torsions:
REMARK  status: ('A' for Active; 'I' for Inactive)
REMARK    1  A    between atoms: C_5  and  O_13
REMARK    2  A    between atoms: C_7  and  O_15
REMARK                            x       y       z     vdW  Elec       q    Type
REMARK                         _______ _______ _______ _____ _____    ______ ____
ROOT
ATOM      1  O   UNL     1      35.677 -18.308 -23.705  0.00  0.00    -0.264 OA
ATOM      2  N   UNL     1      34.656 -16.811 -22.242  0.00  0.00    -0.291 N 
ATOM      3  C   UNL     1      33.856 -15.634 -22.070  0.00  0.00    +0.066 A 
ATOM      4  C   UNL     1      33.391 -14.945 -23.205  0.00  0.00    +0.053 A 
ATOM      5  C   UNL     1      33.737 -15.450 -24.537  0.00  0.00    +0.174 A 
ATOM      6  C   UNL     1      34.994 -17.303 -23.505  0.00  0.00    +0.298 A 
ATOM      7  C   UNL     1      34.484 -16.548 -24.686  0.00  0.00    +0.225 A 
ATOM      8  C   UNL     1      33.521 -15.146 -20.794  0.00  0.00    +0.017 C 
ATOM      9  C   UNL     1      32.606 -13.790 -23.041  0.00  0.00    +0.005 C 
ATOM     10  C   UNL     1      35.136 -17.522 -21.059  0.00  0.00    +0.134 C 
ATOM     11  C   UNL     1      32.741 -13.998 -20.647  0.00  0.00    +0.001 C 
ATOM     12  C   UNL     1      32.283 -13.320 -21.770  0.00  0.00    +0.000 C 
ENDROOT
BRANCH   5  13
ATOM     13  O   UNL     1      33.253 -14.733 -25.612  0.00  0.00    -0.503 OA
ATOM     14  H   UNL     1      33.529 -13.848 -25.748  0.00  0.00    +0.292 HD
ENDBRANCH   5  13
BRANCH   7  15
ATOM     15  O   UNL     1      34.807 -17.020 -25.943  0.00  0.00    -0.500 OA
ATOM     16  H   UNL     1      35.057 -17.916 -26.058  0.00  0.00    +0.292 HD
ENDBRANCH   7  15
TORSDOF 2
ENDMDL
MODEL 5
REMARK VINA RESULT:      -7.5      2.205      4.708
REMARK  Name = 54695768
REMARK  2 active torsions:
REMARK  status: ('A' for Active; 'I' for Inactive)
REMARK    1  A    between atoms: C_5  and  O_13
REMARK    2  A    between atoms: C_7  and  O_15
REMARK                            x       y       z     vdW  Elec       q    Type
REMARK                         _______ _______ _______ _____ _____    ______ ____
ROOT
ATOM      1  O   UNL     1      33.761 -13.417 -22.299  0.00  0.00    -0.264 OA
ATOM      2  N   UNL     1      34.333 -15.674 -22.243  0.00  0.00    -0.291 N 
ATOM      3  C   UNL     1      34.512 -16.901 -22.962  0.00  0.00    +0.066 A 
ATOM      4  C   UNL     1      34.275 -16.928 -24.349  0.00  0.00    +0.053 A 
ATOM      5  C   UNL     1      33.851 -15.697 -25.023  0.00  0.00    +0.174 A 
ATOM      6  C   UNL     1      33.929 -14.495 -22.872  0.00  0.00    +0.298 A 
ATOM      7  C   UNL     1      33.687 -14.559 -24.342  0.00  0.00    +0.225 A 
ATOM      8  C   UNL     1      34.919 -18.084 -22.320  0.00  0.00    +0.017 C 
ATOM      9  C   UNL     1      34.450 -18.129 -25.059  0.00  0.00    +0.005 C 
ATOM     10  C   UNL     1      34.581 -15.654 -20.803  0.00  0.00    +0.134 C 
ATOM     11  C   UNL     1      35.088 -19.269 -23.038  0.00  0.00    +0.001 C 
ATOM     12  C   UNL     1      34.854 -19.291 -24.407  0.00  0.00    +0.000 C 
ENDROOT
BRANCH   5  13
ATOM     13  O   UNL     1      33.634 -15.784 -26.383  0.00  0.00    -0.503 OA
ATOM     14  H   UNL     1      33.937 -16.531 -26.860  0.00  0.00    +0.292 HD
ENDBRANCH   5  13
BRANCH   7  15
ATOM     15  O   UNL     1      33.287 -13.402 -24.983  0.00  0.00    -0.500 OA
ATOM     16  H   UNL     1      33.187 -12.607 -24.496  0.00  0.00    +0.292 HD
ENDBRANCH   7  15
TORSDOF 2
ENDMDL
MODEL 6
REMARK VINA RESULT:      -7.5      1.671      2.473
REMARK  Name = 54695768
REMARK  2 active torsions:
REMARK  status: ('A' for Active; 'I' for Inactive)
REMARK    1  A    between atoms: C_5  and  O_13
REMARK    2  A    between atoms: C_7  and  O_15
REMARK                            x       y       z     vdW  Elec       q    Type
REMARK                         _______ _______ _______ _____ _____    ______ ____
ROOT
ATOM      1  O   UNL     1      35.333 -19.210 -22.969  0.00  0.00    -0.264 OA
ATOM      2  N   UNL     1      34.491 -17.286 -23.977  0.00  0.00    -0.291 N 
ATOM      3  C   UNL     1      34.114 -15.909 -23.843  0.00  0.00    +0.066 A 
ATOM      4  C   UNL     1      34.254 -15.274 -22.595  0.00  0.00    +0.053 A 
ATOM      5  C   UNL     1      34.783 -16.039 -21.462  0.00  0.00    +0.174 A 
ATOM      6  C   UNL     1      34.996 -18.026 -22.906  0.00  0.00    +0.298 A 
ATOM      7  C   UNL     1      35.131 -17.323 -21.598  0.00  0.00    +0.225 A 
ATOM      8  C   UNL     1      33.607 -15.171 -24.928  0.00  0.00    +0.017 C 
ATOM      9  C   UNL     1      33.886 -13.924 -22.459  0.00  0.00    +0.005 C 
ATOM     10  C   UNL     1      34.343 -17.939 -25.276  0.00  0.00    +0.134 C 
ATOM     11  C   UNL     1      33.246 -13.831 -24.778  0.00  0.00    +0.001 C 
ATOM     12  C   UNL     1      33.385 -13.208 -23.544  0.00  0.00    +0.000 C 
ENDROOT
BRANCH   5  13
ATOM     13  O   UNL     1      34.898 -15.365 -20.264  0.00  0.00    -0.503 OA
ATOM     14  H   UNL     1      34.152 -15.272 -19.704  0.00  0.00    +0.292 HD
ENDBRANCH   5  13
BRANCH   7  15
ATOM     15  O   UNL     1      35.628 -18.039 -20.527  0.00  0.00    -0.500 OA
ATOM     16  H   UNL     1      36.309 -18.669 -20.659  0.00  0.00    +0.292 HD
ENDBRANCH   7  15
TORSDOF 2
ENDMDL
MODEL 7
REMARK VINA RESULT:      -7.4      2.023      3.899
REMARK  Name = 54695768
REMARK  2 active torsions:
REMARK  status: ('A' for Active; 'I' for Inactive)
REMARK    1  A    between atoms: C_5  and  O_13
REMARK    2  A    between atoms: C_7  and  O_15
REMARK                            x       y       z     vdW  Elec       q    Type
REMARK                         _______ _______ _______ _____ _____    ______ ____
ROOT
ATOM      1  O   UNL     1      33.827 -13.431 -22.624  0.00  0.00    -0.264 OA
ATOM      2  N   UNL     1      33.958 -15.384 -23.887  0.00  0.00    -0.291 N 
ATOM      3  C   UNL     1      34.305 -16.774 -23.944  0.00  0.00    +0.066 A 
ATOM      4  C   UNL     1      34.816 -17.404 -22.795  0.00  0.00    +0.053 A 
ATOM      5  C   UNL     1      34.981 -16.621 -21.566  0.00  0.00    +0.174 A 
ATOM      6  C   UNL     1      34.110 -14.626 -22.724  0.00  0.00    +0.298 A 
ATOM      7  C   UNL     1      34.654 -15.326 -21.525  0.00  0.00    +0.225 A 
ATOM      8  C   UNL     1      34.148 -17.529 -25.120  0.00  0.00    +0.017 C 
ATOM      9  C   UNL     1      35.158 -18.767 -22.845  0.00  0.00    +0.005 C 
ATOM     10  C   UNL     1      33.427 -14.736 -25.084  0.00  0.00    +0.134 C 
ATOM     11  C   UNL     1      34.491 -18.882 -25.155  0.00  0.00    +0.001 C 
ATOM     12  C   UNL     1      34.996 -19.501 -24.019  0.00  0.00    +0.000 C 
ENDROOT
BRANCH   5  13
ATOM     13  O   UNL     1      35.487 -17.292 -20.472  0.00  0.00    -0.503 OA
ATOM     14  H   UNL     1      36.180 -17.913 -20.581  0.00  0.00    +0.292 HD
ENDBRANCH   5  13
BRANCH   7  15
ATOM     15  O   UNL     1      34.812 -14.593 -20.365  0.00  0.00    -0.500 OA
ATOM     16  H   UNL     1      34.440 -13.735 -20.298  0.00  0.00    +0.292 HD
ENDBRANCH   7  15
TORSDOF 2
ENDMDL
MODEL 8
REMARK VINA RESULT:      -7.3      1.409      3.398
REMARK  Name = 54695768
REMARK  2 active torsions:
REMARK  status: ('A' for Active; 'I' for Inactive)
REMARK    1  A    between atoms: C_5  and  O_13
REMARK    2  A    between atoms: C_7  and  O_15
REMARK                            x       y       z     vdW  Elec       q    Type
REMARK                         _______ _______ _______ _____ _____    ______ ____
ROOT
ATOM      1  O   UNL     1      35.365 -17.578 -20.685  0.00  0.00    -0.264 OA
ATOM      2  N   UNL     1      34.536 -15.788 -21.924  0.00  0.00    -0.291 N 
ATOM      3  C   UNL     1      34.093 -15.289 -23.193  0.00  0.00    +0.066 A 
ATOM      4  C   UNL     1      34.097 -16.146 -24.309  0.00  0.00    +0.053 A 
ATOM      5  C   UNL     1      34.555 -17.529 -24.144  0.00  0.00    +0.174 A 
ATOM      6  C   UNL     1      34.975 -17.103 -21.753  0.00  0.00    +0.298 A 
ATOM      7  C   UNL     1      34.966 -17.983 -22.956  0.00  0.00    +0.225 A 
ATOM      8  C   UNL     1      33.652 -13.964 -23.356  0.00  0.00    +0.017 C 
ATOM      9  C   UNL     1      33.663 -15.663 -25.556  0.00  0.00    +0.005 C 
ATOM     10  C   UNL     1      34.529 -14.893 -20.769  0.00  0.00    +0.134 C 
ATOM     11  C   UNL     1      33.224 -13.498 -24.599  0.00  0.00    +0.001 C 
ATOM     12  C   UNL     1      33.230 -14.346 -25.699  0.00  0.00    +0.000 C 
ENDROOT
BRANCH   5  13
ATOM     13  O   UNL     1      34.537 -18.322 -25.273  0.00  0.00    -0.503 OA
ATOM     14  H   UNL     1      33.806 -18.885 -25.439  0.00  0.00    +0.292 HD
ENDBRANCH   5  13
BRANCH   7  15
ATOM     15  O   UNL     1      35.397 -19.287 -22.807  0.00  0.00    -0.500 OA
ATOM     16  H   UNL     1      34.775 -19.988 -22.792  0.00  0.00    +0.292 HD
ENDBRANCH   7  15
TORSDOF 2
ENDMDL
MODEL 9
REMARK VINA RESULT:      -7.0      9.781     11.155
REMARK  Name = 54695768
REMARK  2 active torsions:
REMARK  status: ('A' for Active; 'I' for Inactive)
REMARK    1  A    between atoms: C_5  and  O_13
REMARK    2  A    between atoms: C_7  and  O_15
REMARK                            x       y       z     vdW  Elec       q    Type
REMARK                         _______ _______ _______ _____ _____    ______ ____
ROOT
ATOM      1  O   UNL     1      36.148 -23.647 -15.917  0.00  0.00    -0.264 OA
ATOM      2  N   UNL     1      34.078 -23.836 -14.867  0.00  0.00    -0.291 N 
ATOM      3  C   UNL     1      32.655 -23.680 -14.947  0.00  0.00    +0.066 A 
ATOM      4  C   UNL     1      32.081 -23.203 -16.140  0.00  0.00    +0.053 A 
ATOM      5  C   UNL     1      32.954 -22.878 -17.271  0.00  0.00    +0.174 A 
ATOM      6  C   UNL     1      34.921 -23.530 -15.937  0.00  0.00    +0.298 A 
ATOM      7  C   UNL     1      34.280 -23.028 -17.185  0.00  0.00    +0.225 A 
ATOM      8  C   UNL     1      31.813 -23.990 -13.864  0.00  0.00    +0.017 C 
ATOM      9  C   UNL     1      30.686 -23.048 -16.224  0.00  0.00    +0.005 C 
ATOM     10  C   UNL     1      34.667 -24.332 -13.625  0.00  0.00    +0.134 C 
ATOM     11  C   UNL     1      30.430 -23.831 -13.962  0.00  0.00    +0.001 C 
ATOM     12  C   UNL     1      29.866 -23.360 -15.142  0.00  0.00    +0.000 C 
ENDROOT
BRANCH   5  13
ATOM     13  O   UNL     1      32.335 -22.415 -18.414  0.00  0.00    -0.503 OA
ATOM     14  H   UNL     1      32.033 -23.021 -19.062  0.00  0.00    +0.292 HD
ENDBRANCH   5  13
BRANCH   7  15
ATOM     15  O   UNL     1      35.098 -22.720 -18.254  0.00  0.00    -0.500 OA
ATOM     16  H   UNL     1      34.876 -23.016 -19.115  0.00  0.00    +0.292 HD
ENDBRANCH   7  15
TORSDOF 2
ENDMDL
