MODEL 1
REMARK VINA RESULT:     -11.2      0.000      0.000
REMARK  Name = 9931954
REMARK  3 active torsions:
REMARK  status: ('A' for Active; 'I' for Inactive)
REMARK    1  A    between atoms: C_8  and  C_18
REMARK    2  A    between atoms: C_21  and  C_24
REMARK    3  A    between atoms: C_24  and  N_25
REMARK                            x       y       z     vdW  Elec       q    Type
REMARK                         _______ _______ _______ _____ _____    ______ ____
ROOT
ATOM      1  F   UNL     1      33.266 -14.483 -27.398  0.00  0.00    -0.204 F 
ATOM      2  O   UNL     1      32.889 -12.020 -23.113  0.00  0.00    -0.270 OA
ATOM      3  N   UNL     1      34.617 -17.520 -23.853  0.00  0.00    -0.353 N 
ATOM      4  N   UNL     1      32.628 -13.524 -21.429  0.00  0.00    -0.301 N 
ATOM      5  C   UNL     1      34.027 -16.180 -22.180  0.00  0.00    -0.003 A 
ATOM      6  C   UNL     1      33.752 -15.506 -23.409  0.00  0.00    +0.018 A 
ATOM      7  C   UNL     1      33.731 -15.656 -20.821  0.00  0.00    +0.049 C 
ATOM      8  C   UNL     1      34.569 -17.409 -22.491  0.00  0.00    +0.053 A 
ATOM      9  C   UNL     1      34.115 -16.382 -24.439  0.00  0.00    +0.059 A 
ATOM     10  C   UNL     1      33.224 -14.240 -23.748  0.00  0.00    +0.057 C 
ATOM     11  C   UNL     1      32.449 -14.835 -20.821  0.00  0.00    +0.094 C 
ATOM     12  C   UNL     1      32.898 -13.196 -22.744  0.00  0.00    +0.246 C 
ATOM     13  C   UNL     1      33.963 -16.070 -25.794  0.00  0.00    +0.047 C 
ATOM     14  C   UNL     1      33.071 -13.920 -25.113  0.00  0.00    +0.034 C 
ATOM     15  C   UNL     1      33.428 -14.822 -26.112  0.00  0.00    +0.142 C 
ATOM     16  H   UNL     1      34.960 -18.301 -24.342  0.00  0.00    +0.166 HD
ATOM     17  H   UNL     1      32.545 -12.761 -20.814  0.00  0.00    +0.150 HD
ENDROOT
BRANCH   8  18
ATOM     18  C   UNL     1      35.027 -18.481 -21.637  0.00  0.00    +0.015 C 
ATOM     19  C   UNL     1      34.107 -19.372 -21.087  0.00  0.00    +0.001 C 
ATOM     20  C   UNL     1      36.387 -18.620 -21.365  0.00  0.00    +0.001 C 
ATOM     21  C   UNL     1      35.910 -20.548 -19.990  0.00  0.00    -0.044 C 
ATOM     22  C   UNL     1      34.550 -20.407 -20.263  0.00  0.00    -0.006 C 
ATOM     23  C   UNL     1      36.828 -19.655 -20.540  0.00  0.00    -0.006 C 
BRANCH  21  24
ATOM     24  C   UNL     1      36.383 -21.654 -19.108  0.00  0.00    -0.054 C 
BRANCH  24  25
ATOM     25  N   UNL     1      36.835 -21.177 -17.825  0.00  0.00    +0.385 N 
ATOM     26  C   UNL     1      36.769 -22.226 -16.809  0.00  0.00    -0.105 C 
ATOM     27  H   UNL     1      36.245 -20.397 -17.535  0.00  0.00    -0.084 HD
ATOM     28  H   UNL     1      37.807 -20.883 -17.918  0.00  0.00    -0.084 HD
ENDBRANCH  24  25
ENDBRANCH  21  24
ENDBRANCH   8  18
TORSDOF 3
ENDMDL
MODEL 2
REMARK VINA RESULT:     -10.4      6.122     10.419
REMARK  Name = 9931954
REMARK  3 active torsions:
REMARK  status: ('A' for Active; 'I' for Inactive)
REMARK    1  A    between atoms: C_8  and  C_18
REMARK    2  A    between atoms: C_21  and  C_24
REMARK    3  A    between atoms: C_24  and  N_25
REMARK                            x       y       z     vdW  Elec       q    Type
REMARK                         _______ _______ _______ _____ _____    ______ ____
ROOT
ATOM      1  F   UNL     1      29.622 -25.383 -14.114  0.00  0.00    -0.204 F 
ATOM      2  O   UNL     1      34.179 -24.492 -12.381  0.00  0.00    -0.270 OA
ATOM      3  N   UNL     1      32.002 -22.861 -17.518  0.00  0.00    -0.353 N 
ATOM      4  N   UNL     1      35.574 -24.146 -14.143  0.00  0.00    -0.301 N 
ATOM      5  C   UNL     1      33.982 -22.948 -16.511  0.00  0.00    -0.003 A 
ATOM      6  C   UNL     1      33.031 -23.624 -15.685  0.00  0.00    +0.018 A 
ATOM      7  C   UNL     1      35.436 -22.821 -16.231  0.00  0.00    +0.049 C 
ATOM      8  C   UNL     1      33.311 -22.482 -17.621  0.00  0.00    +0.053 A 
ATOM      9  C   UNL     1      31.804 -23.568 -16.355  0.00  0.00    +0.059 A 
ATOM     10  C   UNL     1      33.095 -24.283 -14.437  0.00  0.00    +0.057 C 
ATOM     11  C   UNL     1      35.968 -24.071 -15.542  0.00  0.00    +0.094 C 
ATOM     12  C   UNL     1      34.317 -24.318 -13.594  0.00  0.00    +0.246 C 
ATOM     13  C   UNL     1      30.636 -24.152 -15.855  0.00  0.00    +0.047 C 
ATOM     14  C   UNL     1      31.920 -24.871 -13.928  0.00  0.00    +0.034 C 
ATOM     15  C   UNL     1      30.718 -24.810 -14.629  0.00  0.00    +0.142 C 
ATOM     16  H   UNL     1      31.303 -22.657 -18.179  0.00  0.00    +0.166 HD
ATOM     17  H   UNL     1      36.308 -24.063 -13.494  0.00  0.00    +0.150 HD
ENDROOT
BRANCH   8  18
ATOM     18  C   UNL     1      33.785 -21.734 -18.763  0.00  0.00    +0.015 C 
ATOM     19  C   UNL     1      32.890 -20.981 -19.521  0.00  0.00    +0.001 C 
ATOM     20  C   UNL     1      35.136 -21.769 -19.105  0.00  0.00    +0.001 C 
ATOM     21  C   UNL     1      34.699 -20.293 -20.967  0.00  0.00    -0.044 C 
ATOM     22  C   UNL     1      33.347 -20.260 -20.623  0.00  0.00    -0.006 C 
ATOM     23  C   UNL     1      35.593 -21.047 -20.208  0.00  0.00    -0.006 C 
BRANCH  21  24
ATOM     24  C   UNL     1      35.188 -19.522 -22.145  0.00  0.00    -0.054 C 
BRANCH  24  25
ATOM     25  N   UNL     1      36.008 -18.399 -21.764  0.00  0.00    +0.385 N 
ATOM     26  C   UNL     1      35.194 -17.238 -21.406  0.00  0.00    -0.105 C 
ATOM     27  H   UNL     1      36.613 -18.151 -22.547  0.00  0.00    -0.084 HD
ATOM     28  H   UNL     1      36.559 -18.668 -20.949  0.00  0.00    -0.084 HD
ENDBRANCH  24  25
ENDBRANCH  21  24
ENDBRANCH   8  18
TORSDOF 3
ENDMDL
MODEL 3
REMARK VINA RESULT:     -10.1      2.171      3.357
REMARK  Name = 9931954
REMARK  3 active torsions:
REMARK  status: ('A' for Active; 'I' for Inactive)
REMARK    1  A    between atoms: C_8  and  C_18
REMARK    2  A    between atoms: C_21  and  C_24
REMARK    3  A    between atoms: C_24  and  N_25
REMARK                            x       y       z     vdW  Elec       q    Type
REMARK                         _______ _______ _______ _____ _____    ______ ____
ROOT
ATOM      1  F   UNL     1      32.296 -11.633 -21.939  0.00  0.00    -0.204 F 
ATOM      2  O   UNL     1      32.799 -14.073 -26.224  0.00  0.00    -0.270 OA
ATOM      3  N   UNL     1      33.405 -16.241 -20.865  0.00  0.00    -0.353 N 
ATOM      4  N   UNL     1      34.130 -15.883 -25.879  0.00  0.00    -0.301 N 
ATOM      5  C   UNL     1      33.825 -16.859 -22.959  0.00  0.00    -0.003 A 
ATOM      6  C   UNL     1      33.432 -15.485 -22.969  0.00  0.00    +0.018 A 
ATOM      7  C   UNL     1      34.244 -17.648 -24.146  0.00  0.00    +0.049 C 
ATOM      8  C   UNL     1      33.784 -17.293 -21.651  0.00  0.00    +0.053 A 
ATOM      9  C   UNL     1      33.195 -15.123 -21.639  0.00  0.00    +0.059 A 
ATOM     10  C   UNL     1      33.261 -14.511 -23.979  0.00  0.00    +0.057 C 
ATOM     11  C   UNL     1      35.006 -16.778 -25.137  0.00  0.00    +0.094 C 
ATOM     12  C   UNL     1      33.388 -14.808 -25.428  0.00  0.00    +0.246 C 
ATOM     13  C   UNL     1      32.813 -13.833 -21.256  0.00  0.00    +0.047 C 
ATOM     14  C   UNL     1      32.874 -13.210 -23.599  0.00  0.00    +0.034 C 
ATOM     15  C   UNL     1      32.662 -12.880 -22.262  0.00  0.00    +0.142 C 
ATOM     16  H   UNL     1      33.298 -16.277 -19.888  0.00  0.00    +0.166 HD
ATOM     17  H   UNL     1      34.055 -16.071 -26.842  0.00  0.00    +0.150 HD
ENDROOT
BRANCH   8  18
ATOM     18  C   UNL     1      34.080 -18.586 -21.077  0.00  0.00    +0.015 C 
ATOM     19  C   UNL     1      35.404 -18.997 -20.935  0.00  0.00    +0.001 C 
ATOM     20  C   UNL     1      33.039 -19.419 -20.668  0.00  0.00    +0.001 C 
ATOM     21  C   UNL     1      34.649 -21.080 -19.971  0.00  0.00    -0.044 C 
ATOM     22  C   UNL     1      35.689 -20.245 -20.382  0.00  0.00    -0.006 C 
ATOM     23  C   UNL     1      33.325 -20.667 -20.114  0.00  0.00    -0.006 C 
BRANCH  21  24
ATOM     24  C   UNL     1      34.954 -22.414 -19.380  0.00  0.00    -0.054 C 
BRANCH  24  25
ATOM     25  N   UNL     1      33.761 -23.156 -19.057  0.00  0.00    +0.385 N 
ATOM     26  C   UNL     1      33.534 -23.206 -17.614  0.00  0.00    -0.105 C 
ATOM     27  H   UNL     1      33.857 -24.108 -19.411  0.00  0.00    -0.084 HD
ATOM     28  H   UNL     1      32.966 -22.687 -19.490  0.00  0.00    -0.084 HD
ENDBRANCH  24  25
ENDBRANCH  21  24
ENDBRANCH   8  18
TORSDOF 3
ENDMDL
MODEL 4
REMARK VINA RESULT:      -9.8      3.289      7.740
REMARK  Name = 9931954
REMARK  3 active torsions:
REMARK  status: ('A' for Active; 'I' for Inactive)
REMARK    1  A    between atoms: C_8  and  C_18
REMARK    2  A    between atoms: C_21  and  C_24
REMARK    3  A    between atoms: C_24  and  N_25
REMARK                            x       y       z     vdW  Elec       q    Type
REMARK                         _______ _______ _______ _____ _____    ______ ____
ROOT
ATOM      1  F   UNL     1      34.850 -18.578 -25.980  0.00  0.00    -0.204 F 
ATOM      2  O   UNL     1      34.456 -18.668 -21.040  0.00  0.00    -0.270 OA
ATOM      3  N   UNL     1      33.409 -14.161 -24.557  0.00  0.00    -0.353 N 
ATOM      4  N   UNL     1      34.669 -16.546 -20.254  0.00  0.00    -0.301 N 
ATOM      5  C   UNL     1      33.653 -14.541 -22.381  0.00  0.00    -0.003 A 
ATOM      6  C   UNL     1      34.001 -15.735 -23.084  0.00  0.00    +0.018 A 
ATOM      7  C   UNL     1      33.728 -14.351 -20.909  0.00  0.00    +0.049 C 
ATOM      8  C   UNL     1      33.282 -13.600 -23.317  0.00  0.00    +0.053 A 
ATOM      9  C   UNL     1      33.856 -15.457 -24.448  0.00  0.00    +0.059 A 
ATOM     10  C   UNL     1      34.431 -17.024 -22.696  0.00  0.00    +0.057 C 
ATOM     11  C   UNL     1      34.909 -15.112 -20.321  0.00  0.00    +0.094 C 
ATOM     12  C   UNL     1      34.524 -17.461 -21.280  0.00  0.00    +0.246 C 
ATOM     13  C   UNL     1      34.136 -16.390 -25.450  0.00  0.00    +0.047 C 
ATOM     14  C   UNL     1      34.712 -17.970 -23.702  0.00  0.00    +0.034 C 
ATOM     15  C   UNL     1      34.572 -17.653 -25.052  0.00  0.00    +0.142 C 
ATOM     16  H   UNL     1      33.209 -13.704 -25.405  0.00  0.00    +0.166 HD
ATOM     17  H   UNL     1      34.598 -16.918 -19.346  0.00  0.00    +0.150 HD
ENDROOT
BRANCH   8  18
ATOM     18  C   UNL     1      32.839 -12.234 -23.156  0.00  0.00    +0.015 C 
ATOM     19  C   UNL     1      31.763 -11.947 -22.319  0.00  0.00    +0.001 C 
ATOM     20  C   UNL     1      33.490 -11.207 -23.839  0.00  0.00    +0.001 C 
ATOM     21  C   UNL     1      31.985  -9.599 -22.846  0.00  0.00    -0.044 C 
ATOM     22  C   UNL     1      31.335 -10.628 -22.164  0.00  0.00    -0.006 C 
ATOM     23  C   UNL     1      33.062  -9.889 -23.683  0.00  0.00    -0.006 C 
BRANCH  21  24
ATOM     24  C   UNL     1      31.528  -8.190 -22.680  0.00  0.00    -0.054 C 
BRANCH  24  25
ATOM     25  N   UNL     1      32.538  -7.353 -22.082  0.00  0.00    +0.385 N 
ATOM     26  C   UNL     1      32.590  -7.527 -20.632  0.00  0.00    -0.105 C 
ATOM     27  H   UNL     1      32.326  -6.377 -22.291  0.00  0.00    -0.084 HD
ATOM     28  H   UNL     1      33.444  -7.619 -22.469  0.00  0.00    -0.084 HD
ENDBRANCH  24  25
ENDBRANCH  21  24
ENDBRANCH   8  18
TORSDOF 3
ENDMDL
MODEL 5
REMARK VINA RESULT:      -9.6      3.900      6.412
REMARK  Name = 9931954
REMARK  3 active torsions:
REMARK  status: ('A' for Active; 'I' for Inactive)
REMARK    1  A    between atoms: C_8  and  C_18
REMARK    2  A    between atoms: C_21  and  C_24
REMARK    3  A    between atoms: C_24  and  N_25
REMARK                            x       y       z     vdW  Elec       q    Type
REMARK                         _______ _______ _______ _____ _____    ______ ____
ROOT
ATOM      1  F   UNL     1      33.206  -6.108 -23.723  0.00  0.00    -0.204 F 
ATOM      2  O   UNL     1      31.797  -8.261 -19.486  0.00  0.00    -0.270 OA
ATOM      3  N   UNL     1      33.666 -10.911 -24.310  0.00  0.00    -0.353 N 
ATOM      4  N   UNL     1      31.139 -10.390 -19.935  0.00  0.00    -0.301 N 
ATOM      5  C   UNL     1      32.685 -11.461 -22.392  0.00  0.00    -0.003 A 
ATOM      6  C   UNL     1      32.714 -10.035 -22.486  0.00  0.00    +0.018 A 
ATOM      7  C   UNL     1      32.068 -12.243 -21.290  0.00  0.00    +0.049 C 
ATOM      8  C   UNL     1      33.289 -11.964 -23.524  0.00  0.00    +0.053 A 
ATOM      9  C   UNL     1      33.318  -9.723 -23.709  0.00  0.00    +0.059 A 
ATOM     10  C   UNL     1      32.281  -8.979 -21.652  0.00  0.00    +0.057 C 
ATOM     11  C   UNL     1      30.822 -11.547 -20.759  0.00  0.00    +0.094 C 
ATOM     12  C   UNL     1      31.719  -9.188 -20.295  0.00  0.00    +0.246 C 
ATOM     13  C   UNL     1      33.498  -8.411 -24.158  0.00  0.00    +0.047 C 
ATOM     14  C   UNL     1      32.462  -7.654 -22.100  0.00  0.00    +0.034 C 
ATOM     15  C   UNL     1      33.053  -7.380 -23.331  0.00  0.00    +0.142 C 
ATOM     16  H   UNL     1      34.119 -10.990 -25.179  0.00  0.00    +0.166 HD
ATOM     17  H   UNL     1      30.908 -10.477 -18.982  0.00  0.00    +0.150 HD
ENDROOT
BRANCH   8  18
ATOM     18  C   UNL     1      33.529 -13.328 -23.937  0.00  0.00    +0.015 C 
ATOM     19  C   UNL     1      33.084 -13.765 -25.183  0.00  0.00    +0.001 C 
ATOM     20  C   UNL     1      34.206 -14.202 -23.088  0.00  0.00    +0.001 C 
ATOM     21  C   UNL     1      33.993 -15.958 -24.734  0.00  0.00    -0.044 C 
ATOM     22  C   UNL     1      33.316 -15.082 -25.582  0.00  0.00    -0.006 C 
ATOM     23  C   UNL     1      34.437 -15.519 -23.488  0.00  0.00    -0.006 C 
BRANCH  21  24
ATOM     24  C   UNL     1      34.240 -17.365 -25.160  0.00  0.00    -0.054 C 
BRANCH  24  25
ATOM     25  N   UNL     1      35.305 -17.985 -24.412  0.00  0.00    +0.385 N 
ATOM     26  C   UNL     1      34.841 -19.181 -23.709  0.00  0.00    -0.105 C 
ATOM     27  H   UNL     1      35.662 -17.317 -23.728  0.00  0.00    -0.084 HD
ATOM     28  H   UNL     1      36.036 -18.262 -25.066  0.00  0.00    -0.084 HD
ENDBRANCH  24  25
ENDBRANCH  21  24
ENDBRANCH   8  18
TORSDOF 3
ENDMDL
MODEL 6
REMARK VINA RESULT:      -9.3      3.766      8.587
REMARK  Name = 9931954
REMARK  3 active torsions:
REMARK  status: ('A' for Active; 'I' for Inactive)
REMARK    1  A    between atoms: C_8  and  C_18
REMARK    2  A    between atoms: C_21  and  C_24
REMARK    3  A    between atoms: C_24  and  N_25
REMARK                            x       y       z     vdW  Elec       q    Type
REMARK                         _______ _______ _______ _____ _____    ______ ____
ROOT
ATOM      1  F   UNL     1      34.855 -18.154 -20.748  0.00  0.00    -0.204 F 
ATOM      2  O   UNL     1      35.107 -17.518 -25.657  0.00  0.00    -0.270 OA
ATOM      3  N   UNL     1      33.397 -13.618 -21.702  0.00  0.00    -0.353 N 
ATOM      4  N   UNL     1      33.671 -15.859 -26.252  0.00  0.00    -0.301 N 
ATOM      5  C   UNL     1      33.370 -13.856 -23.912  0.00  0.00    -0.003 A 
ATOM      6  C   UNL     1      33.805 -15.089 -23.336  0.00  0.00    +0.018 A 
ATOM      7  C   UNL     1      33.161 -13.605 -25.362  0.00  0.00    +0.049 C 
ATOM      8  C   UNL     1      33.140 -12.973 -22.880  0.00  0.00    +0.053 A 
ATOM      9  C   UNL     1      33.792 -14.912 -21.948  0.00  0.00    +0.059 A 
ATOM     10  C   UNL     1      34.203 -16.341 -23.857  0.00  0.00    +0.057 C 
ATOM     11  C   UNL     1      32.637 -14.853 -26.061  0.00  0.00    +0.094 C 
ATOM     12  C   UNL     1      34.349 -16.610 -25.310  0.00  0.00    +0.246 C 
ATOM     13  C   UNL     1      34.138 -15.924 -21.047  0.00  0.00    +0.047 C 
ATOM     14  C   UNL     1      34.555 -17.364 -22.953  0.00  0.00    +0.034 C 
ATOM     15  C   UNL     1      34.516 -17.157 -21.576  0.00  0.00    +0.142 C 
ATOM     16  H   UNL     1      33.311 -13.215 -20.809  0.00  0.00    +0.166 HD
ATOM     17  H   UNL     1      33.925 -16.030 -27.187  0.00  0.00    +0.150 HD
ENDROOT
BRANCH   8  18
ATOM     18  C   UNL     1      32.694 -11.598 -22.897  0.00  0.00    +0.015 C 
ATOM     19  C   UNL     1      33.377 -10.656 -23.663  0.00  0.00    +0.001 C 
ATOM     20  C   UNL     1      31.580 -11.219 -22.149  0.00  0.00    +0.001 C 
ATOM     21  C   UNL     1      31.832  -8.948 -22.931  0.00  0.00    -0.044 C 
ATOM     22  C   UNL     1      32.946  -9.329 -23.680  0.00  0.00    -0.006 C 
ATOM     23  C   UNL     1      31.150  -9.893 -22.166  0.00  0.00    -0.006 C 
BRANCH  21  24
ATOM     24  C   UNL     1      31.372  -7.530 -22.949  0.00  0.00    -0.054 C 
BRANCH  24  25
ATOM     25  N   UNL     1      32.329  -6.635 -22.348  0.00  0.00    +0.385 N 
ATOM     26  C   UNL     1      31.933  -6.259 -20.992  0.00  0.00    -0.105 C 
ATOM     27  H   UNL     1      32.398  -5.793 -22.919  0.00  0.00    -0.084 HD
ATOM     28  H   UNL     1      33.227  -7.115 -22.298  0.00  0.00    -0.084 HD
ENDBRANCH  24  25
ENDBRANCH  21  24
ENDBRANCH   8  18
TORSDOF 3
ENDMDL
MODEL 7
REMARK VINA RESULT:      -9.2      5.946     10.366
REMARK  Name = 9931954
REMARK  3 active torsions:
REMARK  status: ('A' for Active; 'I' for Inactive)
REMARK    1  A    between atoms: C_8  and  C_18
REMARK    2  A    between atoms: C_21  and  C_24
REMARK    3  A    between atoms: C_24  and  N_25
REMARK                            x       y       z     vdW  Elec       q    Type
REMARK                         _______ _______ _______ _____ _____    ______ ____
ROOT
ATOM      1  F   UNL     1      36.650 -24.838 -12.659  0.00  0.00    -0.204 F 
ATOM      2  O   UNL     1      31.906 -25.639 -13.850  0.00  0.00    -0.270 OA
ATOM      3  N   UNL     1      35.808 -22.573 -16.875  0.00  0.00    -0.353 N 
ATOM      4  N   UNL     1      31.211 -23.974 -15.233  0.00  0.00    -0.301 N 
ATOM      5  C   UNL     1      33.611 -22.913 -16.872  0.00  0.00    -0.003 A 
ATOM      6  C   UNL     1      34.159 -23.521 -15.700  0.00  0.00    +0.018 A 
ATOM      7  C   UNL     1      32.169 -22.862 -17.227  0.00  0.00    +0.049 C 
ATOM      8  C   UNL     1      34.656 -22.351 -17.575  0.00  0.00    +0.053 A 
ATOM      9  C   UNL     1      35.535 -23.273 -15.723  0.00  0.00    +0.059 A 
ATOM     10  C   UNL     1      33.618 -24.253 -14.619  0.00  0.00    +0.057 C 
ATOM     11  C   UNL     1      31.306 -22.728 -15.980  0.00  0.00    +0.094 C 
ATOM     12  C   UNL     1      32.192 -24.659 -14.542  0.00  0.00    +0.246 C 
ATOM     13  C   UNL     1      36.404 -23.700 -14.713  0.00  0.00    +0.047 C 
ATOM     14  C   UNL     1      34.489 -24.688 -13.601  0.00  0.00    +0.034 C 
ATOM     15  C   UNL     1      35.853 -24.410 -13.647  0.00  0.00    +0.142 C 
ATOM     16  H   UNL     1      36.703 -22.276 -17.155  0.00  0.00    +0.166 HD
ATOM     17  H   UNL     1      30.319 -24.388 -15.218  0.00  0.00    +0.150 HD
ENDROOT
BRANCH   8  18
ATOM     18  C   UNL     1      34.667 -21.622 -18.823  0.00  0.00    +0.015 C 
ATOM     19  C   UNL     1      33.465 -21.238 -19.414  0.00  0.00    +0.001 C 
ATOM     20  C   UNL     1      35.881 -21.305 -19.431  0.00  0.00    +0.001 C 
ATOM     21  C   UNL     1      34.690 -20.215 -21.229  0.00  0.00    -0.044 C 
ATOM     22  C   UNL     1      33.477 -20.534 -20.618  0.00  0.00    -0.006 C 
ATOM     23  C   UNL     1      35.891 -20.600 -20.635  0.00  0.00    -0.006 C 
BRANCH  21  24
ATOM     24  C   UNL     1      34.702 -19.463 -22.516  0.00  0.00    -0.054 C 
BRANCH  24  25
ATOM     25  N   UNL     1      35.612 -18.345 -22.489  0.00  0.00    +0.385 N 
ATOM     26  C   UNL     1      35.018 -17.186 -21.824  0.00  0.00    -0.105 C 
ATOM     27  H   UNL     1      35.852 -18.090 -23.447  0.00  0.00    -0.084 HD
ATOM     28  H   UNL     1      36.443 -18.622 -21.967  0.00  0.00    -0.084 HD
ENDBRANCH  24  25
ENDBRANCH  21  24
ENDBRANCH   8  18
TORSDOF 3
ENDMDL
MODEL 8
REMARK VINA RESULT:      -8.8      4.065      6.593
REMARK  Name = 9931954
REMARK  3 active torsions:
REMARK  status: ('A' for Active; 'I' for Inactive)
REMARK    1  A    between atoms: C_8  and  C_18
REMARK    2  A    between atoms: C_21  and  C_24
REMARK    3  A    between atoms: C_24  and  N_25
REMARK                            x       y       z     vdW  Elec       q    Type
REMARK                         _______ _______ _______ _____ _____    ______ ____
ROOT
ATOM      1  F   UNL     1      30.895  -8.896 -19.228  0.00  0.00    -0.204 F 
ATOM      2  O   UNL     1      32.695  -6.971 -23.426  0.00  0.00    -0.270 OA
ATOM      3  N   UNL     1      32.423 -12.595 -21.986  0.00  0.00    -0.353 N 
ATOM      4  N   UNL     1      34.175  -8.442 -24.327  0.00  0.00    -0.301 N 
ATOM      5  C   UNL     1      33.383 -11.328 -23.540  0.00  0.00    -0.003 A 
ATOM      6  C   UNL     1      32.800 -10.467 -22.560  0.00  0.00    +0.018 A 
ATOM      7  C   UNL     1      34.169 -10.887 -24.722  0.00  0.00    +0.049 C 
ATOM      8  C   UNL     1      33.121 -12.627 -23.161  0.00  0.00    +0.053 A 
ATOM      9  C   UNL     1      32.223 -11.293 -21.589  0.00  0.00    +0.059 A 
ATOM     10  C   UNL     1      32.711  -9.065 -22.400  0.00  0.00    +0.057 C 
ATOM     11  C   UNL     1      34.990  -9.646 -24.397  0.00  0.00    +0.094 C 
ATOM     12  C   UNL     1      33.198  -8.096 -23.412  0.00  0.00    +0.246 C 
ATOM     13  C   UNL     1      31.575 -10.798 -20.453  0.00  0.00    +0.047 C 
ATOM     14  C   UNL     1      32.057  -8.561 -21.257  0.00  0.00    +0.034 C 
ATOM     15  C   UNL     1      31.507  -9.413 -20.302  0.00  0.00    +0.142 C 
ATOM     16  H   UNL     1      32.109 -13.388 -21.495  0.00  0.00    +0.166 HD
ATOM     17  H   UNL     1      34.344  -7.778 -25.033  0.00  0.00    +0.150 HD
ENDROOT
BRANCH   8  18
ATOM     18  C   UNL     1      33.474 -13.881 -23.786  0.00  0.00    +0.015 C 
ATOM     19  C   UNL     1      32.993 -14.182 -25.059  0.00  0.00    +0.001 C 
ATOM     20  C   UNL     1      34.295 -14.786 -23.115  0.00  0.00    +0.001 C 
ATOM     21  C   UNL     1      34.156 -16.299 -24.992  0.00  0.00    -0.044 C 
ATOM     22  C   UNL     1      33.334 -15.393 -25.662  0.00  0.00    -0.006 C 
ATOM     23  C   UNL     1      34.636 -15.996 -23.719  0.00  0.00    -0.006 C 
BRANCH  21  24
ATOM     24  C   UNL     1      34.520 -17.593 -25.638  0.00  0.00    -0.054 C 
BRANCH  24  25
ATOM     25  N   UNL     1      33.992 -18.729 -24.925  0.00  0.00    +0.385 N 
ATOM     26  C   UNL     1      35.015 -19.366 -24.097  0.00  0.00    -0.105 C 
ATOM     27  H   UNL     1      33.641 -19.409 -25.600  0.00  0.00    -0.084 HD
ATOM     28  H   UNL     1      33.243 -18.403 -24.314  0.00  0.00    -0.084 HD
ENDBRANCH  24  25
ENDBRANCH  21  24
ENDBRANCH   8  18
TORSDOF 3
ENDMDL
MODEL 9
REMARK VINA RESULT:      -8.7      4.852     10.064
REMARK  Name = 9931954
REMARK  3 active torsions:
REMARK  status: ('A' for Active; 'I' for Inactive)
REMARK    1  A    between atoms: C_8  and  C_18
REMARK    2  A    between atoms: C_21  and  C_24
REMARK    3  A    between atoms: C_24  and  N_25
REMARK                            x       y       z     vdW  Elec       q    Type
REMARK                         _______ _______ _______ _____ _____    ______ ____
ROOT
ATOM      1  F   UNL     1      32.199 -15.596 -19.858  0.00  0.00    -0.204 F 
ATOM      2  O   UNL     1      34.675 -15.869 -24.143  0.00  0.00    -0.270 OA
ATOM      3  N   UNL     1      32.208 -11.148 -21.818  0.00  0.00    -0.353 N 
ATOM      4  N   UNL     1      33.990 -14.170 -25.490  0.00  0.00    -0.301 N 
ATOM      5  C   UNL     1      33.097 -11.766 -23.759  0.00  0.00    -0.003 A 
ATOM      6  C   UNL     1      32.992 -12.924 -22.928  0.00  0.00    +0.018 A 
ATOM      7  C   UNL     1      33.592 -11.749 -25.161  0.00  0.00    +0.049 C 
ATOM      8  C   UNL     1      32.618 -10.693 -23.039  0.00  0.00    +0.053 A 
ATOM      9  C   UNL     1      32.412 -12.506 -21.726  0.00  0.00    +0.059 A 
ATOM     10  C   UNL     1      33.326 -14.288 -23.083  0.00  0.00    +0.057 C 
ATOM     11  C   UNL     1      33.193 -13.022 -25.894  0.00  0.00    +0.094 C 
ATOM     12  C   UNL     1      34.033 -14.825 -24.273  0.00  0.00    +0.246 C 
ATOM     13  C   UNL     1      32.129 -13.379 -20.671  0.00  0.00    +0.047 C 
ATOM     14  C   UNL     1      33.045 -15.173 -22.022  0.00  0.00    +0.034 C 
ATOM     15  C   UNL     1      32.453 -14.724 -20.844  0.00  0.00    +0.142 C 
ATOM     16  H   UNL     1      31.823 -10.587 -21.107  0.00  0.00    +0.166 HD
ATOM     17  H   UNL     1      34.586 -14.534 -26.183  0.00  0.00    +0.150 HD
ENDROOT
BRANCH   8  18
ATOM     18  C   UNL     1      32.499  -9.297 -23.395  0.00  0.00    +0.015 C 
ATOM     19  C   UNL     1      31.238  -8.714 -23.504  0.00  0.00    +0.001 C 
ATOM     20  C   UNL     1      33.645  -8.538 -23.628  0.00  0.00    +0.001 C 
ATOM     21  C   UNL     1      32.269  -6.606 -24.081  0.00  0.00    -0.044 C 
ATOM     22  C   UNL     1      31.123  -7.367 -23.848  0.00  0.00    -0.006 C 
ATOM     23  C   UNL     1      33.529  -7.191 -23.971  0.00  0.00    -0.006 C 
BRANCH  21  24
ATOM     24  C   UNL     1      32.145  -5.166 -24.448  0.00  0.00    -0.054 C 
BRANCH  24  25
ATOM     25  N   UNL     1      30.913  -4.584 -23.977  0.00  0.00    +0.385 N 
ATOM     26  C   UNL     1      31.146  -3.304 -23.310  0.00  0.00    -0.105 C 
ATOM     27  H   UNL     1      30.474  -5.226 -23.318  0.00  0.00    -0.084 HD
ATOM     28  H   UNL     1      30.309  -4.420 -24.782  0.00  0.00    -0.084 HD
ENDBRANCH  24  25
ENDBRANCH  21  24
ENDBRANCH   8  18
TORSDOF 3
ENDMDL
