MODEL 1
REMARK VINA RESULT:      -9.6      0.000      0.000
REMARK  Name = 11188409
REMARK  2 active torsions:
REMARK  status: ('A' for Active; 'I' for Inactive)
REMARK    1  A    between atoms: C_12  and  N_20
REMARK    2  A    between atoms: C_19  and  O_29
REMARK                            x       y       z     vdW  Elec       q    Type
REMARK                         _______ _______ _______ _____ _____    ______ ____
ROOT
ATOM      1  C   UNL     1      32.580  -9.521 -23.457  0.00  0.00    +0.004 C 
ATOM      2  C   UNL     1      32.579 -10.361 -22.149  0.00  0.00    +0.005 C 
ATOM      3  C   UNL     1      32.343 -11.832 -22.504  0.00  0.00    +0.002 C 
ATOM      4  C   UNL     1      33.432 -12.437 -23.438  0.00  0.00    +0.017 C 
ATOM      5  C   UNL     1      32.874  -7.996 -23.163  0.00  0.00    +0.015 C 
ATOM      6  C   UNL     1      33.465 -10.143 -24.568  0.00  0.00    +0.000 C 
ATOM      7  C   UNL     1      33.274 -11.660 -24.762  0.00  0.00    +0.002 C 
ATOM      8  C   UNL     1      31.496  -9.840 -21.193  0.00  0.00    +0.025 C 
ATOM      9  C   UNL     1      32.178 -12.845 -21.385  0.00  0.00    +0.002 C 
ATOM     10  C   UNL     1      32.061  -7.509 -21.956  0.00  0.00    -0.047 C 
ATOM     11  C   UNL     1      32.467  -7.170 -24.420  0.00  0.00    +0.006 C 
ATOM     12  C   UNL     1      33.008 -13.914 -23.348  0.00  0.00    +0.074 C 
ATOM     13  C   UNL     1      31.446  -8.348 -21.103  0.00  0.00    -0.035 C 
ATOM     14  C   UNL     1      34.870 -12.307 -22.876  0.00  0.00    +0.002 C 
ATOM     15  C   UNL     1      34.372  -7.760 -22.858  0.00  0.00    +0.004 C 
ATOM     16  C   UNL     1      32.349 -14.104 -22.181  0.00  0.00    +0.020 C 
ATOM     17  C   UNL     1      31.959  -6.015 -21.750  0.00  0.00    +0.051 C 
ATOM     18  C   UNL     1      32.434  -5.659 -24.196  0.00  0.00    +0.030 C 
ATOM     19  C   UNL     1      31.530  -5.294 -23.024  0.00  0.00    +0.115 C 
ENDROOT
BRANCH  12  20
ATOM     20  N   UNL     1      33.304 -14.921 -24.294  0.00  0.00    -0.288 N 
ATOM     21  N   UNL     1      33.385 -15.970 -26.273  0.00  0.00    -0.251 NA
ATOM     22  C   UNL     1      33.962 -16.116 -24.073  0.00  0.00    +0.063 C 
ATOM     23  C   UNL     1      32.984 -14.893 -25.635  0.00  0.00    +0.220 C 
ATOM     24  C   UNL     1      33.997 -16.744 -25.314  0.00  0.00    +0.073 C 
ATOM     25  C   UNL     1      34.509 -16.673 -22.916  0.00  0.00    +0.015 C 
ATOM     26  C   UNL     1      34.612 -18.004 -25.428  0.00  0.00    +0.073 C 
ATOM     27  C   UNL     1      35.116 -17.926 -23.047  0.00  0.00    -0.003 C 
ATOM     28  C   UNL     1      35.167 -18.581 -24.279  0.00  0.00    -0.020 C 
ENDBRANCH  12  20
BRANCH  19  29
ATOM     29  O   UNL     1      31.600  -3.887 -22.822  0.00  0.00    -0.384 OA
ATOM     30  H   UNL     1      31.294  -3.672 -21.927  0.00  0.00    +0.210 HD
ENDBRANCH  19  29
TORSDOF 2
ENDMDL
MODEL 2
REMARK VINA RESULT:      -9.6      4.135      7.430
REMARK  Name = 11188409
REMARK  2 active torsions:
REMARK  status: ('A' for Active; 'I' for Inactive)
REMARK    1  A    between atoms: C_12  and  N_20
REMARK    2  A    between atoms: C_19  and  O_29
REMARK                            x       y       z     vdW  Elec       q    Type
REMARK                         _______ _______ _______ _____ _____    ______ ____
ROOT
ATOM      1  C   UNL     1      34.466 -15.665 -22.870  0.00  0.00    +0.004 C 
ATOM      2  C   UNL     1      34.046 -16.937 -23.657  0.00  0.00    +0.005 C 
ATOM      3  C   UNL     1      34.805 -18.142 -23.093  0.00  0.00    +0.002 C 
ATOM      4  C   UNL     1      34.519 -18.419 -21.588  0.00  0.00    +0.017 C 
ATOM      5  C   UNL     1      33.675 -14.390 -23.368  0.00  0.00    +0.015 C 
ATOM      6  C   UNL     1      34.440 -15.875 -21.333  0.00  0.00    +0.000 C 
ATOM      7  C   UNL     1      35.095 -17.188 -20.857  0.00  0.00    +0.002 C 
ATOM      8  C   UNL     1      34.340 -16.747 -25.153  0.00  0.00    +0.025 C 
ATOM      9  C   UNL     1      34.661 -19.492 -23.776  0.00  0.00    +0.002 C 
ATOM     10  C   UNL     1      33.629 -14.345 -24.902  0.00  0.00    -0.047 C 
ATOM     11  C   UNL     1      34.411 -13.122 -22.842  0.00  0.00    +0.006 C 
ATOM     12  C   UNL     1      35.217 -19.786 -21.476  0.00  0.00    +0.074 C 
ATOM     13  C   UNL     1      33.943 -15.402 -25.672  0.00  0.00    -0.035 C 
ATOM     14  C   UNL     1      33.015 -18.611 -21.271  0.00  0.00    +0.002 C 
ATOM     15  C   UNL     1      32.219 -14.391 -22.845  0.00  0.00    +0.004 C 
ATOM     16  C   UNL     1      35.242 -20.361 -22.701  0.00  0.00    +0.020 C 
ATOM     17  C   UNL     1      33.218 -13.040 -25.542  0.00  0.00    +0.051 C 
ATOM     18  C   UNL     1      33.930 -11.812 -23.463  0.00  0.00    +0.030 C 
ATOM     19  C   UNL     1      34.009 -11.860 -24.984  0.00  0.00    +0.115 C 
ENDROOT
BRANCH  12  20
ATOM     20  N   UNL     1      35.701 -20.374 -20.286  0.00  0.00    -0.288 N 
ATOM     21  N   UNL     1      37.125 -20.864 -18.626  0.00  0.00    -0.251 NA
ATOM     22  C   UNL     1      35.031 -21.240 -19.442  0.00  0.00    +0.063 C 
ATOM     23  C   UNL     1      36.953 -20.188 -19.741  0.00  0.00    +0.220 C 
ATOM     24  C   UNL     1      35.936 -21.527 -18.425  0.00  0.00    +0.073 C 
ATOM     25  C   UNL     1      33.742 -21.775 -19.495  0.00  0.00    +0.015 C 
ATOM     26  C   UNL     1      35.550 -22.396 -17.389  0.00  0.00    +0.073 C 
ATOM     27  C   UNL     1      33.376 -22.637 -18.457  0.00  0.00    -0.003 C 
ATOM     28  C   UNL     1      34.262 -22.943 -17.422  0.00  0.00    -0.020 C 
ENDBRANCH  12  20
BRANCH  19  29
ATOM     29  O   UNL     1      33.480 -10.644 -25.502  0.00  0.00    -0.384 OA
ATOM     30  H   UNL     1      32.535 -10.756 -25.690  0.00  0.00    +0.210 HD
ENDBRANCH  19  29
TORSDOF 2
ENDMDL
MODEL 3
REMARK VINA RESULT:      -9.1      2.764      4.864
REMARK  Name = 11188409
REMARK  2 active torsions:
REMARK  status: ('A' for Active; 'I' for Inactive)
REMARK    1  A    between atoms: C_12  and  N_20
REMARK    2  A    between atoms: C_19  and  O_29
REMARK                            x       y       z     vdW  Elec       q    Type
REMARK                         _______ _______ _______ _____ _____    ______ ____
ROOT
ATOM      1  C   UNL     1      33.235 -12.930 -21.371  0.00  0.00    +0.004 C 
ATOM      2  C   UNL     1      33.124 -13.589 -22.774  0.00  0.00    +0.005 C 
ATOM      3  C   UNL     1      34.059 -14.800 -22.829  0.00  0.00    +0.002 C 
ATOM      4  C   UNL     1      33.728 -15.900 -21.778  0.00  0.00    +0.017 C 
ATOM      5  C   UNL     1      32.251 -11.701 -21.230  0.00  0.00    +0.015 C 
ATOM      6  C   UNL     1      33.143 -13.961 -20.216  0.00  0.00    +0.000 C 
ATOM      7  C   UNL     1      34.003 -15.225 -20.418  0.00  0.00    +0.002 C 
ATOM      8  C   UNL     1      33.479 -12.564 -23.863  0.00  0.00    +0.025 C 
ATOM      9  C   UNL     1      34.225 -15.547 -24.141  0.00  0.00    +0.002 C 
ATOM     10  C   UNL     1      32.304 -10.817 -22.484  0.00  0.00    -0.047 C 
ATOM     11  C   UNL     1      32.691 -10.862 -19.994  0.00  0.00    +0.006 C 
ATOM     12  C   UNL     1      34.666 -17.001 -22.304  0.00  0.00    +0.074 C 
ATOM     13  C   UNL     1      32.868 -11.218 -23.637  0.00  0.00    -0.035 C 
ATOM     14  C   UNL     1      32.270 -16.418 -21.865  0.00  0.00    +0.002 C 
ATOM     15  C   UNL     1      30.788 -12.170 -21.037  0.00  0.00    +0.004 C 
ATOM     16  C   UNL     1      34.887 -16.789 -23.622  0.00  0.00    +0.020 C 
ATOM     17  C   UNL     1      31.695  -9.437 -22.381  0.00  0.00    +0.051 C 
ATOM     18  C   UNL     1      32.010  -9.498 -19.884  0.00  0.00    +0.030 C 
ATOM     19  C   UNL     1      32.203  -8.682 -21.157  0.00  0.00    +0.115 C 
ENDROOT
BRANCH  12  20
ATOM     20  N   UNL     1      35.170 -18.088 -21.554  0.00  0.00    -0.288 N 
ATOM     21  N   UNL     1      36.667 -19.408 -20.535  0.00  0.00    -0.251 NA
ATOM     22  C   UNL     1      34.451 -19.124 -20.987  0.00  0.00    +0.063 C 
ATOM     23  C   UNL     1      36.494 -18.316 -21.247  0.00  0.00    +0.220 C 
ATOM     24  C   UNL     1      35.404 -19.925 -20.364  0.00  0.00    +0.073 C 
ATOM     25  C   UNL     1      33.085 -19.408 -20.976  0.00  0.00    +0.015 C 
ATOM     26  C   UNL     1      34.986 -21.082 -19.683  0.00  0.00    +0.073 C 
ATOM     27  C   UNL     1      32.687 -20.562 -20.294  0.00  0.00    -0.003 C 
ATOM     28  C   UNL     1      33.619 -21.386 -19.659  0.00  0.00    -0.020 C 
ENDBRANCH  12  20
BRANCH  19  29
ATOM     29  O   UNL     1      31.487  -7.459 -21.021  0.00  0.00    -0.384 OA
ATOM     30  H   UNL     1      31.883  -6.786 -21.597  0.00  0.00    +0.210 HD
ENDBRANCH  19  29
TORSDOF 2
ENDMDL
MODEL 4
REMARK VINA RESULT:      -8.8      3.838      8.584
REMARK  Name = 11188409
REMARK  2 active torsions:
REMARK  status: ('A' for Active; 'I' for Inactive)
REMARK    1  A    between atoms: C_12  and  N_20
REMARK    2  A    between atoms: C_19  and  O_29
REMARK                            x       y       z     vdW  Elec       q    Type
REMARK                         _______ _______ _______ _____ _____    ______ ____
ROOT
ATOM      1  C   UNL     1      33.446 -13.198 -22.444  0.00  0.00    +0.004 C 
ATOM      2  C   UNL     1      32.354 -13.143 -21.339  0.00  0.00    +0.005 C 
ATOM      3  C   UNL     1      32.320 -11.732 -20.745  0.00  0.00    +0.002 C 
ATOM      4  C   UNL     1      31.981 -10.620 -21.780  0.00  0.00    +0.017 C 
ATOM      5  C   UNL     1      33.495 -14.618 -23.138  0.00  0.00    +0.015 C 
ATOM      6  C   UNL     1      33.360 -12.005 -23.431  0.00  0.00    +0.000 C 
ATOM      7  C   UNL     1      33.176 -10.630 -22.756  0.00  0.00    +0.002 C 
ATOM      8  C   UNL     1      32.650 -14.194 -20.259  0.00  0.00    +0.025 C 
ATOM      9  C   UNL     1      31.415 -11.452 -19.557  0.00  0.00    +0.002 C 
ATOM     10  C   UNL     1      33.427 -15.737 -22.089  0.00  0.00    -0.047 C 
ATOM     11  C   UNL     1      34.836 -14.731 -23.922  0.00  0.00    +0.006 C 
ATOM     12  C   UNL     1      31.789  -9.451 -20.798  0.00  0.00    +0.074 C 
ATOM     13  C   UNL     1      33.063 -15.520 -20.813  0.00  0.00    -0.035 C 
ATOM     14  C   UNL     1      30.644 -10.856 -22.525  0.00  0.00    +0.002 C 
ATOM     15  C   UNL     1      32.311 -14.807 -24.117  0.00  0.00    +0.004 C 
ATOM     16  C   UNL     1      31.443  -9.953 -19.590  0.00  0.00    +0.020 C 
ATOM     17  C   UNL     1      33.802 -17.129 -22.542  0.00  0.00    +0.051 C 
ATOM     18  C   UNL     1      35.156 -16.140 -24.420  0.00  0.00    +0.030 C 
ATOM     19  C   UNL     1      35.140 -17.147 -23.275  0.00  0.00    +0.115 C 
ENDROOT
BRANCH  12  20
ATOM     20  N   UNL     1      31.899  -8.078 -21.112  0.00  0.00    -0.288 N 
ATOM     21  N   UNL     1      32.347  -5.900 -20.834  0.00  0.00    -0.251 NA
ATOM     22  C   UNL     1      31.577  -7.460 -22.306  0.00  0.00    +0.063 C 
ATOM     23  C   UNL     1      32.356  -7.087 -20.270  0.00  0.00    +0.220 C 
ATOM     24  C   UNL     1      31.864  -6.113 -22.104  0.00  0.00    +0.073 C 
ATOM     25  C   UNL     1      31.072  -7.965 -23.505  0.00  0.00    +0.015 C 
ATOM     26  C   UNL     1      31.641  -5.201 -23.151  0.00  0.00    +0.073 C 
ATOM     27  C   UNL     1      30.856  -7.044 -24.535  0.00  0.00    -0.003 C 
ATOM     28  C   UNL     1      31.135  -5.686 -24.363  0.00  0.00    -0.020 C 
ENDBRANCH  12  20
BRANCH  19  29
ATOM     29  O   UNL     1      35.371 -18.445 -23.813  0.00  0.00    -0.384 OA
ATOM     30  H   UNL     1      35.564 -18.373 -24.761  0.00  0.00    +0.210 HD
ENDBRANCH  19  29
TORSDOF 2
ENDMDL
MODEL 5
REMARK VINA RESULT:      -8.3      4.003      9.002
REMARK  Name = 11188409
REMARK  2 active torsions:
REMARK  status: ('A' for Active; 'I' for Inactive)
REMARK    1  A    between atoms: C_12  and  N_20
REMARK    2  A    between atoms: C_19  and  O_29
REMARK                            x       y       z     vdW  Elec       q    Type
REMARK                         _______ _______ _______ _____ _____    ______ ____
ROOT
ATOM      1  C   UNL     1      34.334 -16.305 -22.088  0.00  0.00    +0.004 C 
ATOM      2  C   UNL     1      32.871 -15.785 -22.005  0.00  0.00    +0.005 C 
ATOM      3  C   UNL     1      32.885 -14.255 -22.068  0.00  0.00    +0.002 C 
ATOM      4  C   UNL     1      33.500 -13.683 -23.379  0.00  0.00    +0.017 C 
ATOM      5  C   UNL     1      34.387 -17.884 -22.083  0.00  0.00    +0.015 C 
ATOM      6  C   UNL     1      35.142 -15.640 -23.233  0.00  0.00    +0.000 C 
ATOM      7  C   UNL     1      34.983 -14.108 -23.321  0.00  0.00    +0.002 C 
ATOM      8  C   UNL     1      32.213 -16.281 -20.709  0.00  0.00    +0.025 C 
ATOM      9  C   UNL     1      31.581 -13.496 -21.883  0.00  0.00    +0.002 C 
ATOM     10  C   UNL     1      33.445 -18.455 -21.014  0.00  0.00    -0.047 C 
ATOM     11  C   UNL     1      35.847 -18.322 -21.764  0.00  0.00    +0.006 C 
ATOM     12  C   UNL     1      33.106 -12.208 -23.186  0.00  0.00    +0.074 C 
ATOM     13  C   UNL     1      32.497 -17.718 -20.408  0.00  0.00    -0.035 C 
ATOM     14  C   UNL     1      32.813 -14.208 -24.664  0.00  0.00    +0.002 C 
ATOM     15  C   UNL     1      33.965 -18.466 -23.453  0.00  0.00    +0.004 C 
ATOM     16  C   UNL     1      32.020 -12.152 -22.381  0.00  0.00    +0.020 C 
ATOM     17  C   UNL     1      33.623 -19.909 -20.644  0.00  0.00    +0.051 C 
ATOM     18  C   UNL     1      36.004 -19.810 -21.455  0.00  0.00    +0.030 C 
ATOM     19  C   UNL     1      35.077 -20.239 -20.323  0.00  0.00    +0.115 C 
ENDROOT
BRANCH  12  20
ATOM     20  N   UNL     1      33.735 -11.096 -23.791  0.00  0.00    -0.288 N 
ATOM     21  N   UNL     1      35.042  -9.948 -25.203  0.00  0.00    -0.251 NA
ATOM     22  C   UNL     1      33.598  -9.764 -23.449  0.00  0.00    +0.063 C 
ATOM     23  C   UNL     1      34.614 -11.140 -24.851  0.00  0.00    +0.220 C 
ATOM     24  C   UNL     1      34.418  -9.077 -24.340  0.00  0.00    +0.073 C 
ATOM     25  C   UNL     1      32.843  -9.133 -22.460  0.00  0.00    +0.015 C 
ATOM     26  C   UNL     1      34.502  -7.676 -24.253  0.00  0.00    +0.073 C 
ATOM     27  C   UNL     1      32.938  -7.739 -22.388  0.00  0.00    -0.003 C 
ATOM     28  C   UNL     1      33.752  -7.023 -23.268  0.00  0.00    -0.020 C 
ENDBRANCH  12  20
BRANCH  19  29
ATOM     29  O   UNL     1      35.217 -21.644 -20.133  0.00  0.00    -0.384 OA
ATOM     30  H   UNL     1      35.981 -21.819 -19.561  0.00  0.00    +0.210 HD
ENDBRANCH  19  29
TORSDOF 2
ENDMDL
MODEL 6
REMARK VINA RESULT:      -8.2      4.380      8.619
REMARK  Name = 11188409
REMARK  2 active torsions:
REMARK  status: ('A' for Active; 'I' for Inactive)
REMARK    1  A    between atoms: C_12  and  N_20
REMARK    2  A    between atoms: C_19  and  O_29
REMARK                            x       y       z     vdW  Elec       q    Type
REMARK                         _______ _______ _______ _____ _____    ______ ____
ROOT
ATOM      1  C   UNL     1      32.227  -9.815 -22.339  0.00  0.00    +0.004 C 
ATOM      2  C   UNL     1      31.719  -8.698 -21.385  0.00  0.00    +0.005 C 
ATOM      3  C   UNL     1      32.132  -7.337 -21.952  0.00  0.00    +0.002 C 
ATOM      4  C   UNL     1      31.545  -7.037 -23.362  0.00  0.00    +0.017 C 
ATOM      5  C   UNL     1      31.785 -11.248 -21.839  0.00  0.00    +0.015 C 
ATOM      6  C   UNL     1      31.899  -9.527 -23.828  0.00  0.00    +0.000 C 
ATOM      7  C   UNL     1      32.206  -8.085 -24.281  0.00  0.00    +0.002 C 
ATOM      8  C   UNL     1      32.294  -8.912 -19.977  0.00  0.00    +0.025 C 
ATOM      9  C   UNL     1      31.858  -6.084 -21.137  0.00  0.00    +0.002 C 
ATOM     10  C   UNL     1      32.011 -11.388 -20.327  0.00  0.00    -0.047 C 
ATOM     11  C   UNL     1      32.643 -12.312 -22.586  0.00  0.00    +0.006 C 
ATOM     12  C   UNL     1      31.946  -5.554 -23.460  0.00  0.00    +0.074 C 
ATOM     13  C   UNL     1      32.251 -10.336 -19.524  0.00  0.00    -0.035 C 
ATOM     14  C   UNL     1      30.000  -7.129 -23.421  0.00  0.00    +0.002 C 
ATOM     15  C   UNL     1      30.286 -11.507 -22.124  0.00  0.00    +0.004 C 
ATOM     16  C   UNL     1      32.074  -5.057 -22.208  0.00  0.00    +0.020 C 
ATOM     17  C   UNL     1      31.967 -12.784 -19.750  0.00  0.00    +0.051 C 
ATOM     18  C   UNL     1      32.528 -13.725 -22.016  0.00  0.00    +0.030 C 
ATOM     19  C   UNL     1      32.856 -13.749 -20.528  0.00  0.00    +0.115 C 
ENDROOT
BRANCH  12  20
ATOM     20  N   UNL     1      32.101  -4.815 -24.654  0.00  0.00    -0.288 N 
ATOM     21  N   UNL     1      31.643  -3.323 -26.263  0.00  0.00    -0.251 NA
ATOM     22  C   UNL     1      33.124  -4.915 -25.580  0.00  0.00    +0.063 C 
ATOM     23  C   UNL     1      31.245  -3.841 -25.122  0.00  0.00    +0.220 C 
ATOM     24  C   UNL     1      32.814  -3.981 -26.563  0.00  0.00    +0.073 C 
ATOM     25  C   UNL     1      34.257  -5.729 -25.625  0.00  0.00    +0.015 C 
ATOM     26  C   UNL     1      33.675  -3.835 -27.665  0.00  0.00    +0.073 C 
ATOM     27  C   UNL     1      35.102  -5.570 -26.727  0.00  0.00    -0.003 C 
ATOM     28  C   UNL     1      34.818  -4.641 -27.730  0.00  0.00    -0.020 C 
ENDBRANCH  12  20
BRANCH  19  29
ATOM     29  O   UNL     1      32.659 -15.074 -20.044  0.00  0.00    -0.384 OA
ATOM     30  H   UNL     1      31.862 -15.103 -19.493  0.00  0.00    +0.210 HD
ENDBRANCH  19  29
TORSDOF 2
ENDMDL
MODEL 7
REMARK VINA RESULT:      -7.9      1.570      2.947
REMARK  Name = 11188409
REMARK  2 active torsions:
REMARK  status: ('A' for Active; 'I' for Inactive)
REMARK    1  A    between atoms: C_12  and  N_20
REMARK    2  A    between atoms: C_19  and  O_29
REMARK                            x       y       z     vdW  Elec       q    Type
REMARK                         _______ _______ _______ _____ _____    ______ ____
ROOT
ATOM      1  C   UNL     1      32.420  -9.403 -22.432  0.00  0.00    +0.004 C 
ATOM      2  C   UNL     1      32.975 -10.018 -23.747  0.00  0.00    +0.005 C 
ATOM      3  C   UNL     1      33.586 -11.387 -23.436  0.00  0.00    +0.002 C 
ATOM      4  C   UNL     1      32.572 -12.409 -22.845  0.00  0.00    +0.017 C 
ATOM      5  C   UNL     1      31.725  -8.008 -22.694  0.00  0.00    +0.015 C 
ATOM      6  C   UNL     1      31.560 -10.405 -21.619  0.00  0.00    +0.000 C 
ATOM      7  C   UNL     1      32.179 -11.811 -21.478  0.00  0.00    +0.002 C 
ATOM      8  C   UNL     1      34.016  -9.073 -24.367  0.00  0.00    +0.025 C 
ATOM      9  C   UNL     1      34.307 -12.142 -24.539  0.00  0.00    +0.002 C 
ATOM     10  C   UNL     1      32.583  -7.141 -23.627  0.00  0.00    -0.047 C 
ATOM     11  C   UNL     1      31.562  -7.280 -21.327  0.00  0.00    +0.006 C 
ATOM     12  C   UNL     1      33.455 -13.668 -22.918  0.00  0.00    +0.074 C 
ATOM     13  C   UNL     1      33.605  -7.636 -24.348  0.00  0.00    -0.035 C 
ATOM     14  C   UNL     1      31.328 -12.634 -23.740  0.00  0.00    +0.002 C 
ATOM     15  C   UNL     1      30.335  -8.185 -23.350  0.00  0.00    +0.004 C 
ATOM     16  C   UNL     1      34.379 -13.492 -23.891  0.00  0.00    +0.020 C 
ATOM     17  C   UNL     1      32.244  -5.671 -23.707  0.00  0.00    +0.051 C 
ATOM     18  C   UNL     1      31.157  -5.811 -21.441  0.00  0.00    +0.030 C 
ATOM     19  C   UNL     1      32.130  -5.038 -22.324  0.00  0.00    +0.115 C 
ENDROOT
BRANCH  12  20
ATOM     20  N   UNL     1      33.297 -14.837 -22.140  0.00  0.00    -0.288 N 
ATOM     21  N   UNL     1      32.449 -16.220 -20.594  0.00  0.00    -0.251 NA
ATOM     22  C   UNL     1      34.038 -16.002 -22.213  0.00  0.00    +0.063 C 
ATOM     23  C   UNL     1      32.359 -15.031 -21.149  0.00  0.00    +0.220 C 
ATOM     24  C   UNL     1      33.490 -16.839 -21.245  0.00  0.00    +0.073 C 
ATOM     25  C   UNL     1      35.110 -16.370 -23.028  0.00  0.00    +0.015 C 
ATOM     26  C   UNL     1      34.032 -18.124 -21.065  0.00  0.00    +0.073 C 
ATOM     27  C   UNL     1      35.635 -17.652 -22.835  0.00  0.00    -0.003 C 
ATOM     28  C   UNL     1      35.107 -18.514 -21.872  0.00  0.00    -0.020 C 
ENDBRANCH  12  20
BRANCH  19  29
ATOM     29  O   UNL     1      31.659  -3.700 -22.449  0.00  0.00    -0.384 OA
ATOM     30  H   UNL     1      32.280  -3.096 -22.013  0.00  0.00    +0.210 HD
ENDBRANCH  19  29
TORSDOF 2
ENDMDL
MODEL 8
REMARK VINA RESULT:      -7.8      3.863      8.853
REMARK  Name = 11188409
REMARK  2 active torsions:
REMARK  status: ('A' for Active; 'I' for Inactive)
REMARK    1  A    between atoms: C_12  and  N_20
REMARK    2  A    between atoms: C_19  and  O_29
REMARK                            x       y       z     vdW  Elec       q    Type
REMARK                         _______ _______ _______ _____ _____    ______ ____
ROOT
ATOM      1  C   UNL     1      34.193 -15.368 -22.217  0.00  0.00    +0.004 C 
ATOM      2  C   UNL     1      32.724 -14.943 -21.941  0.00  0.00    +0.005 C 
ATOM      3  C   UNL     1      32.656 -13.415 -21.866  0.00  0.00    +0.002 C 
ATOM      4  C   UNL     1      33.103 -12.699 -23.174  0.00  0.00    +0.017 C 
ATOM      5  C   UNL     1      34.323 -16.937 -22.360  0.00  0.00    +0.015 C 
ATOM      6  C   UNL     1      34.844 -14.563 -23.371  0.00  0.00    +0.000 C 
ATOM      7  C   UNL     1      34.603 -13.041 -23.303  0.00  0.00    +0.002 C 
ATOM      8  C   UNL     1      32.229 -15.585 -20.637  0.00  0.00    +0.025 C 
ATOM      9  C   UNL     1      31.344 -12.751 -21.484  0.00  0.00    +0.002 C 
ATOM     10  C   UNL     1      33.526 -17.651 -21.260  0.00  0.00    -0.047 C 
ATOM     11  C   UNL     1      35.828 -17.316 -22.229  0.00  0.00    +0.006 C 
ATOM     12  C   UNL     1      32.660 -11.271 -22.810  0.00  0.00    +0.074 C 
ATOM     13  C   UNL     1      32.612 -17.024 -20.498  0.00  0.00    -0.035 C 
ATOM     14  C   UNL     1      32.312 -13.150 -24.427  0.00  0.00    +0.002 C 
ATOM     15  C   UNL     1      33.789 -17.423 -23.729  0.00  0.00    +0.004 C 
ATOM     16  C   UNL     1      31.662 -11.346 -21.899  0.00  0.00    +0.020 C 
ATOM     17  C   UNL     1      33.812 -19.118 -21.042  0.00  0.00    +0.051 C 
ATOM     18  C   UNL     1      36.088 -18.814 -22.073  0.00  0.00    +0.030 C 
ATOM     19  C   UNL     1      35.306 -19.390 -20.899  0.00  0.00    +0.115 C 
ENDROOT
BRANCH  12  20
ATOM     20  N   UNL     1      33.168 -10.077 -23.371  0.00  0.00    -0.288 N 
ATOM     21  N   UNL     1      34.612  -8.690 -24.377  0.00  0.00    -0.251 NA
ATOM     22  C   UNL     1      32.530  -8.854 -23.465  0.00  0.00    +0.063 C 
ATOM     23  C   UNL     1      34.414  -9.913 -23.937  0.00  0.00    +0.220 C 
ATOM     24  C   UNL     1      33.447  -8.015 -24.091  0.00  0.00    +0.073 C 
ATOM     25  C   UNL     1      31.261  -8.436 -23.060  0.00  0.00    +0.015 C 
ATOM     26  C   UNL     1      33.095  -6.677 -24.338  0.00  0.00    +0.073 C 
ATOM     27  C   UNL     1      30.928  -7.102 -23.313  0.00  0.00    -0.003 C 
ATOM     28  C   UNL     1      31.827  -6.237 -23.940  0.00  0.00    -0.020 C 
ENDBRANCH  12  20
BRANCH  19  29
ATOM     29  O   UNL     1      35.533 -20.795 -20.853  0.00  0.00    -0.384 OA
ATOM     30  H   UNL     1      35.237 -21.199 -21.684  0.00  0.00    +0.210 HD
ENDBRANCH  19  29
TORSDOF 2
ENDMDL
MODEL 9
REMARK VINA RESULT:      -7.6      8.533     13.581
REMARK  Name = 11188409
REMARK  2 active torsions:
REMARK  status: ('A' for Active; 'I' for Inactive)
REMARK    1  A    between atoms: C_12  and  N_20
REMARK    2  A    between atoms: C_19  and  O_29
REMARK                            x       y       z     vdW  Elec       q    Type
REMARK                         _______ _______ _______ _____ _____    ______ ____
ROOT
ATOM      1  C   UNL     1      35.985 -22.244 -16.175  0.00  0.00    +0.004 C 
ATOM      2  C   UNL     1      34.967 -22.892 -17.154  0.00  0.00    +0.005 C 
ATOM      3  C   UNL     1      34.557 -21.854 -18.202  0.00  0.00    +0.002 C 
ATOM      4  C   UNL     1      35.742 -21.322 -19.060  0.00  0.00    +0.017 C 
ATOM      5  C   UNL     1      36.492 -23.282 -15.096  0.00  0.00    +0.015 C 
ATOM      6  C   UNL     1      37.117 -21.477 -16.908  0.00  0.00    +0.000 C 
ATOM      7  C   UNL     1      36.631 -20.563 -18.052  0.00  0.00    +0.002 C 
ATOM      8  C   UNL     1      33.748 -23.407 -16.375  0.00  0.00    +0.025 C 
ATOM      9  C   UNL     1      33.472 -22.207 -19.206  0.00  0.00    +0.002 C 
ATOM     10  C   UNL     1      35.319 -24.096 -14.533  0.00  0.00    -0.047 C 
ATOM     11  C   UNL     1      37.170 -22.491 -13.938  0.00  0.00    +0.006 C 
ATOM     12  C   UNL     1      34.926 -20.550 -20.112  0.00  0.00    +0.074 C 
ATOM     13  C   UNL     1      34.105 -24.123 -15.111  0.00  0.00    -0.035 C 
ATOM     14  C   UNL     1      36.534 -22.440 -19.781  0.00  0.00    +0.002 C 
ATOM     15  C   UNL     1      37.513 -24.273 -15.705  0.00  0.00    +0.004 C 
ATOM     16  C   UNL     1      33.690 -21.094 -20.186  0.00  0.00    +0.020 C 
ATOM     17  C   UNL     1      35.570 -24.881 -13.266  0.00  0.00    +0.051 C 
ATOM     18  C   UNL     1      37.467 -23.328 -12.695  0.00  0.00    +0.030 C 
ATOM     19  C   UNL     1      36.209 -24.020 -12.181  0.00  0.00    +0.115 C 
ENDROOT
BRANCH  12  20
ATOM     20  N   UNL     1      35.402 -19.485 -20.911  0.00  0.00    -0.288 N 
ATOM     21  N   UNL     1      36.791 -18.320 -22.228  0.00  0.00    -0.251 NA
ATOM     22  C   UNL     1      34.756 -18.298 -21.202  0.00  0.00    +0.063 C 
ATOM     23  C   UNL     1      36.619 -19.437 -21.556  0.00  0.00    +0.220 C 
ATOM     24  C   UNL     1      35.639 -17.597 -22.018  0.00  0.00    +0.073 C 
ATOM     25  C   UNL     1      33.506 -17.805 -20.824  0.00  0.00    +0.015 C 
ATOM     26  C   UNL     1      35.270 -16.327 -22.495  0.00  0.00    +0.073 C 
ATOM     27  C   UNL     1      33.156 -16.541 -21.306  0.00  0.00    -0.003 C 
ATOM     28  C   UNL     1      34.020 -15.813 -22.127  0.00  0.00    -0.020 C 
ENDBRANCH  12  20
BRANCH  19  29
ATOM     29  O   UNL     1      36.566 -24.838 -11.072  0.00  0.00    -0.384 OA
ATOM     30  H   UNL     1      35.892 -24.756 -10.379  0.00  0.00    +0.210 HD
ENDBRANCH  19  29
TORSDOF 2
ENDMDL
