MODEL 1
REMARK VINA RESULT:     -14.1      0.000      0.000
REMARK  Name = 67335295
REMARK  6 active torsions:
REMARK  status: ('A' for Active; 'I' for Inactive)
REMARK    1  A    between atoms: N_2  and  C_14
REMARK    2  A    between atoms: C_7  and  O_20
REMARK    3  A    between atoms: O_20  and  C_21
REMARK    4  A    between atoms: C_21  and  C_23
REMARK    5  A    between atoms: C_22  and  C_28
REMARK    6  A    between atoms: C_28  and  N_30
REMARK                            x       y       z     vdW  Elec       q    Type
REMARK                         _______ _______ _______ _____ _____    ______ ____
ROOT
ATOM      1  O   UNL     1      33.911 -24.297 -12.713  0.00  0.00    -0.270 OA
ATOM      2  N   UNL     1      34.964 -24.141 -14.823  0.00  0.00    -0.265 N 
ATOM      3  C   UNL     1      34.573 -23.754 -16.173  0.00  0.00    +0.124 C 
ATOM      4  C   UNL     1      33.134 -23.407 -15.990  0.00  0.00    +0.036 C 
ATOM      5  C   UNL     1      33.923 -24.053 -13.905  0.00  0.00    +0.249 C 
ATOM      6  C   UNL     1      32.755 -23.583 -14.659  0.00  0.00    +0.054 C 
ATOM      7  C   UNL     1      32.217 -22.966 -16.925  0.00  0.00    +0.137 C 
ATOM      8  C   UNL     1      31.473 -23.333 -14.209  0.00  0.00    +0.004 C 
ATOM      9  C   UNL     1      30.912 -22.706 -16.496  0.00  0.00    +0.037 C 
ATOM     10  C   UNL     1      30.543 -22.888 -15.149  0.00  0.00    +0.003 C 
ENDROOT
BRANCH   2  14
ATOM     11  O   UNL     1      37.017 -22.420 -15.311  0.00  0.00    -0.273 OA
ATOM     12  O   UNL     1      40.124 -25.816 -15.431  0.00  0.00    -0.275 OA
ATOM     13  N   UNL     1      38.533 -24.149 -15.385  0.00  0.00    -0.254 N 
ATOM     14  C   UNL     1      36.293 -24.569 -14.475  0.00  0.00    +0.153 C 
ATOM     15  C   UNL     1      36.546 -25.999 -14.927  0.00  0.00    +0.039 C 
ATOM     16  C   UNL     1      37.966 -26.396 -14.569  0.00  0.00    +0.088 C 
ATOM     17  C   UNL     1      37.276 -23.607 -15.115  0.00  0.00    +0.246 C 
ATOM     18  C   UNL     1      38.975 -25.453 -15.182  0.00  0.00    +0.228 C 
ATOM     19  H   UNL     1      39.193 -23.528 -15.768  0.00  0.00    +0.158 HD
ENDBRANCH   2  14
BRANCH   7  20
ATOM     20  O   UNL     1      32.562 -22.789 -18.226  0.00  0.00    -0.471 OA
BRANCH  20  21
ATOM     21  C   UNL     1      33.940 -22.955 -18.563  0.00  0.00    +0.232 C 
BRANCH  21  23
ATOM     22  C   UNL     1      35.253 -19.541 -20.807  0.00  0.00    -0.043 C 
ATOM     23  C   UNL     1      34.399 -21.763 -19.350  0.00  0.00    +0.021 C 
ATOM     24  C   UNL     1      36.190 -20.413 -20.250  0.00  0.00    -0.007 C 
ATOM     25  C   UNL     1      33.890 -19.780 -20.635  0.00  0.00    -0.007 C 
ATOM     26  C   UNL     1      35.763 -21.523 -19.521  0.00  0.00    -0.001 C 
ATOM     27  C   UNL     1      33.463 -20.892 -19.906  0.00  0.00    -0.001 C 
BRANCH  22  28
ATOM     28  C   UNL     1      35.710 -18.354 -21.585  0.00  0.00    -0.050 C 
BRANCH  28  30
ATOM     29  O   UNL     1      34.494 -17.479 -25.506  0.00  0.00    -0.358 OA
ATOM     30  N   UNL     1      34.869 -18.098 -22.753  0.00  0.00    +0.393 N 
ATOM     31  C   UNL     1      35.102 -16.744 -23.275  0.00  0.00    -0.044 C 
ATOM     32  C   UNL     1      35.119 -19.093 -23.805  0.00  0.00    -0.044 C 
ATOM     33  C   UNL     1      34.241 -18.797 -25.017  0.00  0.00    +0.119 C 
ATOM     34  C   UNL     1      34.223 -16.504 -24.499  0.00  0.00    +0.119 C 
ATOM     35  H   UNL     1      33.895 -18.171 -22.459  0.00  0.00    -0.079 HD
ENDBRANCH  28  30
ENDBRANCH  22  28
ENDBRANCH  21  23
ENDBRANCH  20  21
ENDBRANCH   7  20
TORSDOF 6
ENDMDL
MODEL 2
REMARK VINA RESULT:     -13.6      1.631      2.147
REMARK  Name = 67335295
REMARK  6 active torsions:
REMARK  status: ('A' for Active; 'I' for Inactive)
REMARK    1  A    between atoms: N_2  and  C_14
REMARK    2  A    between atoms: C_7  and  O_20
REMARK    3  A    between atoms: O_20  and  C_21
REMARK    4  A    between atoms: C_21  and  C_23
REMARK    5  A    between atoms: C_22  and  C_28
REMARK    6  A    between atoms: C_28  and  N_30
REMARK                            x       y       z     vdW  Elec       q    Type
REMARK                         _______ _______ _______ _____ _____    ______ ____
ROOT
ATOM      1  O   UNL     1      33.803 -24.512 -12.912  0.00  0.00    -0.270 OA
ATOM      2  N   UNL     1      34.789 -23.861 -14.958  0.00  0.00    -0.265 N 
ATOM      3  C   UNL     1      34.326 -23.316 -16.229  0.00  0.00    +0.124 C 
ATOM      4  C   UNL     1      32.857 -23.212 -16.003  0.00  0.00    +0.036 C 
ATOM      5  C   UNL     1      33.761 -24.075 -14.047  0.00  0.00    +0.249 C 
ATOM      6  C   UNL     1      32.526 -23.658 -14.722  0.00  0.00    +0.054 C 
ATOM      7  C   UNL     1      31.871 -22.757 -16.859  0.00  0.00    +0.137 C 
ATOM      8  C   UNL     1      31.230 -23.670 -14.248  0.00  0.00    +0.004 C 
ATOM      9  C   UNL     1      30.549 -22.760 -16.403  0.00  0.00    +0.037 C 
ATOM     10  C   UNL     1      30.231 -23.213 -15.108  0.00  0.00    +0.003 C 
ENDROOT
BRANCH   2  14
ATOM     11  O   UNL     1      35.778 -26.260 -15.783  0.00  0.00    -0.273 OA
ATOM     12  O   UNL     1      39.168 -26.181 -12.667  0.00  0.00    -0.275 OA
ATOM     13  N   UNL     1      37.443 -26.191 -14.196  0.00  0.00    -0.254 N 
ATOM     14  C   UNL     1      36.171 -24.147 -14.675  0.00  0.00    +0.153 C 
ATOM     15  C   UNL     1      36.527 -23.776 -13.243  0.00  0.00    +0.039 C 
ATOM     16  C   UNL     1      37.980 -24.126 -12.980  0.00  0.00    +0.088 C 
ATOM     17  C   UNL     1      36.403 -25.625 -14.934  0.00  0.00    +0.246 C 
ATOM     18  C   UNL     1      38.252 -25.588 -13.237  0.00  0.00    +0.228 C 
ATOM     19  H   UNL     1      37.629 -27.140 -14.379  0.00  0.00    +0.158 HD
ENDBRANCH   2  14
BRANCH   7  20
ATOM     20  O   UNL     1      32.168 -22.321 -18.110  0.00  0.00    -0.471 OA
BRANCH  20  21
ATOM     21  C   UNL     1      33.430 -22.710 -18.654  0.00  0.00    +0.232 C 
BRANCH  21  23
ATOM     22  C   UNL     1      34.960 -19.514 -21.075  0.00  0.00    -0.043 C 
ATOM     23  C   UNL     1      33.965 -21.591 -19.498  0.00  0.00    +0.021 C 
ATOM     24  C   UNL     1      33.582 -19.711 -20.967  0.00  0.00    -0.007 C 
ATOM     25  C   UNL     1      35.839 -20.356 -20.395  0.00  0.00    -0.007 C 
ATOM     26  C   UNL     1      33.085 -20.749 -20.179  0.00  0.00    -0.001 C 
ATOM     27  C   UNL     1      35.342 -21.394 -19.606  0.00  0.00    -0.001 C 
BRANCH  22  28
ATOM     28  C   UNL     1      35.490 -18.404 -21.918  0.00  0.00    -0.050 C 
BRANCH  28  30
ATOM     29  O   UNL     1      34.128 -14.435 -22.022  0.00  0.00    -0.358 OA
ATOM     30  N   UNL     1      34.606 -17.240 -21.923  0.00  0.00    +0.393 N 
ATOM     31  C   UNL     1      34.881 -16.372 -20.769  0.00  0.00    -0.044 C 
ATOM     32  C   UNL     1      34.755 -16.479 -23.172  0.00  0.00    -0.044 C 
ATOM     33  C   UNL     1      33.834 -15.262 -23.149  0.00  0.00    +0.119 C 
ATOM     34  C   UNL     1      33.956 -15.159 -20.803  0.00  0.00    +0.119 C 
ATOM     35  H   UNL     1      33.646 -17.575 -21.858  0.00  0.00    -0.079 HD
ENDBRANCH  28  30
ENDBRANCH  22  28
ENDBRANCH  21  23
ENDBRANCH  20  21
ENDBRANCH   7  20
TORSDOF 6
ENDMDL
MODEL 3
REMARK VINA RESULT:     -13.1      3.627     11.695
REMARK  Name = 67335295
REMARK  6 active torsions:
REMARK  status: ('A' for Active; 'I' for Inactive)
REMARK    1  A    between atoms: N_2  and  C_14
REMARK    2  A    between atoms: C_7  and  O_20
REMARK    3  A    between atoms: O_20  and  C_21
REMARK    4  A    between atoms: C_21  and  C_23
REMARK    5  A    between atoms: C_22  and  C_28
REMARK    6  A    between atoms: C_28  and  N_30
REMARK                            x       y       z     vdW  Elec       q    Type
REMARK                         _______ _______ _______ _____ _____    ______ ____
ROOT
ATOM      1  O   UNL     1      32.718 -14.181 -25.846  0.00  0.00    -0.270 OA
ATOM      2  N   UNL     1      32.962 -14.129 -23.496  0.00  0.00    -0.265 N 
ATOM      3  C   UNL     1      33.553 -14.986 -22.475  0.00  0.00    +0.124 C 
ATOM      4  C   UNL     1      34.080 -16.117 -23.290  0.00  0.00    +0.036 C 
ATOM      5  C   UNL     1      33.093 -14.639 -24.782  0.00  0.00    +0.249 C 
ATOM      6  C   UNL     1      33.809 -15.913 -24.644  0.00  0.00    +0.054 C 
ATOM      7  C   UNL     1      34.753 -17.252 -22.877  0.00  0.00    +0.137 C 
ATOM      8  C   UNL     1      34.188 -16.808 -25.624  0.00  0.00    +0.004 C 
ATOM      9  C   UNL     1      35.147 -18.175 -23.850  0.00  0.00    +0.037 C 
ATOM     10  C   UNL     1      34.867 -17.955 -25.212  0.00  0.00    +0.003 C 
ENDROOT
BRANCH   2  14
ATOM     11  O   UNL     1      34.073 -11.854 -24.498  0.00  0.00    -0.273 OA
ATOM     12  O   UNL     1      32.079  -9.209 -21.300  0.00  0.00    -0.275 OA
ATOM     13  N   UNL     1      33.075 -10.572 -22.868  0.00  0.00    -0.254 N 
ATOM     14  C   UNL     1      32.309 -12.880 -23.202  0.00  0.00    +0.153 C 
ATOM     15  C   UNL     1      31.915 -12.797 -21.736  0.00  0.00    +0.039 C 
ATOM     16  C   UNL     1      31.262 -11.454 -21.466  0.00  0.00    +0.088 C 
ATOM     17  C   UNL     1      33.258 -11.757 -23.581  0.00  0.00    +0.246 C 
ATOM     18  C   UNL     1      32.174 -10.310 -21.840  0.00  0.00    +0.228 C 
ATOM     19  H   UNL     1      33.660  -9.824 -23.127  0.00  0.00    +0.158 HD
ENDBRANCH   2  14
BRANCH   7  20
ATOM     20  O   UNL     1      35.026 -17.473 -21.566  0.00  0.00    -0.471 OA
BRANCH  20  21
ATOM     21  C   UNL     1      36.036 -18.436 -21.263  0.00  0.00    +0.232 C 
BRANCH  21  23
ATOM     22  C   UNL     1      34.214 -21.828 -19.368  0.00  0.00    -0.043 C 
ATOM     23  C   UNL     1      35.399 -19.624 -20.602  0.00  0.00    +0.021 C 
ATOM     24  C   UNL     1      33.420 -20.878 -20.014  0.00  0.00    -0.007 C 
ATOM     25  C   UNL     1      35.599 -21.674 -19.339  0.00  0.00    -0.007 C 
ATOM     26  C   UNL     1      34.013 -19.777 -20.631  0.00  0.00    -0.001 C 
ATOM     27  C   UNL     1      36.192 -20.572 -19.957  0.00  0.00    -0.001 C 
BRANCH  22  28
ATOM     28  C   UNL     1      33.579 -23.005 -18.709  0.00  0.00    -0.050 C 
BRANCH  28  30
ATOM     29  O   UNL     1      32.767 -23.714 -14.652  0.00  0.00    -0.358 OA
ATOM     30  N   UNL     1      33.366 -22.793 -17.278  0.00  0.00    +0.393 N 
ATOM     31  C   UNL     1      32.002 -23.179 -16.892  0.00  0.00    -0.044 C 
ATOM     32  C   UNL     1      34.347 -23.550 -16.487  0.00  0.00    -0.044 C 
ATOM     33  C   UNL     1      34.097 -23.324 -14.998  0.00  0.00    +0.119 C 
ATOM     34  C   UNL     1      31.808 -22.960 -15.394  0.00  0.00    +0.119 C 
ATOM     35  H   UNL     1      33.491 -21.799 -17.087  0.00  0.00    -0.079 HD
ENDBRANCH  28  30
ENDBRANCH  22  28
ENDBRANCH  21  23
ENDBRANCH  20  21
ENDBRANCH   7  20
TORSDOF 6
ENDMDL
MODEL 4
REMARK VINA RESULT:     -13.1      3.467     11.697
REMARK  Name = 67335295
REMARK  6 active torsions:
REMARK  status: ('A' for Active; 'I' for Inactive)
REMARK    1  A    between atoms: N_2  and  C_14
REMARK    2  A    between atoms: C_7  and  O_20
REMARK    3  A    between atoms: O_20  and  C_21
REMARK    4  A    between atoms: C_21  and  C_23
REMARK    5  A    between atoms: C_22  and  C_28
REMARK    6  A    between atoms: C_28  and  N_30
REMARK                            x       y       z     vdW  Elec       q    Type
REMARK                         _______ _______ _______ _____ _____    ______ ____
ROOT
ATOM      1  O   UNL     1      33.399 -14.118 -25.585  0.00  0.00    -0.270 OA
ATOM      2  N   UNL     1      33.981 -14.083 -23.295  0.00  0.00    -0.265 N 
ATOM      3  C   UNL     1      34.438 -15.052 -22.306  0.00  0.00    +0.124 C 
ATOM      4  C   UNL     1      34.493 -16.308 -23.107  0.00  0.00    +0.036 C 
ATOM      5  C   UNL     1      33.774 -14.640 -24.552  0.00  0.00    +0.249 C 
ATOM      6  C   UNL     1      34.103 -16.065 -24.424  0.00  0.00    +0.054 C 
ATOM      7  C   UNL     1      34.860 -17.580 -22.711  0.00  0.00    +0.137 C 
ATOM      8  C   UNL     1      34.061 -17.056 -25.385  0.00  0.00    +0.004 C 
ATOM      9  C   UNL     1      34.827 -18.602 -23.665  0.00  0.00    +0.037 C 
ATOM     10  C   UNL     1      34.431 -18.342 -24.990  0.00  0.00    +0.003 C 
ENDROOT
BRANCH   2  14
ATOM     11  O   UNL     1      31.888 -13.438 -21.678  0.00  0.00    -0.273 OA
ATOM     12  O   UNL     1      31.651  -9.146 -23.327  0.00  0.00    -0.275 OA
ATOM     13  N   UNL     1      31.790 -11.310 -22.546  0.00  0.00    -0.254 N 
ATOM     14  C   UNL     1      33.767 -12.691 -23.002  0.00  0.00    +0.153 C 
ATOM     15  C   UNL     1      33.880 -11.840 -24.257  0.00  0.00    +0.039 C 
ATOM     16  C   UNL     1      33.615 -10.387 -23.906  0.00  0.00    +0.088 C 
ATOM     17  C   UNL     1      32.396 -12.553 -22.366  0.00  0.00    +0.246 C 
ATOM     18  C   UNL     1      32.261 -10.213 -23.261  0.00  0.00    +0.228 C 
ATOM     19  H   UNL     1      30.915 -11.194 -22.110  0.00  0.00    +0.158 HD
ENDBRANCH   2  14
BRANCH   7  20
ATOM     20  O   UNL     1      35.242 -17.841 -21.434  0.00  0.00    -0.471 OA
BRANCH  20  21
ATOM     21  C   UNL     1      36.166 -18.911 -21.235  0.00  0.00    +0.232 C 
BRANCH  21  23
ATOM     22  C   UNL     1      34.204 -22.084 -19.116  0.00  0.00    -0.043 C 
ATOM     23  C   UNL     1      35.480 -20.019 -20.492  0.00  0.00    +0.021 C 
ATOM     24  C   UNL     1      35.598 -22.003 -19.118  0.00  0.00    -0.007 C 
ATOM     25  C   UNL     1      33.450 -21.133 -19.802  0.00  0.00    -0.007 C 
ATOM     26  C   UNL     1      36.235 -20.971 -19.806  0.00  0.00    -0.001 C 
ATOM     27  C   UNL     1      34.088 -20.100 -20.490  0.00  0.00    -0.001 C 
BRANCH  22  28
ATOM     28  C   UNL     1      33.523 -23.188 -18.380  0.00  0.00    -0.050 C 
BRANCH  28  30
ATOM     29  O   UNL     1      32.990 -23.724 -14.251  0.00  0.00    -0.358 OA
ATOM     30  N   UNL     1      33.412 -22.916 -16.948  0.00  0.00    +0.393 N 
ATOM     31  C   UNL     1      32.075 -23.273 -16.453  0.00  0.00    -0.044 C 
ATOM     32  C   UNL     1      34.440 -23.650 -16.196  0.00  0.00    -0.044 C 
ATOM     33  C   UNL     1      34.295 -23.361 -14.704  0.00  0.00    +0.119 C 
ATOM     34  C   UNL     1      31.987 -22.992 -14.956  0.00  0.00    +0.119 C 
ATOM     35  H   UNL     1      33.556 -21.916 -16.807  0.00  0.00    -0.079 HD
ENDBRANCH  28  30
ENDBRANCH  22  28
ENDBRANCH  21  23
ENDBRANCH  20  21
ENDBRANCH   7  20
TORSDOF 6
ENDMDL
MODEL 5
REMARK VINA RESULT:     -12.9      5.677      9.856
REMARK  Name = 67335295
REMARK  6 active torsions:
REMARK  status: ('A' for Active; 'I' for Inactive)
REMARK    1  A    between atoms: N_2  and  C_14
REMARK    2  A    between atoms: C_7  and  O_20
REMARK    3  A    between atoms: O_20  and  C_21
REMARK    4  A    between atoms: C_21  and  C_23
REMARK    5  A    between atoms: C_22  and  C_28
REMARK    6  A    between atoms: C_28  and  N_30
REMARK                            x       y       z     vdW  Elec       q    Type
REMARK                         _______ _______ _______ _____ _____    ______ ____
ROOT
ATOM      1  O   UNL     1      34.968 -19.795 -24.369  0.00  0.00    -0.270 OA
ATOM      2  N   UNL     1      34.709 -18.982 -22.166  0.00  0.00    -0.265 N 
ATOM      3  C   UNL     1      34.378 -17.706 -21.541  0.00  0.00    +0.124 C 
ATOM      4  C   UNL     1      34.192 -16.822 -22.727  0.00  0.00    +0.036 C 
ATOM      5  C   UNL     1      34.731 -18.922 -23.554  0.00  0.00    +0.249 C 
ATOM      6  C   UNL     1      34.400 -17.536 -23.907  0.00  0.00    +0.054 C 
ATOM      7  C   UNL     1      33.862 -15.480 -22.772  0.00  0.00    +0.137 C 
ATOM      8  C   UNL     1      34.292 -16.960 -25.157  0.00  0.00    +0.004 C 
ATOM      9  C   UNL     1      33.747 -14.872 -24.026  0.00  0.00    +0.037 C 
ATOM     10  C   UNL     1      33.959 -15.606 -25.208  0.00  0.00    +0.003 C 
ENDROOT
BRANCH   2  14
ATOM     11  O   UNL     1      32.604 -20.262 -21.006  0.00  0.00    -0.273 OA
ATOM     12  O   UNL     1      35.293 -22.331 -17.894  0.00  0.00    -0.275 OA
ATOM     13  N   UNL     1      33.981 -21.258 -19.456  0.00  0.00    -0.254 N 
ATOM     14  C   UNL     1      34.984 -20.181 -21.420  0.00  0.00    +0.153 C 
ATOM     15  C   UNL     1      36.191 -20.000 -20.512  0.00  0.00    +0.039 C 
ATOM     16  C   UNL     1      36.423 -21.276 -19.723  0.00  0.00    +0.088 C 
ATOM     17  C   UNL     1      33.742 -20.530 -20.621  0.00  0.00    +0.246 C 
ATOM     18  C   UNL     1      35.202 -21.660 -18.922  0.00  0.00    +0.228 C 
ATOM     19  H   UNL     1      33.182 -21.521 -18.945  0.00  0.00    +0.158 HD
ENDBRANCH   2  14
BRANCH   7  20
ATOM     20  O   UNL     1      33.657 -14.764 -21.637  0.00  0.00    -0.471 OA
BRANCH  20  21
ATOM     21  C   UNL     1      32.308 -14.428 -21.313  0.00  0.00    +0.232 C 
BRANCH  21  23
ATOM     22  C   UNL     1      31.889 -10.157 -21.344  0.00  0.00    -0.043 C 
ATOM     23  C   UNL     1      32.159 -12.934 -21.324  0.00  0.00    +0.021 C 
ATOM     24  C   UNL     1      32.151 -10.842 -22.532  0.00  0.00    -0.007 C 
ATOM     25  C   UNL     1      31.762 -10.861 -20.147  0.00  0.00    -0.007 C 
ATOM     26  C   UNL     1      32.286 -12.230 -22.521  0.00  0.00    -0.001 C 
ATOM     27  C   UNL     1      31.897 -12.250 -20.137  0.00  0.00    -0.001 C 
BRANCH  22  28
ATOM     28  C   UNL     1      31.745  -8.673 -21.355  0.00  0.00    -0.050 C 
BRANCH  28  30
ATOM     29  O   UNL     1      32.703  -5.913 -24.369  0.00  0.00    -0.358 OA
ATOM     30  N   UNL     1      32.046  -8.096 -22.664  0.00  0.00    +0.393 N 
ATOM     31  C   UNL     1      31.052  -7.076 -23.025  0.00  0.00    -0.044 C 
ATOM     32  C   UNL     1      33.395  -7.512 -22.679  0.00  0.00    -0.044 C 
ATOM     33  C   UNL     1      33.681  -6.904 -24.050  0.00  0.00    +0.119 C 
ATOM     34  C   UNL     1      31.393  -6.480 -24.387  0.00  0.00    +0.119 C 
ATOM     35  H   UNL     1      32.008  -8.846 -23.354  0.00  0.00    -0.079 HD
ENDBRANCH  28  30
ENDBRANCH  22  28
ENDBRANCH  21  23
ENDBRANCH  20  21
ENDBRANCH   7  20
TORSDOF 6
ENDMDL
MODEL 6
REMARK VINA RESULT:     -12.8      2.262      5.255
REMARK  Name = 67335295
REMARK  6 active torsions:
REMARK  status: ('A' for Active; 'I' for Inactive)
REMARK    1  A    between atoms: N_2  and  C_14
REMARK    2  A    between atoms: C_7  and  O_20
REMARK    3  A    between atoms: O_20  and  C_21
REMARK    4  A    between atoms: C_21  and  C_23
REMARK    5  A    between atoms: C_22  and  C_28
REMARK    6  A    between atoms: C_28  and  N_30
REMARK                            x       y       z     vdW  Elec       q    Type
REMARK                         _______ _______ _______ _____ _____    ______ ____
ROOT
ATOM      1  O   UNL     1      32.013 -23.799 -12.764  0.00  0.00    -0.270 OA
ATOM      2  N   UNL     1      32.015 -23.418 -15.096  0.00  0.00    -0.265 N 
ATOM      3  C   UNL     1      33.020 -23.258 -16.140  0.00  0.00    +0.124 C 
ATOM      4  C   UNL     1      34.289 -23.395 -15.371  0.00  0.00    +0.036 C 
ATOM      5  C   UNL     1      32.563 -23.629 -13.836  0.00  0.00    +0.249 C 
ATOM      6  C   UNL     1      34.019 -23.613 -14.019  0.00  0.00    +0.054 C 
ATOM      7  C   UNL     1      35.595 -23.335 -15.821  0.00  0.00    +0.137 C 
ATOM      8  C   UNL     1      35.015 -23.776 -13.076  0.00  0.00    +0.004 C 
ATOM      9  C   UNL     1      36.622 -23.497 -14.886  0.00  0.00    +0.037 C 
ATOM     10  C   UNL     1      36.335 -23.716 -13.526  0.00  0.00    +0.003 C 
ENDROOT
BRANCH   2  14
ATOM     11  O   UNL     1      30.646 -25.772 -15.133  0.00  0.00    -0.273 OA
ATOM     12  O   UNL     1      27.249 -24.010 -17.692  0.00  0.00    -0.275 OA
ATOM     13  N   UNL     1      28.981 -24.857 -16.430  0.00  0.00    -0.254 N 
ATOM     14  C   UNL     1      30.598 -23.364 -15.344  0.00  0.00    +0.153 C 
ATOM     15  C   UNL     1      30.278 -22.430 -16.501  0.00  0.00    +0.039 C 
ATOM     16  C   UNL     1      28.780 -22.430 -16.747  0.00  0.00    +0.088 C 
ATOM     17  C   UNL     1      30.120 -24.777 -15.630  0.00  0.00    +0.246 C 
ATOM     18  C   UNL     1      28.266 -23.823 -17.025  0.00  0.00    +0.228 C 
ATOM     19  H   UNL     1      28.639 -25.766 -16.596  0.00  0.00    +0.158 HD
ENDBRANCH   2  14
BRANCH   7  20
ATOM     20  O   UNL     1      35.881 -23.122 -17.130  0.00  0.00    -0.471 OA
BRANCH  20  21
ATOM     21  C   UNL     1      36.710 -22.001 -17.443  0.00  0.00    +0.232 C 
BRANCH  21  23
ATOM     22  C   UNL     1      35.187 -20.077 -20.964  0.00  0.00    -0.043 C 
ATOM     23  C   UNL     1      36.177 -21.327 -18.673  0.00  0.00    +0.021 C 
ATOM     24  C   UNL     1      34.359 -20.911 -20.210  0.00  0.00    -0.007 C 
ATOM     25  C   UNL     1      36.509 -19.870 -20.572  0.00  0.00    -0.007 C 
ATOM     26  C   UNL     1      34.854 -21.535 -19.065  0.00  0.00    -0.001 C 
ATOM     27  C   UNL     1      37.004 -20.494 -19.426  0.00  0.00    -0.001 C 
BRANCH  22  28
ATOM     28  C   UNL     1      34.658 -19.411 -22.188  0.00  0.00    -0.050 C 
BRANCH  28  30
ATOM     29  O   UNL     1      34.283 -15.250 -22.599  0.00  0.00    -0.358 OA
ATOM     30  N   UNL     1      34.980 -17.985 -22.228  0.00  0.00    +0.393 N 
ATOM     31  C   UNL     1      34.726 -17.431 -23.565  0.00  0.00    -0.044 C 
ATOM     32  C   UNL     1      34.204 -17.247 -21.221  0.00  0.00    -0.044 C 
ATOM     33  C   UNL     1      34.547 -15.761 -21.291  0.00  0.00    +0.119 C 
ATOM     34  C   UNL     1      35.057 -15.942 -23.579  0.00  0.00    +0.119 C 
ATOM     35  H   UNL     1      35.972 -17.882 -22.015  0.00  0.00    -0.079 HD
ENDBRANCH  28  30
ENDBRANCH  22  28
ENDBRANCH  21  23
ENDBRANCH  20  21
ENDBRANCH   7  20
TORSDOF 6
ENDMDL
MODEL 7
REMARK VINA RESULT:     -12.6      7.586     14.425
REMARK  Name = 67335295
REMARK  6 active torsions:
REMARK  status: ('A' for Active; 'I' for Inactive)
REMARK    1  A    between atoms: N_2  and  C_14
REMARK    2  A    between atoms: C_7  and  O_20
REMARK    3  A    between atoms: O_20  and  C_21
REMARK    4  A    between atoms: C_21  and  C_23
REMARK    5  A    between atoms: C_22  and  C_28
REMARK    6  A    between atoms: C_28  and  N_30
REMARK                            x       y       z     vdW  Elec       q    Type
REMARK                         _______ _______ _______ _____ _____    ______ ____
ROOT
ATOM      1  O   UNL     1      32.379  -6.949 -20.228  0.00  0.00    -0.270 OA
ATOM      2  N   UNL     1      32.554  -7.961 -22.357  0.00  0.00    -0.265 N 
ATOM      3  C   UNL     1      32.405  -9.304 -22.904  0.00  0.00    +0.124 C 
ATOM      4  C   UNL     1      32.061 -10.096 -21.689  0.00  0.00    +0.036 C 
ATOM      5  C   UNL     1      32.336  -7.901 -20.985  0.00  0.00    +0.249 C 
ATOM      6  C   UNL     1      32.021  -9.272 -20.564  0.00  0.00    +0.054 C 
ATOM      7  C   UNL     1      31.800 -11.448 -21.573  0.00  0.00    +0.137 C 
ATOM      8  C   UNL     1      31.726  -9.746 -19.301  0.00  0.00    +0.004 C 
ATOM      9  C   UNL     1      31.499 -11.955 -20.305  0.00  0.00    +0.037 C 
ATOM     10  C   UNL     1      31.462 -11.111 -19.179  0.00  0.00    +0.003 C 
ENDROOT
BRANCH   2  14
ATOM     11  O   UNL     1      30.572  -6.179 -22.912  0.00  0.00    -0.273 OA
ATOM     12  O   UNL     1      32.748  -4.588 -26.645  0.00  0.00    -0.275 OA
ATOM     13  N   UNL     1      31.683  -5.429 -24.782  0.00  0.00    -0.254 N 
ATOM     14  C   UNL     1      32.892  -6.812 -23.155  0.00  0.00    +0.153 C 
ATOM     15  C   UNL     1      33.741  -7.206 -24.354  0.00  0.00    +0.039 C 
ATOM     16  C   UNL     1      34.044  -5.972 -25.183  0.00  0.00    +0.088 C 
ATOM     17  C   UNL     1      31.597  -6.150 -23.592  0.00  0.00    +0.246 C 
ATOM     18  C   UNL     1      32.778  -5.279 -25.628  0.00  0.00    +0.228 C 
ATOM     19  H   UNL     1      30.860  -4.965 -25.060  0.00  0.00    +0.158 HD
ENDBRANCH   2  14
BRANCH   7  20
ATOM     20  O   UNL     1      31.836 -12.270 -22.653  0.00  0.00    -0.471 OA
BRANCH  20  21
ATOM     21  C   UNL     1      33.046 -12.300 -23.411  0.00  0.00    +0.232 C 
BRANCH  21  23
ATOM     22  C   UNL     1      34.535 -16.323 -23.527  0.00  0.00    -0.043 C 
ATOM     23  C   UNL     1      33.565 -13.707 -23.450  0.00  0.00    +0.021 C 
ATOM     24  C   UNL     1      34.654 -15.567 -22.358  0.00  0.00    -0.007 C 
ATOM     25  C   UNL     1      33.932 -15.770 -24.655  0.00  0.00    -0.007 C 
ATOM     26  C   UNL     1      34.169 -14.260 -22.321  0.00  0.00    -0.001 C 
ATOM     27  C   UNL     1      33.446 -14.462 -24.617  0.00  0.00    -0.001 C 
BRANCH  22  28
ATOM     28  C   UNL     1      35.054 -17.720 -23.566  0.00  0.00    -0.050 C 
BRANCH  28  30
ATOM     29  O   UNL     1      35.807 -20.445 -20.463  0.00  0.00    -0.358 OA
ATOM     30  N   UNL     1      35.176 -18.305 -22.232  0.00  0.00    +0.393 N 
ATOM     31  C   UNL     1      34.295 -19.473 -22.094  0.00  0.00    -0.044 C 
ATOM     32  C   UNL     1      36.568 -18.689 -21.957  0.00  0.00    -0.044 C 
ATOM     33  C   UNL     1      36.668 -19.309 -20.566  0.00  0.00    +0.119 C 
ATOM     34  C   UNL     1      34.448 -20.074 -20.699  0.00  0.00    +0.119 C 
ATOM     35  H   UNL     1      34.891 -17.600 -21.553  0.00  0.00    -0.079 HD
ENDBRANCH  28  30
ENDBRANCH  22  28
ENDBRANCH  21  23
ENDBRANCH  20  21
ENDBRANCH   7  20
TORSDOF 6
ENDMDL
MODEL 8
REMARK VINA RESULT:     -12.4      6.314     10.654
REMARK  Name = 67335295
REMARK  6 active torsions:
REMARK  status: ('A' for Active; 'I' for Inactive)
REMARK    1  A    between atoms: N_2  and  C_14
REMARK    2  A    between atoms: C_7  and  O_20
REMARK    3  A    between atoms: O_20  and  C_21
REMARK    4  A    between atoms: C_21  and  C_23
REMARK    5  A    between atoms: C_22  and  C_28
REMARK    6  A    between atoms: C_28  and  N_30
REMARK                            x       y       z     vdW  Elec       q    Type
REMARK                         _______ _______ _______ _____ _____    ______ ____
ROOT
ATOM      1  O   UNL     1      34.691 -19.627 -23.581  0.00  0.00    -0.270 OA
ATOM      2  N   UNL     1      34.307 -18.150 -21.777  0.00  0.00    -0.265 N 
ATOM      3  C   UNL     1      34.033 -16.728 -21.614  0.00  0.00    +0.124 C 
ATOM      4  C   UNL     1      34.033 -16.251 -23.027  0.00  0.00    +0.036 C 
ATOM      5  C   UNL     1      34.460 -18.531 -23.105  0.00  0.00    +0.249 C 
ATOM      6  C   UNL     1      34.284 -17.310 -23.900  0.00  0.00    +0.054 C 
ATOM      7  C   UNL     1      33.827 -14.975 -23.518  0.00  0.00    +0.137 C 
ATOM      8  C   UNL     1      34.339 -17.150 -25.271  0.00  0.00    +0.004 C 
ATOM      9  C   UNL     1      33.878 -14.785 -24.902  0.00  0.00    +0.037 C 
ATOM     10  C   UNL     1      34.132 -15.864 -25.771  0.00  0.00    +0.003 C 
ENDROOT
BRANCH   2  14
ATOM     11  O   UNL     1      36.790 -19.021 -21.079  0.00  0.00    -0.273 OA
ATOM     12  O   UNL     1      35.134 -22.813 -19.060  0.00  0.00    -0.275 OA
ATOM     13  N   UNL     1      35.922 -20.914 -20.100  0.00  0.00    -0.254 N 
ATOM     14  C   UNL     1      34.408 -19.069 -20.673  0.00  0.00    +0.153 C 
ATOM     15  C   UNL     1      33.359 -20.166 -20.774  0.00  0.00    +0.039 C 
ATOM     16  C   UNL     1      33.525 -21.128 -19.611  0.00  0.00    +0.088 C 
ATOM     17  C   UNL     1      35.811 -19.648 -20.675  0.00  0.00    +0.246 C 
ATOM     18  C   UNL     1      34.915 -21.717 -19.574  0.00  0.00    +0.228 C 
ATOM     19  H   UNL     1      36.832 -21.287 -20.063  0.00  0.00    +0.158 HD
ENDBRANCH   2  14
BRANCH   7  20
ATOM     20  O   UNL     1      33.584 -13.929 -22.687  0.00  0.00    -0.471 OA
BRANCH  20  21
ATOM     21  C   UNL     1      32.349 -13.232 -22.861  0.00  0.00    +0.232 C 
BRANCH  21  23
ATOM     22  C   UNL     1      33.129  -9.016 -23.035  0.00  0.00    -0.043 C 
ATOM     23  C   UNL     1      32.623 -11.758 -22.920  0.00  0.00    +0.021 C 
ATOM     24  C   UNL     1      32.169  -9.513 -22.151  0.00  0.00    -0.007 C 
ATOM     25  C   UNL     1      33.834  -9.890 -23.862  0.00  0.00    -0.007 C 
ATOM     26  C   UNL     1      31.917 -10.884 -22.094  0.00  0.00    -0.001 C 
ATOM     27  C   UNL     1      33.581 -11.261 -23.804  0.00  0.00    -0.001 C 
BRANCH  22  28
ATOM     28  C   UNL     1      33.397  -7.551 -23.096  0.00  0.00    -0.050 C 
BRANCH  28  30
ATOM     29  O   UNL     1      30.766  -4.303 -23.483  0.00  0.00    -0.358 OA
ATOM     30  N   UNL     1      32.173  -6.767 -23.255  0.00  0.00    +0.393 N 
ATOM     31  C   UNL     1      31.959  -5.894 -22.093  0.00  0.00    -0.044 C 
ATOM     32  C   UNL     1      32.224  -5.965 -24.485  0.00  0.00    -0.044 C 
ATOM     33  C   UNL     1      30.943  -5.146 -24.623  0.00  0.00    +0.119 C 
ATOM     34  C   UNL     1      30.684  -5.078 -22.287  0.00  0.00    +0.119 C 
ATOM     35  H   UNL     1      31.391  -7.418 -23.323  0.00  0.00    -0.079 HD
ENDBRANCH  28  30
ENDBRANCH  22  28
ENDBRANCH  21  23
ENDBRANCH  20  21
ENDBRANCH   7  20
TORSDOF 6
ENDMDL
MODEL 9
REMARK VINA RESULT:     -12.1      7.258     14.105
REMARK  Name = 67335295
REMARK  6 active torsions:
REMARK  status: ('A' for Active; 'I' for Inactive)
REMARK    1  A    between atoms: N_2  and  C_14
REMARK    2  A    between atoms: C_7  and  O_20
REMARK    3  A    between atoms: O_20  and  C_21
REMARK    4  A    between atoms: C_21  and  C_23
REMARK    5  A    between atoms: C_22  and  C_28
REMARK    6  A    between atoms: C_28  and  N_30
REMARK                            x       y       z     vdW  Elec       q    Type
REMARK                         _______ _______ _______ _____ _____    ______ ____
ROOT
ATOM      1  O   UNL     1      31.735  -7.270 -21.063  0.00  0.00    -0.270 OA
ATOM      2  N   UNL     1      31.934  -8.775 -22.874  0.00  0.00    -0.265 N 
ATOM      3  C   UNL     1      31.991 -10.221 -23.046  0.00  0.00    +0.124 C 
ATOM      4  C   UNL     1      31.886 -10.703 -21.639  0.00  0.00    +0.036 C 
ATOM      5  C   UNL     1      31.809  -8.385 -21.545  0.00  0.00    +0.249 C 
ATOM      6  C   UNL     1      31.780  -9.624 -20.760  0.00  0.00    +0.054 C 
ATOM      7  C   UNL     1      31.883 -11.998 -21.157  0.00  0.00    +0.137 C 
ATOM      8  C   UNL     1      31.668  -9.784 -19.393  0.00  0.00    +0.004 C 
ATOM      9  C   UNL     1      31.771 -12.188 -19.776  0.00  0.00    +0.037 C 
ATOM     10  C   UNL     1      31.664 -11.090 -18.902  0.00  0.00    +0.003 C 
ENDROOT
BRANCH   2  14
ATOM     11  O   UNL     1      34.398  -7.950 -23.688  0.00  0.00    -0.273 OA
ATOM     12  O   UNL     1      32.727  -4.094 -25.571  0.00  0.00    -0.275 OA
ATOM     13  N   UNL     1      33.524  -6.025 -24.596  0.00  0.00    -0.254 N 
ATOM     14  C   UNL     1      32.000  -7.843 -23.969  0.00  0.00    +0.153 C 
ATOM     15  C   UNL     1      30.983  -6.725 -23.802  0.00  0.00    +0.039 C 
ATOM     16  C   UNL     1      31.111  -5.751 -24.959  0.00  0.00    +0.088 C 
ATOM     17  C   UNL     1      33.414  -7.296 -24.033  0.00  0.00    +0.246 C 
ATOM     18  C   UNL     1      32.510  -5.193 -25.060  0.00  0.00    +0.228 C 
ATOM     19  H   UNL     1      34.440  -5.671 -24.676  0.00  0.00    +0.158 HD
ENDBRANCH   2  14
BRANCH   7  20
ATOM     20  O   UNL     1      31.987 -13.063 -21.993  0.00  0.00    -0.471 OA
BRANCH  20  21
ATOM     21  C   UNL     1      33.170 -13.154 -22.789  0.00  0.00    +0.232 C 
BRANCH  21  23
ATOM     22  C   UNL     1      35.108 -16.897 -21.986  0.00  0.00    -0.043 C 
ATOM     23  C   UNL     1      33.850 -14.462 -22.508  0.00  0.00    +0.021 C 
ATOM     24  C   UNL     1      34.935 -16.469 -23.303  0.00  0.00    -0.007 C 
ATOM     25  C   UNL     1      34.652 -16.108 -20.931  0.00  0.00    -0.007 C 
ATOM     26  C   UNL     1      34.305 -15.252 -23.564  0.00  0.00    -0.001 C 
ATOM     27  C   UNL     1      34.023 -14.890 -21.192  0.00  0.00    -0.001 C 
BRANCH  22  28
ATOM     28  C   UNL     1      35.781 -18.199 -21.708  0.00  0.00    -0.050 C 
BRANCH  28  30
ATOM     29  O   UNL     1      33.668 -21.438 -20.077  0.00  0.00    -0.358 OA
ATOM     30  N   UNL     1      35.017 -19.032 -20.782  0.00  0.00    +0.393 N 
ATOM     31  C   UNL     1      33.704 -19.372 -21.347  0.00  0.00    -0.044 C 
ATOM     32  C   UNL     1      35.756 -20.260 -20.454  0.00  0.00    -0.044 C 
ATOM     33  C   UNL     1      34.935 -21.119 -19.497  0.00  0.00    +0.119 C 
ATOM     34  C   UNL     1      32.931 -20.251 -20.369  0.00  0.00    +0.119 C 
ATOM     35  H   UNL     1      34.875 -18.498 -19.925  0.00  0.00    -0.079 HD
ENDBRANCH  28  30
ENDBRANCH  22  28
ENDBRANCH  21  23
ENDBRANCH  20  21
ENDBRANCH   7  20
TORSDOF 6
ENDMDL
