MODEL 1
REMARK VINA RESULT:      -9.4      0.000      0.000
REMARK  Name = 443951
REMARK  3 active torsions:
REMARK  status: ('A' for Active; 'I' for Inactive)
REMARK    1  A    between atoms: C_6  and  N_21
REMARK    2  A    between atoms: N_22  and  C_25
REMARK    3  A    between atoms: N_22  and  C_27
REMARK                            x       y       z     vdW  Elec       q    Type
REMARK                         _______ _______ _______ _____ _____    ______ ____
ROOT
ATOM      1  N   UNL     1      33.014 -13.305 -21.467  0.00  0.00    +0.388 N 
ATOM      2  N   UNL     1      35.505 -18.776 -21.834  0.00  0.00    -0.312 N 
ATOM      3  C   UNL     1      33.801 -14.728 -23.390  0.00  0.00    +0.005 C 
ATOM      4  C   UNL     1      33.336 -14.698 -21.867  0.00  0.00    -0.049 C 
ATOM      5  C   UNL     1      32.717 -14.107 -24.286  0.00  0.00    +0.020 C 
ATOM      6  C   UNL     1      32.311 -12.719 -23.793  0.00  0.00    +0.053 C 
ATOM      7  C   UNL     1      34.395 -15.368 -20.909  0.00  0.00    +0.007 C 
ATOM      8  C   UNL     1      31.936 -12.752 -22.309  0.00  0.00    -0.057 C 
ATOM      9  C   UNL     1      34.196 -16.134 -23.813  0.00  0.00    -0.023 C 
ATOM     10  C   UNL     1      34.680 -16.981 -22.808  0.00  0.00    +0.007 C 
ATOM     11  C   UNL     1      34.806 -16.702 -21.433  0.00  0.00    -0.009 C 
ATOM     12  C   UNL     1      35.116 -18.268 -23.054  0.00  0.00    +0.048 C 
ATOM     13  C   UNL     1      32.621 -13.194 -20.059  0.00  0.00    -0.100 C 
ATOM     14  C   UNL     1      34.203 -16.655 -25.112  0.00  0.00    -0.004 C 
ATOM     15  C   UNL     1      35.324 -17.831 -20.844  0.00  0.00    +0.057 C 
ATOM     16  C   UNL     1      35.106 -18.805 -24.341  0.00  0.00    +0.015 C 
ATOM     17  C   UNL     1      34.641 -17.965 -25.365  0.00  0.00    +0.001 C 
ATOM     18  H   UNL     1      33.872 -12.770 -21.598  0.00  0.00    -0.080 HD
ATOM     19  H   UNL     1      35.862 -19.682 -21.688  0.00  0.00    +0.152 HD
ENDROOT
BRANCH   6  21
ATOM     20  O   UNL     1      32.047  -9.915 -23.570  0.00  0.00    -0.253 OA
ATOM     21  N   UNL     1      33.352 -11.747 -24.047  0.00  0.00    -0.292 N 
ATOM     22  N   UNL     1      34.255  -9.573 -24.211  0.00  0.00    -0.264 N 
ATOM     23  C   UNL     1      33.139 -10.377 -23.914  0.00  0.00    +0.304 C 
ATOM     24  H   UNL     1      34.242 -12.064 -24.325  0.00  0.00    +0.151 HD
BRANCH  22  25
ATOM     25  C   UNL     1      34.203  -8.119 -24.132  0.00  0.00    +0.095 C 
ATOM     26  C   UNL     1      34.428  -7.631 -22.716  0.00  0.00    +0.023 C 
ENDBRANCH  22  25
BRANCH  22  27
ATOM     27  C   UNL     1      35.536 -10.145 -24.616  0.00  0.00    +0.095 C 
ATOM     28  C   UNL     1      35.639 -10.263 -26.123  0.00  0.00    +0.023 C 
ENDBRANCH  22  27
ENDBRANCH   6  21
TORSDOF 3
ENDMDL
MODEL 2
REMARK VINA RESULT:      -8.1      2.284      7.594
REMARK  Name = 443951
REMARK  3 active torsions:
REMARK  status: ('A' for Active; 'I' for Inactive)
REMARK    1  A    between atoms: C_6  and  N_21
REMARK    2  A    between atoms: N_22  and  C_25
REMARK    3  A    between atoms: N_22  and  C_27
REMARK                            x       y       z     vdW  Elec       q    Type
REMARK                         _______ _______ _______ _____ _____    ______ ____
ROOT
ATOM      1  N   UNL     1      34.299 -12.539 -25.940  0.00  0.00    +0.388 N 
ATOM      2  N   UNL     1      33.934  -7.396 -22.826  0.00  0.00    -0.312 N 
ATOM      3  C   UNL     1      33.223 -11.907 -23.752  0.00  0.00    +0.005 C 
ATOM      4  C   UNL     1      33.799 -11.390 -25.144  0.00  0.00    -0.049 C 
ATOM      5  C   UNL     1      32.130 -12.961 -23.992  0.00  0.00    +0.020 C 
ATOM      6  C   UNL     1      32.623 -14.080 -24.909  0.00  0.00    +0.053 C 
ATOM      7  C   UNL     1      34.893 -10.269 -24.955  0.00  0.00    +0.007 C 
ATOM      8  C   UNL     1      33.218 -13.509 -26.199  0.00  0.00    -0.057 C 
ATOM      9  C   UNL     1      32.758 -10.746 -22.888  0.00  0.00    -0.023 C 
ATOM     10  C   UNL     1      33.401  -9.518 -23.085  0.00  0.00    +0.007 C 
ATOM     11  C   UNL     1      34.405  -9.212 -24.023  0.00  0.00    -0.009 C 
ATOM     12  C   UNL     1      33.111  -8.390 -22.341  0.00  0.00    +0.048 C 
ATOM     13  C   UNL     1      34.888 -12.131 -27.219  0.00  0.00    -0.100 C 
ATOM     14  C   UNL     1      31.807 -10.785 -21.860  0.00  0.00    -0.004 C 
ATOM     15  C   UNL     1      34.726  -7.887 -23.845  0.00  0.00    +0.057 C 
ATOM     16  C   UNL     1      32.151  -8.412 -21.331  0.00  0.00    +0.015 C 
ATOM     17  C   UNL     1      31.508  -9.639 -21.106  0.00  0.00    +0.001 C 
ATOM     18  H   UNL     1      35.032 -12.971 -25.379  0.00  0.00    -0.080 HD
ATOM     19  H   UNL     1      33.956  -6.470 -22.493  0.00  0.00    +0.152 HD
ENDROOT
BRANCH   6  21
ATOM     20  O   UNL     1      33.452 -16.640 -25.769  0.00  0.00    -0.253 OA
ATOM     21  N   UNL     1      33.571 -14.936 -24.230  0.00  0.00    -0.292 N 
ATOM     22  N   UNL     1      34.853 -16.894 -23.932  0.00  0.00    -0.264 N 
ATOM     23  C   UNL     1      33.927 -16.188 -24.722  0.00  0.00    +0.304 C 
ATOM     24  H   UNL     1      33.978 -14.622 -23.390  0.00  0.00    +0.151 HD
BRANCH  22  25
ATOM     25  C   UNL     1      35.326 -18.223 -24.295  0.00  0.00    +0.095 C 
ATOM     26  C   UNL     1      34.606 -19.302 -23.513  0.00  0.00    +0.023 C 
ENDBRANCH  22  25
BRANCH  22  27
ATOM     27  C   UNL     1      35.400 -16.338 -22.697  0.00  0.00    +0.095 C 
ATOM     28  C   UNL     1      34.515 -16.651 -21.508  0.00  0.00    +0.023 C 
ENDBRANCH  22  27
ENDBRANCH   6  21
TORSDOF 3
ENDMDL
MODEL 3
REMARK VINA RESULT:      -7.7      3.998      9.837
REMARK  Name = 443951
REMARK  3 active torsions:
REMARK  status: ('A' for Active; 'I' for Inactive)
REMARK    1  A    between atoms: C_6  and  N_21
REMARK    2  A    between atoms: N_22  and  C_25
REMARK    3  A    between atoms: N_22  and  C_27
REMARK                            x       y       z     vdW  Elec       q    Type
REMARK                         _______ _______ _______ _____ _____    ______ ____
ROOT
ATOM      1  N   UNL     1      31.887  -6.552 -22.246  0.00  0.00    +0.388 N 
ATOM      2  N   UNL     1      31.633  -2.892 -27.023  0.00  0.00    -0.312 N 
ATOM      3  C   UNL     1      33.171  -6.429 -24.409  0.00  0.00    +0.005 C 
ATOM      4  C   UNL     1      32.249  -5.651 -23.370  0.00  0.00    -0.049 C 
ATOM      5  C   UNL     1      34.413  -6.990 -23.697  0.00  0.00    +0.020 C 
ATOM      6  C   UNL     1      34.029  -7.819 -22.473  0.00  0.00    +0.053 C 
ATOM      7  C   UNL     1      30.982  -5.015 -24.061  0.00  0.00    +0.007 C 
ATOM      8  C   UNL     1      33.094  -7.034 -21.549  0.00  0.00    -0.057 C 
ATOM      9  C   UNL     1      33.510  -5.551 -25.603  0.00  0.00    -0.023 C 
ATOM     10  C   UNL     1      32.579  -4.560 -25.940  0.00  0.00    +0.007 C 
ATOM     11  C   UNL     1      31.377  -4.246 -25.276  0.00  0.00    -0.009 C 
ATOM     12  C   UNL     1      32.735  -3.720 -27.025  0.00  0.00    +0.048 C 
ATOM     13  C   UNL     1      30.997  -5.915 -21.271  0.00  0.00    -0.100 C 
ATOM     14  C   UNL     1      34.615  -5.672 -26.454  0.00  0.00    -0.004 C 
ATOM     15  C   UNL     1      30.802  -3.206 -25.967  0.00  0.00    +0.057 C 
ATOM     16  C   UNL     1      33.843  -3.816 -27.866  0.00  0.00    +0.015 C 
ATOM     17  C   UNL     1      34.778  -4.815 -27.556  0.00  0.00    +0.001 C 
ATOM     18  H   UNL     1      31.386  -7.335 -22.665  0.00  0.00    -0.080 HD
ATOM     19  H   UNL     1      31.462  -2.180 -27.681  0.00  0.00    +0.152 HD
ENDROOT
BRANCH   6  21
ATOM     20  O   UNL     1      35.252  -9.788 -24.087  0.00  0.00    -0.253 OA
ATOM     21  N   UNL     1      33.441  -9.084 -22.859  0.00  0.00    -0.292 N 
ATOM     22  N   UNL     1      33.392 -11.175 -23.950  0.00  0.00    -0.264 N 
ATOM     23  C   UNL     1      34.113 -10.002 -23.660  0.00  0.00    +0.304 C 
ATOM     24  H   UNL     1      32.533  -9.302 -22.545  0.00  0.00    +0.151 HD
BRANCH  22  25
ATOM     25  C   UNL     1      33.942 -12.236 -24.783  0.00  0.00    +0.095 C 
ATOM     26  C   UNL     1      33.727 -11.954 -26.255  0.00  0.00    +0.023 C 
ENDBRANCH  22  25
BRANCH  22  27
ATOM     27  C   UNL     1      32.046 -11.404 -23.432  0.00  0.00    +0.095 C 
ATOM     28  C   UNL     1      32.052 -12.389 -22.282  0.00  0.00    +0.023 C 
ENDBRANCH  22  27
ENDBRANCH   6  21
TORSDOF 3
ENDMDL
MODEL 4
REMARK VINA RESULT:      -7.4      4.445      9.822
REMARK  Name = 443951
REMARK  3 active torsions:
REMARK  status: ('A' for Active; 'I' for Inactive)
REMARK    1  A    between atoms: C_6  and  N_21
REMARK    2  A    between atoms: N_22  and  C_25
REMARK    3  A    between atoms: N_22  and  C_27
REMARK                            x       y       z     vdW  Elec       q    Type
REMARK                         _______ _______ _______ _____ _____    ______ ____
ROOT
ATOM      1  N   UNL     1      31.168  -6.009 -22.031  0.00  0.00    +0.388 N 
ATOM      2  N   UNL     1      32.246  -3.379 -27.341  0.00  0.00    -0.312 N 
ATOM      3  C   UNL     1      32.859  -6.409 -23.855  0.00  0.00    +0.005 C 
ATOM      4  C   UNL     1      31.837  -5.379 -23.198  0.00  0.00    -0.049 C 
ATOM      5  C   UNL     1      33.870  -6.893 -22.803  0.00  0.00    +0.020 C 
ATOM      6  C   UNL     1      33.167  -7.432 -21.558  0.00  0.00    +0.053 C 
ATOM      7  C   UNL     1      30.805  -4.814 -24.248  0.00  0.00    +0.007 C 
ATOM      8  C   UNL     1      32.157  -6.418 -21.016  0.00  0.00    -0.057 C 
ATOM      9  C   UNL     1      33.516  -5.813 -25.089  0.00  0.00    -0.023 C 
ATOM     10  C   UNL     1      32.780  -4.852 -25.793  0.00  0.00    +0.007 C 
ATOM     11  C   UNL     1      31.510  -4.334 -25.471  0.00  0.00    -0.009 C 
ATOM     12  C   UNL     1      33.233  -4.259 -26.956  0.00  0.00    +0.048 C 
ATOM     13  C   UNL     1      30.175  -5.133 -21.402  0.00  0.00    -0.100 C 
ATOM     14  C   UNL     1      34.749  -6.174 -25.648  0.00  0.00    -0.004 C 
ATOM     15  C   UNL     1      31.194  -3.419 -26.448  0.00  0.00    +0.057 C 
ATOM     16  C   UNL     1      34.469  -4.595 -27.508  0.00  0.00    +0.015 C 
ATOM     17  C   UNL     1      35.215  -5.569 -26.827  0.00  0.00    +0.001 C 
ATOM     18  H   UNL     1      30.680  -6.827 -22.396  0.00  0.00    -0.080 HD
ATOM     19  H   UNL     1      32.284  -2.804 -28.140  0.00  0.00    +0.152 HD
ENDROOT
BRANCH   6  21
ATOM     20  O   UNL     1      32.398  -9.332 -19.613  0.00  0.00    -0.253 OA
ATOM     21  N   UNL     1      32.537  -8.708 -21.822  0.00  0.00    -0.292 N 
ATOM     22  N   UNL     1      31.595 -10.790 -21.236  0.00  0.00    -0.264 N 
ATOM     23  C   UNL     1      32.188  -9.590 -20.803  0.00  0.00    +0.304 C 
ATOM     24  H   UNL     1      32.349  -8.961 -22.755  0.00  0.00    +0.151 HD
BRANCH  22  25
ATOM     25  C   UNL     1      31.179 -11.828 -20.302  0.00  0.00    +0.095 C 
ATOM     26  C   UNL     1      32.140 -12.999 -20.307  0.00  0.00    +0.023 C 
ENDBRANCH  22  25
BRANCH  22  27
ATOM     27  C   UNL     1      31.359 -11.071 -22.649  0.00  0.00    +0.095 C 
ATOM     28  C   UNL     1      32.609 -11.589 -23.329  0.00  0.00    +0.023 C 
ENDBRANCH  22  27
ENDBRANCH   6  21
TORSDOF 3
ENDMDL
MODEL 5
REMARK VINA RESULT:      -6.9      9.094     13.585
REMARK  Name = 443951
REMARK  3 active torsions:
REMARK  status: ('A' for Active; 'I' for Inactive)
REMARK    1  A    between atoms: C_6  and  N_21
REMARK    2  A    between atoms: N_22  and  C_25
REMARK    3  A    between atoms: N_22  and  C_27
REMARK                            x       y       z     vdW  Elec       q    Type
REMARK                         _______ _______ _______ _____ _____    ______ ____
ROOT
ATOM      1  N   UNL     1      33.652 -23.910 -14.954  0.00  0.00    +0.388 N 
ATOM      2  N   UNL     1      33.832 -21.402 -20.427  0.00  0.00    -0.312 N 
ATOM      3  C   UNL     1      35.488 -22.862 -16.324  0.00  0.00    +0.005 C 
ATOM      4  C   UNL     1      33.918 -22.993 -16.091  0.00  0.00    -0.049 C 
ATOM      5  C   UNL     1      36.176 -22.392 -15.032  0.00  0.00    +0.020 C 
ATOM      6  C   UNL     1      35.800 -23.277 -13.844  0.00  0.00    +0.053 C 
ATOM      7  C   UNL     1      33.157 -23.427 -17.403  0.00  0.00    +0.007 C 
ATOM      8  C   UNL     1      34.280 -23.409 -13.717  0.00  0.00    -0.057 C 
ATOM      9  C   UNL     1      35.791 -21.976 -17.521  0.00  0.00    -0.023 C 
ATOM     10  C   UNL     1      34.823 -21.931 -18.532  0.00  0.00    +0.007 C 
ATOM     11  C   UNL     1      33.572 -22.577 -18.556  0.00  0.00    -0.009 C 
ATOM     12  C   UNL     1      34.983 -21.203 -19.695  0.00  0.00    +0.048 C 
ATOM     13  C   UNL     1      32.221 -24.115 -14.711  0.00  0.00    -0.100 C 
ATOM     14  C   UNL     1      36.967 -21.256 -17.764  0.00  0.00    -0.004 C 
ATOM     15  C   UNL     1      32.971 -22.237 -19.745  0.00  0.00    +0.057 C 
ATOM     16  C   UNL     1      36.141 -20.465 -19.937  0.00  0.00    +0.015 C 
ATOM     17  C   UNL     1      37.131 -20.512 -18.944  0.00  0.00    +0.001 C 
ATOM     18  H   UNL     1      34.059 -24.807 -15.217  0.00  0.00    -0.080 HD
ATOM     19  H   UNL     1      33.650 -21.006 -21.310  0.00  0.00    +0.152 HD
ENDROOT
BRANCH   6  21
ATOM     20  O   UNL     1      38.543 -23.817 -13.436  0.00  0.00    -0.253 OA
ATOM     21  N   UNL     1      36.431 -24.576 -13.938  0.00  0.00    -0.292 N 
ATOM     22  N   UNL     1      38.246 -26.083 -13.863  0.00  0.00    -0.264 N 
ATOM     23  C   UNL     1      37.795 -24.757 -13.721  0.00  0.00    +0.304 C 
ATOM     24  H   UNL     1      35.878 -25.359 -14.163  0.00  0.00    +0.151 HD
BRANCH  22  25
ATOM     25  C   UNL     1      39.644 -26.448 -13.681  0.00  0.00    +0.095 C 
ATOM     26  C   UNL     1      40.504 -25.936 -14.818  0.00  0.00    +0.023 C 
ENDBRANCH  22  25
BRANCH  22  27
ATOM     27  C   UNL     1      37.339 -27.177 -14.201  0.00  0.00    +0.095 C 
ATOM     28  C   UNL     1      36.830 -27.057 -15.622  0.00  0.00    +0.023 C 
ENDBRANCH  22  27
ENDBRANCH   6  21
TORSDOF 3
ENDMDL
MODEL 6
REMARK VINA RESULT:      -6.7      3.536      9.666
REMARK  Name = 443951
REMARK  3 active torsions:
REMARK  status: ('A' for Active; 'I' for Inactive)
REMARK    1  A    between atoms: C_6  and  N_21
REMARK    2  A    between atoms: N_22  and  C_25
REMARK    3  A    between atoms: N_22  and  C_27
REMARK                            x       y       z     vdW  Elec       q    Type
REMARK                         _______ _______ _______ _____ _____    ______ ____
ROOT
ATOM      1  N   UNL     1      32.487  -7.806 -23.082  0.00  0.00    +0.388 N 
ATOM      2  N   UNL     1      31.427  -2.905 -26.418  0.00  0.00    -0.312 N 
ATOM      3  C   UNL     1      33.652  -6.766 -25.058  0.00  0.00    +0.005 C 
ATOM      4  C   UNL     1      32.646  -6.542 -23.845  0.00  0.00    -0.049 C 
ATOM      5  C   UNL     1      34.997  -7.298 -24.538  0.00  0.00    +0.020 C 
ATOM      6  C   UNL     1      34.808  -8.533 -23.658  0.00  0.00    +0.053 C 
ATOM      7  C   UNL     1      31.263  -5.951 -24.321  0.00  0.00    +0.007 C 
ATOM      8  C   UNL     1      33.784  -8.267 -22.551  0.00  0.00    -0.057 C 
ATOM      9  C   UNL     1      33.789  -5.504 -25.894  0.00  0.00    -0.023 C 
ATOM     10  C   UNL     1      32.688  -4.639 -25.913  0.00  0.00    +0.007 C 
ATOM     11  C   UNL     1      31.475  -4.774 -25.211  0.00  0.00    -0.009 C 
ATOM     12  C   UNL     1      32.656  -3.478 -26.663  0.00  0.00    +0.048 C 
ATOM     13  C   UNL     1      31.535  -7.687 -21.974  0.00  0.00    -0.100 C 
ATOM     14  C   UNL     1      34.868  -5.145 -26.712  0.00  0.00    -0.004 C 
ATOM     15  C   UNL     1      30.702  -3.685 -25.540  0.00  0.00    +0.057 C 
ATOM     16  C   UNL     1      33.733  -3.100 -27.463  0.00  0.00    +0.015 C 
ATOM     17  C   UNL     1      34.839  -3.964 -27.472  0.00  0.00    +0.001 C 
ATOM     18  H   UNL     1      32.116  -8.488 -23.744  0.00  0.00    -0.080 HD
ATOM     19  H   UNL     1      31.111  -2.060 -26.812  0.00  0.00    +0.152 HD
ENDROOT
BRANCH   6  21
ATOM     20  O   UNL     1      33.577 -10.880 -22.679  0.00  0.00    -0.253 OA
ATOM     21  N   UNL     1      34.437  -9.687 -24.447  0.00  0.00    -0.292 N 
ATOM     22  N   UNL     1      33.547 -11.845 -24.793  0.00  0.00    -0.264 N 
ATOM     23  C   UNL     1      33.831 -10.808 -23.885  0.00  0.00    +0.304 C 
ATOM     24  H   UNL     1      34.619  -9.680 -25.415  0.00  0.00    +0.151 HD
BRANCH  22  25
ATOM     25  C   UNL     1      32.924 -13.093 -24.372  0.00  0.00    +0.095 C 
ATOM     26  C   UNL     1      33.901 -13.977 -23.625  0.00  0.00    +0.023 C 
ENDBRANCH  22  25
BRANCH  22  27
ATOM     27  C   UNL     1      33.858 -11.736 -26.216  0.00  0.00    +0.095 C 
ATOM     28  C   UNL     1      33.385 -12.952 -26.983  0.00  0.00    +0.023 C 
ENDBRANCH  22  27
ENDBRANCH   6  21
TORSDOF 3
ENDMDL
