MODEL 1
REMARK VINA RESULT:      -7.2      0.000      0.000
REMARK  Name = 4039
REMARK  7 active torsions:
REMARK  status: ('A' for Active; 'I' for Inactive)
REMARK    1  A    between atoms: C_1  and  C_3
REMARK    2  A    between atoms: C_1  and  O_11
REMARK    3  A    between atoms: C_3  and  O_4
REMARK    4  A    between atoms: O_4  and  C_5
REMARK    5  A    between atoms: C_5  and  C_6
REMARK    6  A    between atoms: C_6  and  N_7
REMARK    7  A    between atoms: O_11  and  C_13
REMARK                            x       y       z     vdW  Elec       q    Type
REMARK                         _______ _______ _______ _____ _____    ______ ____
ROOT
ATOM      1  C   UNL     1      34.987 -18.633 -23.692  0.00  0.00    +0.314 C 
ENDROOT
BRANCH   1   3
ATOM      2  O   UNL     1      34.552 -17.420 -25.746  0.00  0.00    -0.246 OA
ATOM      3  C   UNL     1      34.764 -17.409 -24.540  0.00  0.00    +0.362 C 
BRANCH   3   4
ATOM      4  O   UNL     1      34.833 -16.292 -23.752  0.00  0.00    -0.448 OA
BRANCH   4   5
ATOM      5  C   UNL     1      33.847 -15.298 -23.996  0.00  0.00    +0.186 C 
BRANCH   5   6
ATOM      6  C   UNL     1      33.479 -14.639 -22.675  0.00  0.00    -0.029 C 
BRANCH   6   7
ATOM      7  N   UNL     1      33.668 -15.570 -21.564  0.00  0.00    +0.387 N 
ATOM      8  C   UNL     1      32.388 -15.877 -20.929  0.00  0.00    -0.101 C 
ATOM      9  C   UNL     1      34.604 -15.016 -20.586  0.00  0.00    -0.101 C 
ATOM     10  H   UNL     1      34.062 -16.437 -21.932  0.00  0.00    -0.080 HD
ENDBRANCH   6   7
ENDBRANCH   5   6
ENDBRANCH   4   5
ENDBRANCH   3   4
ENDBRANCH   1   3
BRANCH   1  11
ATOM     11  O   UNL     1      34.800 -18.288 -22.333  0.00  0.00    -0.464 OA
BRANCH  11  13
ATOM     12 CL   UNL     1      33.854 -22.575 -18.434  0.00  0.00    -0.082 Cl
ATOM     13  C   UNL     1      34.583 -19.272 -21.436  0.00  0.00    +0.139 C 
ATOM     14  C   UNL     1      35.659 -19.982 -20.887  0.00  0.00    +0.038 C 
ATOM     15  C   UNL     1      33.279 -19.599 -21.044  0.00  0.00    +0.038 C 
ATOM     16  C   UNL     1      35.434 -21.000 -19.960  0.00  0.00    +0.015 C 
ATOM     17  C   UNL     1      33.054 -20.617 -20.117  0.00  0.00    +0.015 C 
ATOM     18  C   UNL     1      34.131 -21.319 -19.576  0.00  0.00    +0.058 C 
ENDBRANCH  11  13
ENDBRANCH   1  11
TORSDOF 7
ENDMDL
MODEL 2
REMARK VINA RESULT:      -7.2      1.673      2.788
REMARK  Name = 4039
REMARK  7 active torsions:
REMARK  status: ('A' for Active; 'I' for Inactive)
REMARK    1  A    between atoms: C_1  and  C_3
REMARK    2  A    between atoms: C_1  and  O_11
REMARK    3  A    between atoms: C_3  and  O_4
REMARK    4  A    between atoms: O_4  and  C_5
REMARK    5  A    between atoms: C_5  and  C_6
REMARK    6  A    between atoms: C_6  and  N_7
REMARK    7  A    between atoms: O_11  and  C_13
REMARK                            x       y       z     vdW  Elec       q    Type
REMARK                         _______ _______ _______ _____ _____    ______ ____
ROOT
ATOM      1  C   UNL     1      35.346 -17.388 -21.441  0.00  0.00    +0.314 C 
ENDROOT
BRANCH   1   3
ATOM      2  O   UNL     1      34.883 -15.401 -20.131  0.00  0.00    -0.246 OA
ATOM      3  C   UNL     1      34.581 -16.151 -21.051  0.00  0.00    +0.362 C 
BRANCH   3   4
ATOM      4  O   UNL     1      33.505 -16.001 -21.883  0.00  0.00    -0.448 OA
BRANCH   4   5
ATOM      5  C   UNL     1      33.361 -14.722 -22.486  0.00  0.00    +0.186 C 
BRANCH   5   6
ATOM      6  C   UNL     1      34.172 -14.693 -23.772  0.00  0.00    -0.029 C 
BRANCH   6   7
ATOM      7  N   UNL     1      33.694 -15.710 -24.707  0.00  0.00    +0.387 N 
ATOM      8  C   UNL     1      34.773 -16.631 -25.060  0.00  0.00    -0.101 C 
ATOM      9  C   UNL     1      33.144 -15.082 -25.908  0.00  0.00    -0.101 C 
ATOM     10  H   UNL     1      32.950 -16.242 -24.253  0.00  0.00    -0.080 HD
ENDBRANCH   6   7
ENDBRANCH   5   6
ENDBRANCH   4   5
ENDBRANCH   3   4
ENDBRANCH   1   3
BRANCH   1  11
ATOM     11  O   UNL     1      34.426 -18.393 -21.821  0.00  0.00    -0.464 OA
BRANCH  11  13
ATOM     12 CL   UNL     1      33.663 -23.020 -18.288  0.00  0.00    -0.082 Cl
ATOM     13  C   UNL     1      34.251 -19.455 -21.008  0.00  0.00    +0.139 C 
ATOM     14  C   UNL     1      35.350 -20.215 -20.587  0.00  0.00    +0.038 C 
ATOM     15  C   UNL     1      32.968 -19.813 -20.576  0.00  0.00    +0.038 C 
ATOM     16  C   UNL     1      35.169 -21.315 -19.747  0.00  0.00    +0.015 C 
ATOM     17  C   UNL     1      32.786 -20.913 -19.736  0.00  0.00    +0.015 C 
ATOM     18  C   UNL     1      33.887 -21.664 -19.322  0.00  0.00    +0.058 C 
ENDBRANCH  11  13
ENDBRANCH   1  11
TORSDOF 7
ENDMDL
MODEL 3
REMARK VINA RESULT:      -7.1      5.921      8.954
REMARK  Name = 4039
REMARK  7 active torsions:
REMARK  status: ('A' for Active; 'I' for Inactive)
REMARK    1  A    between atoms: C_1  and  C_3
REMARK    2  A    between atoms: C_1  and  O_11
REMARK    3  A    between atoms: C_3  and  O_4
REMARK    4  A    between atoms: O_4  and  C_5
REMARK    5  A    between atoms: C_5  and  C_6
REMARK    6  A    between atoms: C_6  and  N_7
REMARK    7  A    between atoms: O_11  and  C_13
REMARK                            x       y       z     vdW  Elec       q    Type
REMARK                         _______ _______ _______ _____ _____    ______ ____
ROOT
ATOM      1  C   UNL     1      33.482 -23.113 -17.598  0.00  0.00    +0.314 C 
ENDROOT
BRANCH   1   3
ATOM      2  O   UNL     1      33.258 -23.288 -15.190  0.00  0.00    -0.246 OA
ATOM      3  C   UNL     1      33.938 -23.432 -16.199  0.00  0.00    +0.362 C 
BRANCH   3   4
ATOM      4  O   UNL     1      35.221 -23.906 -16.236  0.00  0.00    -0.448 OA
BRANCH   4   5
ATOM      5  C   UNL     1      35.673 -24.565 -15.061  0.00  0.00    +0.186 C 
BRANCH   5   6
ATOM      6  C   UNL     1      37.178 -24.375 -14.942  0.00  0.00    -0.029 C 
BRANCH   6   7
ATOM      7  N   UNL     1      37.883 -25.603 -15.307  0.00  0.00    +0.387 N 
ATOM      8  C   UNL     1      37.142 -26.776 -14.847  0.00  0.00    -0.101 C 
ATOM      9  C   UNL     1      39.235 -25.601 -14.748  0.00  0.00    -0.101 C 
ATOM     10  H   UNL     1      37.955 -25.644 -16.324  0.00  0.00    -0.080 HD
ENDBRANCH   6   7
ENDBRANCH   5   6
ENDBRANCH   4   5
ENDBRANCH   3   4
ENDBRANCH   1   3
BRANCH   1  11
ATOM     11  O   UNL     1      34.618 -22.854 -18.401  0.00  0.00    -0.464 OA
BRANCH  11  13
ATOM     12 CL   UNL     1      34.489 -18.294 -22.096  0.00  0.00    -0.082 Cl
ATOM     13  C   UNL     1      34.588 -21.808 -19.251  0.00  0.00    +0.139 C 
ATOM     14  C   UNL     1      35.778 -21.288 -19.778  0.00  0.00    +0.038 C 
ATOM     15  C   UNL     1      33.368 -21.225 -19.616  0.00  0.00    +0.038 C 
ATOM     16  C   UNL     1      35.747 -20.204 -20.656  0.00  0.00    +0.015 C 
ATOM     17  C   UNL     1      33.337 -20.141 -20.494  0.00  0.00    +0.015 C 
ATOM     18  C   UNL     1      34.526 -19.630 -21.014  0.00  0.00    +0.058 C 
ENDBRANCH  11  13
ENDBRANCH   1  11
TORSDOF 7
ENDMDL
MODEL 4
REMARK VINA RESULT:      -7.1      1.380      2.224
REMARK  Name = 4039
REMARK  7 active torsions:
REMARK  status: ('A' for Active; 'I' for Inactive)
REMARK    1  A    between atoms: C_1  and  C_3
REMARK    2  A    between atoms: C_1  and  O_11
REMARK    3  A    between atoms: C_3  and  O_4
REMARK    4  A    between atoms: O_4  and  C_5
REMARK    5  A    between atoms: C_5  and  C_6
REMARK    6  A    between atoms: C_6  and  N_7
REMARK    7  A    between atoms: O_11  and  C_13
REMARK                            x       y       z     vdW  Elec       q    Type
REMARK                         _______ _______ _______ _____ _____    ______ ____
ROOT
ATOM      1  C   UNL     1      35.215 -18.958 -23.594  0.00  0.00    +0.314 C 
ENDROOT
BRANCH   1   3
ATOM      2  O   UNL     1      34.665 -17.540 -25.482  0.00  0.00    -0.246 OA
ATOM      3  C   UNL     1      34.737 -17.700 -24.270  0.00  0.00    +0.362 C 
BRANCH   3   4
ATOM      4  O   UNL     1      34.399 -16.775 -23.320  0.00  0.00    -0.448 OA
BRANCH   4   5
ATOM      5  C   UNL     1      34.575 -15.414 -23.690  0.00  0.00    +0.186 C 
BRANCH   5   6
ATOM      6  C   UNL     1      33.345 -14.628 -23.263  0.00  0.00    -0.029 C 
BRANCH   6   7
ATOM      7  N   UNL     1      32.914 -13.726 -24.331  0.00  0.00    +0.387 N 
ATOM      8  C   UNL     1      33.005 -14.390 -25.630  0.00  0.00    -0.101 C 
ATOM      9  C   UNL     1      33.718 -12.505 -24.324  0.00  0.00    -0.101 C 
ATOM     10  H   UNL     1      31.939 -13.472 -24.165  0.00  0.00    -0.080 HD
ENDBRANCH   6   7
ENDBRANCH   5   6
ENDBRANCH   4   5
ENDBRANCH   3   4
ENDBRANCH   1   3
BRANCH   1  11
ATOM     11  O   UNL     1      35.384 -18.699 -22.214  0.00  0.00    -0.464 OA
BRANCH  11  13
ATOM     12 CL   UNL     1      33.181 -22.507 -18.325  0.00  0.00    -0.082 Cl
ATOM     13  C   UNL     1      34.877 -19.575 -21.321  0.00  0.00    +0.139 C 
ATOM     14  C   UNL     1      33.498 -19.625 -21.081  0.00  0.00    +0.038 C 
ATOM     15  C   UNL     1      35.724 -20.444 -20.622  0.00  0.00    +0.038 C 
ATOM     16  C   UNL     1      32.975 -20.530 -20.156  0.00  0.00    +0.015 C 
ATOM     17  C   UNL     1      35.201 -21.349 -19.698  0.00  0.00    +0.015 C 
ATOM     18  C   UNL     1      33.826 -21.392 -19.465  0.00  0.00    +0.058 C 
ENDBRANCH  11  13
ENDBRANCH   1  11
TORSDOF 7
ENDMDL
MODEL 5
REMARK VINA RESULT:      -7.1      6.617      9.628
REMARK  Name = 4039
REMARK  7 active torsions:
REMARK  status: ('A' for Active; 'I' for Inactive)
REMARK    1  A    between atoms: C_1  and  C_3
REMARK    2  A    between atoms: C_1  and  O_11
REMARK    3  A    between atoms: C_3  and  O_4
REMARK    4  A    between atoms: O_4  and  C_5
REMARK    5  A    between atoms: C_5  and  C_6
REMARK    6  A    between atoms: C_6  and  N_7
REMARK    7  A    between atoms: O_11  and  C_13
REMARK                            x       y       z     vdW  Elec       q    Type
REMARK                         _______ _______ _______ _____ _____    ______ ____
ROOT
ATOM      1  C   UNL     1      35.261 -22.740 -16.070  0.00  0.00    +0.314 C 
ENDROOT
BRANCH   1   3
ATOM      2  O   UNL     1      37.574 -22.791 -15.343  0.00  0.00    -0.246 OA
ATOM      3  C   UNL     1      36.555 -23.392 -15.661  0.00  0.00    +0.362 C 
BRANCH   3   4
ATOM      4  O   UNL     1      36.410 -24.753 -15.699  0.00  0.00    -0.448 OA
BRANCH   4   5
ATOM      5  C   UNL     1      36.471 -25.419 -14.445  0.00  0.00    +0.186 C 
BRANCH   5   6
ATOM      6  C   UNL     1      37.522 -26.516 -14.525  0.00  0.00    -0.029 C 
BRANCH   6   7
ATOM      7  N   UNL     1      38.696 -26.165 -13.727  0.00  0.00    +0.387 N 
ATOM      8  C   UNL     1      38.338 -25.206 -12.683  0.00  0.00    -0.101 C 
ATOM      9  C   UNL     1      39.750 -25.619 -14.583  0.00  0.00    -0.101 C 
ATOM     10  H   UNL     1      39.049 -27.012 -13.281  0.00  0.00    -0.080 HD
ENDBRANCH   6   7
ENDBRANCH   5   6
ENDBRANCH   4   5
ENDBRANCH   3   4
ENDBRANCH   1   3
BRANCH   1  11
ATOM     11  O   UNL     1      34.904 -23.201 -17.358  0.00  0.00    -0.464 OA
BRANCH  11  13
ATOM     12 CL   UNL     1      34.454 -19.307 -21.729  0.00  0.00    -0.082 Cl
ATOM     13  C   UNL     1      34.801 -22.308 -18.363  0.00  0.00    +0.139 C 
ATOM     14  C   UNL     1      35.947 -21.702 -18.895  0.00  0.00    +0.038 C 
ATOM     15  C   UNL     1      33.546 -21.972 -18.887  0.00  0.00    +0.038 C 
ATOM     16  C   UNL     1      35.840 -20.777 -19.934  0.00  0.00    +0.015 C 
ATOM     17  C   UNL     1      33.439 -21.046 -19.926  0.00  0.00    +0.015 C 
ATOM     18  C   UNL     1      34.586 -20.448 -20.449  0.00  0.00    +0.058 C 
ENDBRANCH  11  13
ENDBRANCH   1  11
TORSDOF 7
ENDMDL
MODEL 6
REMARK VINA RESULT:      -7.1      5.717      8.631
REMARK  Name = 4039
REMARK  7 active torsions:
REMARK  status: ('A' for Active; 'I' for Inactive)
REMARK    1  A    between atoms: C_1  and  C_3
REMARK    2  A    between atoms: C_1  and  O_11
REMARK    3  A    between atoms: C_3  and  O_4
REMARK    4  A    between atoms: O_4  and  C_5
REMARK    5  A    between atoms: C_5  and  C_6
REMARK    6  A    between atoms: C_6  and  N_7
REMARK    7  A    between atoms: O_11  and  C_13
REMARK                            x       y       z     vdW  Elec       q    Type
REMARK                         _______ _______ _______ _____ _____    ______ ____
ROOT
ATOM      1  C   UNL     1      33.400 -23.168 -17.779  0.00  0.00    +0.314 C 
ENDROOT
BRANCH   1   3
ATOM      2  O   UNL     1      31.240 -22.924 -16.706  0.00  0.00    -0.246 OA
ATOM      3  C   UNL     1      32.428 -23.209 -16.630  0.00  0.00    +0.362 C 
BRANCH   3   4
ATOM      4  O   UNL     1      33.082 -23.614 -15.497  0.00  0.00    -0.448 OA
BRANCH   4   5
ATOM      5  C   UNL     1      34.499 -23.668 -15.585  0.00  0.00    +0.186 C 
BRANCH   5   6
ATOM      6  C   UNL     1      35.074 -23.741 -14.178  0.00  0.00    -0.029 C 
BRANCH   6   7
ATOM      7  N   UNL     1      35.510 -25.102 -13.870  0.00  0.00    +0.387 N 
ATOM      8  C   UNL     1      36.355 -25.112 -12.677  0.00  0.00    -0.101 C 
ATOM      9  C   UNL     1      36.226 -25.680 -15.007  0.00  0.00    -0.101 C 
ATOM     10  H   UNL     1      34.684 -25.673 -13.686  0.00  0.00    -0.080 HD
ENDBRANCH   6   7
ENDBRANCH   5   6
ENDBRANCH   4   5
ENDBRANCH   3   4
ENDBRANCH   1   3
BRANCH   1  11
ATOM     11  O   UNL     1      32.843 -22.392 -18.822  0.00  0.00    -0.464 OA
BRANCH  11  13
ATOM     12 CL   UNL     1      36.291 -18.598 -21.683  0.00  0.00    -0.082 Cl
ATOM     13  C   UNL     1      33.635 -21.522 -19.480  0.00  0.00    +0.139 C 
ATOM     14  C   UNL     1      35.029 -21.659 -19.439  0.00  0.00    +0.038 C 
ATOM     15  C   UNL     1      33.075 -20.467 -20.213  0.00  0.00    +0.038 C 
ATOM     16  C   UNL     1      35.848 -20.757 -20.119  0.00  0.00    +0.015 C 
ATOM     17  C   UNL     1      33.894 -19.565 -20.893  0.00  0.00    +0.015 C 
ATOM     18  C   UNL     1      35.281 -19.710 -20.846  0.00  0.00    +0.058 C 
ENDBRANCH  11  13
ENDBRANCH   1  11
TORSDOF 7
ENDMDL
MODEL 7
REMARK VINA RESULT:      -7.1      5.585      8.284
REMARK  Name = 4039
REMARK  7 active torsions:
REMARK  status: ('A' for Active; 'I' for Inactive)
REMARK    1  A    between atoms: C_1  and  C_3
REMARK    2  A    between atoms: C_1  and  O_11
REMARK    3  A    between atoms: C_3  and  O_4
REMARK    4  A    between atoms: O_4  and  C_5
REMARK    5  A    between atoms: C_5  and  C_6
REMARK    6  A    between atoms: C_6  and  N_7
REMARK    7  A    between atoms: O_11  and  C_13
REMARK                            x       y       z     vdW  Elec       q    Type
REMARK                         _______ _______ _______ _____ _____    ______ ____
ROOT
ATOM      1  C   UNL     1      33.576 -23.265 -18.008  0.00  0.00    +0.314 C 
ENDROOT
BRANCH   1   3
ATOM      2  O   UNL     1      33.777 -23.213 -15.593  0.00  0.00    -0.246 OA
ATOM      3  C   UNL     1      33.070 -23.192 -16.592  0.00  0.00    +0.362 C 
BRANCH   3   4
ATOM      4  O   UNL     1      31.704 -23.099 -16.603  0.00  0.00    -0.448 OA
BRANCH   4   5
ATOM      5  C   UNL     1      31.052 -23.402 -15.377  0.00  0.00    +0.186 C 
BRANCH   5   6
ATOM      6  C   UNL     1      29.675 -22.756 -15.383  0.00  0.00    -0.029 C 
BRANCH   6   7
ATOM      7  N   UNL     1      28.630 -23.772 -15.496  0.00  0.00    +0.387 N 
ATOM      8  C   UNL     1      29.057 -25.019 -14.864  0.00  0.00    -0.101 C 
ATOM      9  C   UNL     1      28.290 -24.002 -16.900  0.00  0.00    -0.101 C 
ATOM     10  H   UNL     1      27.796 -23.434 -15.014  0.00  0.00    -0.080 HD
ENDBRANCH   6   7
ENDBRANCH   5   6
ENDBRANCH   4   5
ENDBRANCH   3   4
ENDBRANCH   1   3
BRANCH   1  11
ATOM     11  O   UNL     1      32.874 -22.322 -18.794  0.00  0.00    -0.464 OA
BRANCH  11  13
ATOM     12 CL   UNL     1      35.934 -18.451 -21.977  0.00  0.00    -0.082 Cl
ATOM     13  C   UNL     1      33.577 -21.433 -19.526  0.00  0.00    +0.139 C 
ATOM     14  C   UNL     1      34.976 -21.495 -19.565  0.00  0.00    +0.038 C 
ATOM     15  C   UNL     1      32.918 -20.437 -20.256  0.00  0.00    +0.038 C 
ATOM     16  C   UNL     1      35.703 -20.575 -20.321  0.00  0.00    +0.015 C 
ATOM     17  C   UNL     1      33.644 -19.517 -21.013  0.00  0.00    +0.015 C 
ATOM     18  C   UNL     1      35.037 -19.585 -21.045  0.00  0.00    +0.058 C 
ENDBRANCH  11  13
ENDBRANCH   1  11
TORSDOF 7
ENDMDL
MODEL 8
REMARK VINA RESULT:      -7.0      1.563      2.438
REMARK  Name = 4039
REMARK  7 active torsions:
REMARK  status: ('A' for Active; 'I' for Inactive)
REMARK    1  A    between atoms: C_1  and  C_3
REMARK    2  A    between atoms: C_1  and  O_11
REMARK    3  A    between atoms: C_3  and  O_4
REMARK    4  A    between atoms: O_4  and  C_5
REMARK    5  A    between atoms: C_5  and  C_6
REMARK    6  A    between atoms: C_6  and  N_7
REMARK    7  A    between atoms: O_11  and  C_13
REMARK                            x       y       z     vdW  Elec       q    Type
REMARK                         _______ _______ _______ _____ _____    ______ ____
ROOT
ATOM      1  C   UNL     1      34.646 -18.164 -22.173  0.00  0.00    +0.314 C 
ENDROOT
BRANCH   1   3
ATOM      2  O   UNL     1      35.150 -16.523 -20.461  0.00  0.00    -0.246 OA
ATOM      3  C   UNL     1      35.074 -16.819 -21.646  0.00  0.00    +0.362 C 
BRANCH   3   4
ATOM      4  O   UNL     1      35.363 -15.991 -22.697  0.00  0.00    -0.448 OA
BRANCH   4   5
ATOM      5  C   UNL     1      34.245 -15.510 -23.432  0.00  0.00    +0.186 C 
BRANCH   5   6
ATOM      6  C   UNL     1      34.041 -14.039 -23.104  0.00  0.00    -0.029 C 
BRANCH   6   7
ATOM      7  N   UNL     1      32.673 -13.799 -22.646  0.00  0.00    +0.387 N 
ATOM      8  C   UNL     1      32.347 -12.376 -22.731  0.00  0.00    -0.101 C 
ATOM      9  C   UNL     1      32.500 -14.281 -21.276  0.00  0.00    -0.101 C 
ATOM     10  H   UNL     1      32.034 -14.314 -23.253  0.00  0.00    -0.080 HD
ENDBRANCH   6   7
ENDBRANCH   5   6
ENDBRANCH   4   5
ENDBRANCH   3   4
ENDBRANCH   1   3
BRANCH   1  11
ATOM     11  O   UNL     1      35.527 -19.151 -21.674  0.00  0.00    -0.464 OA
BRANCH  11  13
ATOM     12 CL   UNL     1      33.459 -23.142 -17.897  0.00  0.00    -0.082 Cl
ATOM     13  C   UNL     1      35.051 -20.069 -20.808  0.00  0.00    +0.139 C 
ATOM     14  C   UNL     1      33.675 -20.175 -20.571  0.00  0.00    +0.038 C 
ATOM     15  C   UNL     1      35.928 -20.927 -20.131  0.00  0.00    +0.038 C 
ATOM     16  C   UNL     1      33.183 -21.124 -19.673  0.00  0.00    +0.015 C 
ATOM     17  C   UNL     1      35.437 -21.875 -19.234  0.00  0.00    +0.015 C 
ATOM     18  C   UNL     1      34.065 -21.974 -19.004  0.00  0.00    +0.058 C 
ENDBRANCH  11  13
ENDBRANCH   1  11
TORSDOF 7
ENDMDL
MODEL 9
REMARK VINA RESULT:      -7.0      2.978      4.189
REMARK  Name = 4039
REMARK  7 active torsions:
REMARK  status: ('A' for Active; 'I' for Inactive)
REMARK    1  A    between atoms: C_1  and  C_3
REMARK    2  A    between atoms: C_1  and  O_11
REMARK    3  A    between atoms: C_3  and  O_4
REMARK    4  A    between atoms: O_4  and  C_5
REMARK    5  A    between atoms: C_5  and  C_6
REMARK    6  A    between atoms: C_6  and  N_7
REMARK    7  A    between atoms: O_11  and  C_13
REMARK                            x       y       z     vdW  Elec       q    Type
REMARK                         _______ _______ _______ _____ _____    ______ ____
ROOT
ATOM      1  C   UNL     1      33.051 -15.081 -25.883  0.00  0.00    +0.314 C 
ENDROOT
BRANCH   1   3
ATOM      2  O   UNL     1      33.817 -13.710 -27.730  0.00  0.00    -0.246 OA
ATOM      3  C   UNL     1      33.450 -13.799 -26.565  0.00  0.00    +0.362 C 
BRANCH   3   4
ATOM      4  O   UNL     1      33.336 -12.760 -25.681  0.00  0.00    -0.448 OA
BRANCH   4   5
ATOM      5  C   UNL     1      33.690 -13.049 -24.335  0.00  0.00    +0.186 C 
BRANCH   5   6
ATOM      6  C   UNL     1      32.969 -12.072 -23.419  0.00  0.00    -0.029 C 
BRANCH   6   7
ATOM      7  N   UNL     1      31.957 -12.764 -22.622  0.00  0.00    +0.387 N 
ATOM      8  C   UNL     1      31.497 -11.912 -21.527  0.00  0.00    -0.101 C 
ATOM      9  C   UNL     1      32.489 -14.023 -22.101  0.00  0.00    -0.101 C 
ATOM     10  H   UNL     1      31.160 -12.975 -23.224  0.00  0.00    -0.080 HD
ENDBRANCH   6   7
ENDBRANCH   5   6
ENDBRANCH   4   5
ENDBRANCH   3   4
ENDBRANCH   1   3
BRANCH   1  11
ATOM     11  O   UNL     1      34.080 -16.035 -26.064  0.00  0.00    -0.464 OA
BRANCH  11  13
ATOM     12 CL   UNL     1      35.687 -19.363 -21.503  0.00  0.00    -0.082 Cl
ATOM     13  C   UNL     1      34.450 -16.800 -25.017  0.00  0.00    +0.139 C 
ATOM     14  C   UNL     1      34.376 -18.196 -25.097  0.00  0.00    +0.038 C 
ATOM     15  C   UNL     1      34.913 -16.207 -23.835  0.00  0.00    +0.038 C 
ATOM     16  C   UNL     1      34.758 -18.987 -24.013  0.00  0.00    +0.015 C 
ATOM     17  C   UNL     1      35.294 -16.998 -22.751  0.00  0.00    +0.015 C 
ATOM     18  C   UNL     1      35.217 -18.388 -22.839  0.00  0.00    +0.058 C 
ENDBRANCH  11  13
ENDBRANCH   1  11
TORSDOF 7
ENDMDL
