MODEL 1
REMARK VINA RESULT:      -7.0      0.000      0.000
REMARK  Name = 9942725
REMARK  4 active torsions:
REMARK  status: ('A' for Active; 'I' for Inactive)
REMARK    1  A    between atoms: N_2  and  C_11
REMARK    2  A    between atoms: C_3  and  C_9
REMARK    3  A    between atoms: C_11  and  C_14
REMARK    4  A    between atoms: C_11  and  C_17
REMARK                            x       y       z     vdW  Elec       q    Type
REMARK                         _______ _______ _______ _____ _____    ______ ____
ROOT
ATOM      1  O   UNL     1      34.542 -19.379 -24.042  0.00  0.00    -0.275 OA
ATOM      2  N   UNL     1      34.861 -18.751 -21.797  0.00  0.00    -0.273 N 
ATOM      3  C   UNL     1      34.998 -16.435 -22.072  0.00  0.00    +0.056 C 
ATOM      4  C   UNL     1      35.260 -17.561 -21.080  0.00  0.00    +0.099 C 
ATOM      5  C   UNL     1      35.160 -17.114 -23.437  0.00  0.00    +0.091 C 
ATOM      6  C   UNL     1      34.795 -18.557 -23.174  0.00  0.00    +0.226 C 
ENDROOT
BRANCH   3   9
ATOM      7  F   UNL     1      32.023 -14.177 -22.021  0.00  0.00    -0.172 F 
ATOM      8  F   UNL     1      34.197 -13.759 -22.761  0.00  0.00    -0.172 F 
ATOM      9  C   UNL     1      33.628 -15.851 -21.894  0.00  0.00    +0.036 C 
ATOM     10  C   UNL     1      33.289 -14.601 -22.225  0.00  0.00    +0.275 C 
ENDBRANCH   3   9
BRANCH   2  11
ATOM     11  C   UNL     1      34.687 -20.019 -21.121  0.00  0.00    +0.151 C 
BRANCH  11  14
ATOM     12  O   UNL     1      32.458 -19.169 -20.665  0.00  0.00    -0.274 OA
ATOM     13  N   UNL     1      33.004 -21.269 -19.912  0.00  0.00    -0.327 N 
ATOM     14  C   UNL     1      33.271 -20.085 -20.567  0.00  0.00    +0.237 C 
ATOM     15  H   UNL     1      32.117 -21.421 -19.512  0.00  0.00    +0.145 HD
ATOM     16  H   UNL     1      33.700 -21.961 -19.844  0.00  0.00    +0.145 HD
ENDBRANCH  11  14
BRANCH  11  17
ATOM     17  C   UNL     1      35.756 -20.255 -20.050  0.00  0.00    +0.029 C 
ATOM     18  C   UNL     1      36.441 -21.614 -20.138  0.00  0.00    +0.002 C 
ENDBRANCH  11  17
ENDBRANCH   2  11
TORSDOF 4
ENDMDL
MODEL 2
REMARK VINA RESULT:      -7.0      8.616      9.768
REMARK  Name = 9942725
REMARK  4 active torsions:
REMARK  status: ('A' for Active; 'I' for Inactive)
REMARK    1  A    between atoms: N_2  and  C_11
REMARK    2  A    between atoms: C_3  and  C_9
REMARK    3  A    between atoms: C_11  and  C_14
REMARK    4  A    between atoms: C_11  and  C_17
REMARK                            x       y       z     vdW  Elec       q    Type
REMARK                         _______ _______ _______ _____ _____    ______ ____
ROOT
ATOM      1  O   UNL     1      38.377 -22.832 -16.136  0.00  0.00    -0.275 OA
ATOM      2  N   UNL     1      37.079 -24.399 -14.954  0.00  0.00    -0.273 N 
ATOM      3  C   UNL     1      35.100 -23.171 -14.755  0.00  0.00    +0.056 C 
ATOM      4  C   UNL     1      35.829 -24.400 -14.227  0.00  0.00    +0.099 C 
ATOM      5  C   UNL     1      36.237 -22.229 -15.167  0.00  0.00    +0.091 C 
ATOM      6  C   UNL     1      37.376 -23.160 -15.515  0.00  0.00    +0.226 C 
ENDROOT
BRANCH   3   9
ATOM      7  F   UNL     1      32.177 -23.655 -17.028  0.00  0.00    -0.172 F 
ATOM      8  F   UNL     1      32.257 -22.756 -14.876  0.00  0.00    -0.172 F 
ATOM      9  C   UNL     1      34.208 -23.514 -15.910  0.00  0.00    +0.036 C 
ATOM     10  C   UNL     1      32.887 -23.308 -15.933  0.00  0.00    +0.275 C 
ENDBRANCH   3   9
BRANCH   2  11
ATOM     11  C   UNL     1      37.953 -25.552 -14.958  0.00  0.00    +0.151 C 
BRANCH  11  14
ATOM     12  O   UNL     1      36.614 -27.214 -16.117  0.00  0.00    -0.274 OA
ATOM     13  N   UNL     1      36.904 -27.429 -13.848  0.00  0.00    -0.327 N 
ATOM     14  C   UNL     1      37.102 -26.809 -15.064  0.00  0.00    +0.237 C 
ATOM     15  H   UNL     1      36.367 -28.253 -13.797  0.00  0.00    +0.145 HD
ATOM     16  H   UNL     1      37.301 -27.049 -13.032  0.00  0.00    +0.145 HD
ENDBRANCH  11  14
BRANCH  11  17
ATOM     17  C   UNL     1      38.892 -25.570 -13.748  0.00  0.00    +0.029 C 
ATOM     18  C   UNL     1      40.372 -25.484 -14.103  0.00  0.00    +0.002 C 
ENDBRANCH  11  17
ENDBRANCH   2  11
TORSDOF 4
ENDMDL
MODEL 3
REMARK VINA RESULT:      -6.9      3.551      5.439
REMARK  Name = 9942725
REMARK  4 active torsions:
REMARK  status: ('A' for Active; 'I' for Inactive)
REMARK    1  A    between atoms: N_2  and  C_11
REMARK    2  A    between atoms: C_3  and  C_9
REMARK    3  A    between atoms: C_11  and  C_14
REMARK    4  A    between atoms: C_11  and  C_17
REMARK                            x       y       z     vdW  Elec       q    Type
REMARK                         _______ _______ _______ _____ _____    ______ ____
ROOT
ATOM      1  O   UNL     1      35.300 -17.211 -24.581  0.00  0.00    -0.275 OA
ATOM      2  N   UNL     1      34.391 -16.959 -22.425  0.00  0.00    -0.273 N 
ATOM      3  C   UNL     1      34.346 -19.203 -21.774  0.00  0.00    +0.056 C 
ATOM      4  C   UNL     1      33.820 -17.819 -21.414  0.00  0.00    +0.099 C 
ATOM      5  C   UNL     1      34.555 -19.124 -23.290  0.00  0.00    +0.091 C 
ATOM      6  C   UNL     1      34.827 -17.659 -23.547  0.00  0.00    +0.226 C 
ENDROOT
BRANCH   3   9
ATOM      7  F   UNL     1      36.993 -20.766 -19.654  0.00  0.00    -0.172 F 
ATOM      8  F   UNL     1      34.810 -21.477 -20.075  0.00  0.00    -0.172 F 
ATOM      9  C   UNL     1      35.619 -19.514 -21.046  0.00  0.00    +0.036 C 
ATOM     10  C   UNL     1      35.802 -20.582 -20.263  0.00  0.00    +0.275 C 
ENDBRANCH   3   9
BRANCH   2  11
ATOM     11  C   UNL     1      34.368 -15.518 -22.294  0.00  0.00    +0.151 C 
BRANCH  11  14
ATOM     12  O   UNL     1      35.049 -15.343 -19.968  0.00  0.00    -0.274 OA
ATOM     13  N   UNL     1      32.934 -14.658 -20.545  0.00  0.00    -0.327 N 
ATOM     14  C   UNL     1      34.185 -15.166 -20.824  0.00  0.00    +0.237 C 
ATOM     15  H   UNL     1      32.704 -14.395 -19.625  0.00  0.00    +0.145 HD
ATOM     16  H   UNL     1      32.272 -14.557 -21.266  0.00  0.00    +0.145 HD
ENDBRANCH  11  14
BRANCH  11  17
ATOM     17  C   UNL     1      33.314 -14.871 -23.197  0.00  0.00    +0.029 C 
ATOM     18  C   UNL     1      33.766 -13.572 -23.854  0.00  0.00    +0.002 C 
ENDBRANCH  11  17
ENDBRANCH   2  11
TORSDOF 4
ENDMDL
MODEL 4
REMARK VINA RESULT:      -6.8      9.021     10.449
REMARK  Name = 9942725
REMARK  4 active torsions:
REMARK  status: ('A' for Active; 'I' for Inactive)
REMARK    1  A    between atoms: N_2  and  C_11
REMARK    2  A    between atoms: C_3  and  C_9
REMARK    3  A    between atoms: C_11  and  C_14
REMARK    4  A    between atoms: C_11  and  C_17
REMARK                            x       y       z     vdW  Elec       q    Type
REMARK                         _______ _______ _______ _____ _____    ______ ____
ROOT
ATOM      1  O   UNL     1      35.985 -23.193 -16.684  0.00  0.00    -0.275 OA
ATOM      2  N   UNL     1      36.168 -24.419 -14.685  0.00  0.00    -0.273 N 
ATOM      3  C   UNL     1      34.158 -23.787 -13.674  0.00  0.00    +0.056 C 
ATOM      4  C   UNL     1      35.502 -24.452 -13.402  0.00  0.00    +0.099 C 
ATOM      5  C   UNL     1      34.458 -22.834 -14.835  0.00  0.00    +0.091 C 
ATOM      6  C   UNL     1      35.613 -23.488 -15.559  0.00  0.00    +0.226 C 
ENDROOT
BRANCH   3   9
ATOM      7  F   UNL     1      30.929 -25.565 -14.275  0.00  0.00    -0.172 F 
ATOM      8  F   UNL     1      31.314 -23.407 -13.474  0.00  0.00    -0.172 F 
ATOM      9  C   UNL     1      33.107 -24.795 -14.030  0.00  0.00    +0.036 C 
ATOM     10  C   UNL     1      31.790 -24.586 -13.925  0.00  0.00    +0.275 C 
ENDBRANCH   3   9
BRANCH   2  11
ATOM     11  C   UNL     1      37.362 -25.197 -14.937  0.00  0.00    +0.151 C 
BRANCH  11  14
ATOM     12  O   UNL     1      36.647 -27.195 -16.119  0.00  0.00    -0.274 OA
ATOM     13  N   UNL     1      36.986 -27.326 -13.851  0.00  0.00    -0.327 N 
ATOM     14  C   UNL     1      36.971 -26.663 -15.060  0.00  0.00    +0.237 C 
ATOM     15  H   UNL     1      36.749 -28.282 -13.811  0.00  0.00    +0.145 HD
ATOM     16  H   UNL     1      37.233 -26.846 -13.029  0.00  0.00    +0.145 HD
ENDBRANCH  11  14
BRANCH  11  17
ATOM     17  C   UNL     1      38.443 -24.956 -13.880  0.00  0.00    +0.029 C 
ATOM     18  C   UNL     1      39.849 -25.349 -14.323  0.00  0.00    +0.002 C 
ENDBRANCH  11  17
ENDBRANCH   2  11
TORSDOF 4
ENDMDL
MODEL 5
REMARK VINA RESULT:      -6.8      8.924     11.421
REMARK  Name = 9942725
REMARK  4 active torsions:
REMARK  status: ('A' for Active; 'I' for Inactive)
REMARK    1  A    between atoms: N_2  and  C_11
REMARK    2  A    between atoms: C_3  and  C_9
REMARK    3  A    between atoms: C_11  and  C_14
REMARK    4  A    between atoms: C_11  and  C_17
REMARK                            x       y       z     vdW  Elec       q    Type
REMARK                         _______ _______ _______ _____ _____    ______ ____
ROOT
ATOM      1  O   UNL     1      34.673  -7.780 -23.180  0.00  0.00    -0.275 OA
ATOM      2  N   UNL     1      32.329  -7.584 -23.164  0.00  0.00    -0.273 N 
ATOM      3  C   UNL     1      31.768  -9.833 -22.860  0.00  0.00    +0.056 C 
ATOM      4  C   UNL     1      31.194  -8.476 -23.251  0.00  0.00    +0.099 C 
ATOM      5  C   UNL     1      33.239  -9.733 -23.275  0.00  0.00    +0.091 C 
ATOM      6  C   UNL     1      33.548  -8.256 -23.185  0.00  0.00    +0.226 C 
ENDROOT
BRANCH   3   9
ATOM      7  F   UNL     1      31.390 -11.426 -19.504  0.00  0.00    -0.172 F 
ATOM      8  F   UNL     1      31.570 -12.415 -21.610  0.00  0.00    -0.172 F 
ATOM      9  C   UNL     1      31.615 -10.091 -21.391  0.00  0.00    +0.036 C 
ATOM     10  C   UNL     1      31.525 -11.307 -20.841  0.00  0.00    +0.275 C 
ENDBRANCH   3   9
BRANCH   2  11
ATOM     11  C   UNL     1      32.164  -6.147 -23.187  0.00  0.00    +0.151 C 
BRANCH  11  14
ATOM     12  O   UNL     1      30.163  -5.271 -22.125  0.00  0.00    -0.274 OA
ATOM     13  N   UNL     1      31.919  -5.911 -20.791  0.00  0.00    -0.327 N 
ATOM     14  C   UNL     1      31.294  -5.737 -22.007  0.00  0.00    +0.237 C 
ATOM     15  H   UNL     1      31.449  -5.678 -19.958  0.00  0.00    +0.145 HD
ATOM     16  H   UNL     1      32.836  -6.268 -20.755  0.00  0.00    +0.145 HD
ENDBRANCH  11  14
BRANCH  11  17
ATOM     17  C   UNL     1      31.620  -5.648 -24.528  0.00  0.00    +0.029 C 
ATOM     18  C   UNL     1      32.694  -5.176 -25.502  0.00  0.00    +0.002 C 
ENDBRANCH  11  17
ENDBRANCH   2  11
TORSDOF 4
ENDMDL
MODEL 6
REMARK VINA RESULT:      -6.8      9.182     10.417
REMARK  Name = 9942725
REMARK  4 active torsions:
REMARK  status: ('A' for Active; 'I' for Inactive)
REMARK    1  A    between atoms: N_2  and  C_11
REMARK    2  A    between atoms: C_3  and  C_9
REMARK    3  A    between atoms: C_11  and  C_14
REMARK    4  A    between atoms: C_11  and  C_17
REMARK                            x       y       z     vdW  Elec       q    Type
REMARK                         _______ _______ _______ _____ _____    ______ ____
ROOT
ATOM      1  O   UNL     1      36.033 -26.388 -15.420  0.00  0.00    -0.275 OA
ATOM      2  N   UNL     1      36.017 -24.585 -13.909  0.00  0.00    -0.273 N 
ATOM      3  C   UNL     1      34.439 -23.224 -14.968  0.00  0.00    +0.056 C 
ATOM      4  C   UNL     1      35.515 -23.229 -13.889  0.00  0.00    +0.099 C 
ATOM      5  C   UNL     1      34.908 -24.306 -15.947  0.00  0.00    +0.091 C 
ATOM      6  C   UNL     1      35.705 -25.259 -15.086  0.00  0.00    +0.226 C 
ENDROOT
BRANCH   3   9
ATOM      7  F   UNL     1      30.768 -23.653 -14.435  0.00  0.00    -0.172 F 
ATOM      8  F   UNL     1      31.918 -22.847 -16.299  0.00  0.00    -0.172 F 
ATOM      9  C   UNL     1      33.087 -23.530 -14.397  0.00  0.00    +0.036 C 
ATOM     10  C   UNL     1      31.932 -23.342 -15.044  0.00  0.00    +0.275 C 
ENDBRANCH   3   9
BRANCH   2  11
ATOM     11  C   UNL     1      36.861 -25.095 -12.850  0.00  0.00    +0.151 C 
BRANCH  11  14
ATOM     12  O   UNL     1      35.280 -25.160 -11.007  0.00  0.00    -0.274 OA
ATOM     13  N   UNL     1      36.977 -23.614 -10.940  0.00  0.00    -0.327 N 
ATOM     14  C   UNL     1      36.281 -24.658 -11.512  0.00  0.00    +0.237 C 
ATOM     15  H   UNL     1      36.690 -23.249 -10.072  0.00  0.00    +0.145 HD
ATOM     16  H   UNL     1      37.760 -23.234 -11.399  0.00  0.00    +0.145 HD
ENDBRANCH  11  14
BRANCH  11  17
ATOM     17  C   UNL     1      38.325 -24.682 -13.027  0.00  0.00    +0.029 C 
ATOM     18  C   UNL     1      39.170 -25.691 -13.797  0.00  0.00    +0.002 C 
ENDBRANCH  11  17
ENDBRANCH   2  11
TORSDOF 4
ENDMDL
MODEL 7
REMARK VINA RESULT:      -6.8      7.807      9.417
REMARK  Name = 9942725
REMARK  4 active torsions:
REMARK  status: ('A' for Active; 'I' for Inactive)
REMARK    1  A    between atoms: N_2  and  C_11
REMARK    2  A    between atoms: C_3  and  C_9
REMARK    3  A    between atoms: C_11  and  C_14
REMARK    4  A    between atoms: C_11  and  C_17
REMARK                            x       y       z     vdW  Elec       q    Type
REMARK                         _______ _______ _______ _____ _____    ______ ____
ROOT
ATOM      1  O   UNL     1      33.820 -23.720 -18.201  0.00  0.00    -0.275 OA
ATOM      2  N   UNL     1      34.129 -23.554 -15.875  0.00  0.00    -0.273 N 
ATOM      3  C   UNL     1      31.910 -23.215 -15.226  0.00  0.00    +0.056 C 
ATOM      4  C   UNL     1      33.349 -23.130 -14.734  0.00  0.00    +0.099 C 
ATOM      5  C   UNL     1      32.033 -22.985 -16.736  0.00  0.00    +0.091 C 
ATOM      6  C   UNL     1      33.421 -23.482 -17.071  0.00  0.00    +0.226 C 
ENDROOT
BRANCH   3   9
ATOM      7  F   UNL     1      29.541 -26.045 -14.654  0.00  0.00    -0.172 F 
ATOM      8  F   UNL     1      29.107 -23.851 -15.323  0.00  0.00    -0.172 F 
ATOM      9  C   UNL     1      31.297 -24.545 -14.907  0.00  0.00    +0.036 C 
ATOM     10  C   UNL     1      29.987 -24.808 -14.962  0.00  0.00    +0.275 C 
ENDBRANCH   3   9
BRANCH   2  11
ATOM     11  C   UNL     1      35.532 -23.885 -15.751  0.00  0.00    +0.151 C 
BRANCH  11  14
ATOM     12  O   UNL     1      35.905 -24.668 -13.482  0.00  0.00    -0.274 OA
ATOM     13  N   UNL     1      35.603 -26.226 -15.142  0.00  0.00    -0.327 N 
ATOM     14  C   UNL     1      35.691 -24.937 -14.662  0.00  0.00    +0.237 C 
ATOM     15  H   UNL     1      35.691 -26.989 -14.525  0.00  0.00    +0.145 HD
ATOM     16  H   UNL     1      35.451 -26.385 -16.101  0.00  0.00    +0.145 HD
ENDBRANCH  11  14
BRANCH  11  17
ATOM     17  C   UNL     1      36.400 -22.646 -15.511  0.00  0.00    +0.029 C 
ATOM     18  C   UNL     1      36.919 -21.990 -16.786  0.00  0.00    +0.002 C 
ENDBRANCH  11  17
ENDBRANCH   2  11
TORSDOF 4
ENDMDL
MODEL 8
REMARK VINA RESULT:      -6.8      1.773      2.321
REMARK  Name = 9942725
REMARK  4 active torsions:
REMARK  status: ('A' for Active; 'I' for Inactive)
REMARK    1  A    between atoms: N_2  and  C_11
REMARK    2  A    between atoms: C_3  and  C_9
REMARK    3  A    between atoms: C_11  and  C_14
REMARK    4  A    between atoms: C_11  and  C_17
REMARK                            x       y       z     vdW  Elec       q    Type
REMARK                         _______ _______ _______ _____ _____    ______ ____
ROOT
ATOM      1  O   UNL     1      34.516 -19.065 -24.133  0.00  0.00    -0.275 OA
ATOM      2  N   UNL     1      34.881 -17.680 -22.266  0.00  0.00    -0.273 N 
ATOM      3  C   UNL     1      34.805 -15.598 -23.324  0.00  0.00    +0.056 C 
ATOM      4  C   UNL     1      35.208 -16.292 -22.029  0.00  0.00    +0.099 C 
ATOM      5  C   UNL     1      34.963 -16.694 -24.383  0.00  0.00    +0.091 C 
ATOM      6  C   UNL     1      34.737 -17.978 -23.618  0.00  0.00    +0.226 C 
ENDROOT
BRANCH   3   9
ATOM      7  F   UNL     1      31.771 -13.426 -23.178  0.00  0.00    -0.172 F 
ATOM      8  F   UNL     1      34.025 -12.830 -23.286  0.00  0.00    -0.172 F 
ATOM      9  C   UNL     1      33.400 -15.079 -23.256  0.00  0.00    +0.036 C 
ATOM     10  C   UNL     1      33.072 -13.783 -23.240  0.00  0.00    +0.275 C 
ENDBRANCH   3   9
BRANCH   2  11
ATOM     11  C   UNL     1      34.848 -18.644 -21.187  0.00  0.00    +0.151 C 
BRANCH  11  14
ATOM     12  O   UNL     1      37.237 -18.794 -21.601  0.00  0.00    -0.274 OA
ATOM     13  N   UNL     1      36.329 -20.097 -19.942  0.00  0.00    -0.327 N 
ATOM     14  C   UNL     1      36.261 -19.157 -20.948  0.00  0.00    +0.237 C 
ATOM     15  H   UNL     1      37.196 -20.498 -19.701  0.00  0.00    +0.145 HD
ATOM     16  H   UNL     1      35.512 -20.368 -19.465  0.00  0.00    +0.145 HD
ENDBRANCH  11  14
BRANCH  11  17
ATOM     17  C   UNL     1      33.844 -19.771 -21.449  0.00  0.00    +0.029 C 
ATOM     18  C   UNL     1      32.730 -19.869 -20.412  0.00  0.00    +0.002 C 
ENDBRANCH  11  17
ENDBRANCH   2  11
TORSDOF 4
ENDMDL
MODEL 9
REMARK VINA RESULT:      -6.8      8.968     10.284
REMARK  Name = 9942725
REMARK  4 active torsions:
REMARK  status: ('A' for Active; 'I' for Inactive)
REMARK    1  A    between atoms: N_2  and  C_11
REMARK    2  A    between atoms: C_3  and  C_9
REMARK    3  A    between atoms: C_11  and  C_14
REMARK    4  A    between atoms: C_11  and  C_17
REMARK                            x       y       z     vdW  Elec       q    Type
REMARK                         _______ _______ _______ _____ _____    ______ ____
ROOT
ATOM      1  O   UNL     1      34.962 -23.559 -16.598  0.00  0.00    -0.275 OA
ATOM      2  N   UNL     1      34.879 -24.252 -14.352  0.00  0.00    -0.273 N 
ATOM      3  C   UNL     1      32.648 -23.734 -13.882  0.00  0.00    +0.056 C 
ATOM      4  C   UNL     1      33.978 -24.098 -13.232  0.00  0.00    +0.099 C 
ATOM      5  C   UNL     1      33.064 -23.036 -15.181  0.00  0.00    +0.091 C 
ATOM      6  C   UNL     1      34.407 -23.646 -15.512  0.00  0.00    +0.226 C 
ENDROOT
BRANCH   3   9
ATOM      7  F   UNL     1      29.855 -26.082 -14.677  0.00  0.00    -0.172 F 
ATOM      8  F   UNL     1      29.858 -23.750 -14.579  0.00  0.00    -0.172 F 
ATOM      9  C   UNL     1      31.812 -24.951 -14.142  0.00  0.00    +0.036 C 
ATOM     10  C   UNL     1      30.514 -24.923 -14.464  0.00  0.00    +0.275 C 
ENDBRANCH   3   9
BRANCH   2  11
ATOM     11  C   UNL     1      36.179 -24.867 -14.197  0.00  0.00    +0.151 C 
BRANCH  11  14
ATOM     12  O   UNL     1      37.527 -22.990 -13.447  0.00  0.00    -0.274 OA
ATOM     13  N   UNL     1      37.846 -23.786 -15.578  0.00  0.00    -0.327 N 
ATOM     14  C   UNL     1      37.247 -23.791 -14.336  0.00  0.00    +0.237 C 
ATOM     15  H   UNL     1      38.552 -23.130 -15.781  0.00  0.00    +0.145 HD
ATOM     16  H   UNL     1      37.568 -24.437 -16.261  0.00  0.00    +0.145 HD
ENDBRANCH  11  14
BRANCH  11  17
ATOM     17  C   UNL     1      36.385 -26.038 -15.163  0.00  0.00    +0.029 C 
ATOM     18  C   UNL     1      37.254 -27.161 -14.609  0.00  0.00    +0.002 C 
ENDBRANCH  11  17
ENDBRANCH   2  11
TORSDOF 4
ENDMDL
