MODEL 1
REMARK VINA RESULT:      -6.7      0.000      0.000
REMARK  Name = 3952261
REMARK  2 active torsions:
REMARK  status: ('A' for Active; 'I' for Inactive)
REMARK    1  A    between atoms: C_1  and  O_10
REMARK    2  A    between atoms: C_2  and  S_7
REMARK                            x       y       z     vdW  Elec       q    Type
REMARK                         _______ _______ _______ _____ _____    ______ ____
ROOT
ATOM      1  C   UNL     1      34.757 -19.111 -21.195  0.00  0.00    +0.139 C 
ATOM      2  C   UNL     1      34.105 -21.331 -19.639  0.00  0.00    +0.104 C 
ATOM      3  C   UNL     1      33.420 -19.414 -20.937  0.00  0.00    +0.038 C 
ATOM      4  C   UNL     1      35.767 -19.919 -20.676  0.00  0.00    +0.038 C 
ATOM      5  C   UNL     1      33.094 -20.524 -20.159  0.00  0.00    +0.021 C 
ATOM      6  C   UNL     1      35.441 -21.029 -19.898  0.00  0.00    +0.021 C 
ENDROOT
BRANCH   2   7
ATOM      7  S   UNL     1      33.697 -22.722 -18.664  0.00  0.00    +0.005 S 
ATOM      8  O   UNL     1      32.375 -22.478 -18.115  0.00  0.00    -0.073 OA
ATOM      9  O   UNL     1      33.976 -23.897 -19.470  0.00  0.00    -0.073 OA
ENDBRANCH   2   7
BRANCH   1  10
ATOM     10  O   UNL     1      35.074 -18.026 -21.955  0.00  0.00    -0.471 OA
ATOM     11  C   UNL     1      34.944 -16.745 -21.343  0.00  0.00    +0.252 C 
ENDBRANCH   1  10
TORSDOF 2
ENDMDL
MODEL 2
REMARK VINA RESULT:      -6.7      0.023      1.457
REMARK  Name = 3952261
REMARK  2 active torsions:
REMARK  status: ('A' for Active; 'I' for Inactive)
REMARK    1  A    between atoms: C_1  and  O_10
REMARK    2  A    between atoms: C_2  and  S_7
REMARK                            x       y       z     vdW  Elec       q    Type
REMARK                         _______ _______ _______ _____ _____    ______ ____
ROOT
ATOM      1  C   UNL     1      34.780 -19.115 -21.195  0.00  0.00    +0.139 C 
ATOM      2  C   UNL     1      34.110 -21.327 -19.635  0.00  0.00    +0.104 C 
ATOM      3  C   UNL     1      35.784 -19.916 -20.654  0.00  0.00    +0.038 C 
ATOM      4  C   UNL     1      33.440 -19.419 -20.956  0.00  0.00    +0.038 C 
ATOM      5  C   UNL     1      35.450 -21.022 -19.874  0.00  0.00    +0.021 C 
ATOM      6  C   UNL     1      33.105 -20.525 -20.175  0.00  0.00    +0.021 C 
ENDROOT
BRANCH   2   7
ATOM      7  S   UNL     1      33.691 -22.713 -18.657  0.00  0.00    +0.005 S 
ATOM      8  O   UNL     1      32.363 -22.466 -18.125  0.00  0.00    -0.073 OA
ATOM      9  O   UNL     1      33.980 -23.892 -19.452  0.00  0.00    -0.073 OA
ENDBRANCH   2   7
BRANCH   1  10
ATOM     10  O   UNL     1      35.107 -18.035 -21.957  0.00  0.00    -0.471 OA
ATOM     11  C   UNL     1      34.956 -16.749 -21.361  0.00  0.00    +0.252 C 
ENDBRANCH   1  10
TORSDOF 2
ENDMDL
MODEL 3
REMARK VINA RESULT:      -6.6      2.138      4.791
REMARK  Name = 3952261
REMARK  2 active torsions:
REMARK  status: ('A' for Active; 'I' for Inactive)
REMARK    1  A    between atoms: C_1  and  O_10
REMARK    2  A    between atoms: C_2  and  S_7
REMARK                            x       y       z     vdW  Elec       q    Type
REMARK                         _______ _______ _______ _____ _____    ______ ____
ROOT
ATOM      1  C   UNL     1      33.527 -21.408 -19.555  0.00  0.00    +0.139 C 
ATOM      2  C   UNL     1      34.931 -19.484 -21.007  0.00  0.00    +0.104 C 
ATOM      3  C   UNL     1      32.835 -20.418 -20.253  0.00  0.00    +0.038 C 
ATOM      4  C   UNL     1      34.920 -21.435 -19.582  0.00  0.00    +0.038 C 
ATOM      5  C   UNL     1      33.537 -19.457 -20.979  0.00  0.00    +0.021 C 
ATOM      6  C   UNL     1      35.623 -20.473 -20.308  0.00  0.00    +0.021 C 
ENDROOT
BRANCH   2   7
ATOM      7  S   UNL     1      35.810 -18.279 -21.916  0.00  0.00    +0.005 S 
ATOM      8  O   UNL     1      35.720 -18.658 -23.314  0.00  0.00    -0.073 OA
ATOM      9  O   UNL     1      35.349 -16.983 -21.451  0.00  0.00    -0.073 OA
ENDBRANCH   2   7
BRANCH   1  10
ATOM     10  O   UNL     1      32.841 -22.347 -18.848  0.00  0.00    -0.471 OA
ATOM     11  C   UNL     1      33.562 -23.058 -17.843  0.00  0.00    +0.252 C 
ENDBRANCH   1  10
TORSDOF 2
ENDMDL
MODEL 4
REMARK VINA RESULT:      -6.5      2.138      4.688
REMARK  Name = 3952261
REMARK  2 active torsions:
REMARK  status: ('A' for Active; 'I' for Inactive)
REMARK    1  A    between atoms: C_1  and  O_10
REMARK    2  A    between atoms: C_2  and  S_7
REMARK                            x       y       z     vdW  Elec       q    Type
REMARK                         _______ _______ _______ _____ _____    ______ ____
ROOT
ATOM      1  C   UNL     1      34.423 -22.091 -19.260  0.00  0.00    +0.139 C 
ATOM      2  C   UNL     1      34.718 -19.740 -20.732  0.00  0.00    +0.104 C 
ATOM      3  C   UNL     1      33.297 -21.365 -19.648  0.00  0.00    +0.038 C 
ATOM      4  C   UNL     1      35.696 -21.641 -19.606  0.00  0.00    +0.038 C 
ATOM      5  C   UNL     1      33.445 -20.190 -20.384  0.00  0.00    +0.021 C 
ATOM      6  C   UNL     1      35.844 -20.466 -20.343  0.00  0.00    +0.021 C 
ENDROOT
BRANCH   2   7
ATOM      7  S   UNL     1      34.904 -18.268 -21.653  0.00  0.00    +0.005 S 
ATOM      8  O   UNL     1      35.262 -17.224 -20.711  0.00  0.00    -0.073 OA
ATOM      9  O   UNL     1      35.751 -18.586 -22.788  0.00  0.00    -0.073 OA
ENDBRANCH   2   7
BRANCH   1  10
ATOM     10  O   UNL     1      34.278 -23.239 -18.542  0.00  0.00    -0.471 OA
ATOM     11  C   UNL     1      33.287 -23.242 -17.516  0.00  0.00    +0.252 C 
ENDBRANCH   1  10
TORSDOF 2
ENDMDL
MODEL 5
REMARK VINA RESULT:      -6.4      3.419      4.780
REMARK  Name = 3952261
REMARK  2 active torsions:
REMARK  status: ('A' for Active; 'I' for Inactive)
REMARK    1  A    between atoms: C_1  and  O_10
REMARK    2  A    between atoms: C_2  and  S_7
REMARK                            x       y       z     vdW  Elec       q    Type
REMARK                         _______ _______ _______ _____ _____    ______ ____
ROOT
ATOM      1  C   UNL     1      34.439 -16.815 -25.004  0.00  0.00    +0.139 C 
ATOM      2  C   UNL     1      34.942 -18.411 -22.773  0.00  0.00    +0.104 C 
ATOM      3  C   UNL     1      34.438 -18.204 -25.126  0.00  0.00    +0.038 C 
ATOM      4  C   UNL     1      34.692 -16.224 -23.767  0.00  0.00    +0.038 C 
ATOM      5  C   UNL     1      34.690 -19.002 -24.011  0.00  0.00    +0.021 C 
ATOM      6  C   UNL     1      34.944 -17.022 -22.651  0.00  0.00    +0.021 C 
ENDROOT
BRANCH   2   7
ATOM      7  S   UNL     1      35.257 -19.412 -21.376  0.00  0.00    +0.005 S 
ATOM      8  O   UNL     1      36.274 -18.732 -20.593  0.00  0.00    -0.073 OA
ATOM      9  O   UNL     1      33.968 -19.756 -20.806  0.00  0.00    -0.073 OA
ENDBRANCH   2   7
BRANCH   1  10
ATOM     10  O   UNL     1      34.193 -16.036 -26.093  0.00  0.00    -0.471 OA
ATOM     11  C   UNL     1      33.159 -15.061 -25.974  0.00  0.00    +0.252 C 
ENDBRANCH   1  10
TORSDOF 2
ENDMDL
MODEL 6
REMARK VINA RESULT:      -6.4      7.659      8.468
REMARK  Name = 3952261
REMARK  2 active torsions:
REMARK  status: ('A' for Active; 'I' for Inactive)
REMARK    1  A    between atoms: C_1  and  O_10
REMARK    2  A    between atoms: C_2  and  S_7
REMARK                            x       y       z     vdW  Elec       q    Type
REMARK                         _______ _______ _______ _____ _____    ______ ____
ROOT
ATOM      1  C   UNL     1      31.247 -24.416 -14.043  0.00  0.00    +0.139 C 
ATOM      2  C   UNL     1      29.154 -23.485 -15.635  0.00  0.00    +0.104 C 
ATOM      3  C   UNL     1      31.085 -23.047 -14.252  0.00  0.00    +0.038 C 
ATOM      4  C   UNL     1      30.363 -25.320 -14.631  0.00  0.00    +0.038 C 
ATOM      5  C   UNL     1      30.039 -22.582 -15.048  0.00  0.00    +0.021 C 
ATOM      6  C   UNL     1      29.317 -24.855 -15.427  0.00  0.00    +0.021 C 
ENDROOT
BRANCH   2   7
ATOM      7  S   UNL     1      27.844 -22.903 -16.633  0.00  0.00    +0.005 S 
ATOM      8  O   UNL     1      27.624 -23.901 -17.664  0.00  0.00    -0.073 OA
ATOM      9  O   UNL     1      26.780 -22.496 -15.733  0.00  0.00    -0.073 OA
ENDBRANCH   2   7
BRANCH   1  10
ATOM     10  O   UNL     1      32.268 -24.870 -13.265  0.00  0.00    -0.471 OA
ATOM     11  C   UNL     1      33.578 -24.398 -13.574  0.00  0.00    +0.252 C 
ENDBRANCH   1  10
TORSDOF 2
ENDMDL
MODEL 7
REMARK VINA RESULT:      -6.3      6.800      7.899
REMARK  Name = 3952261
REMARK  2 active torsions:
REMARK  status: ('A' for Active; 'I' for Inactive)
REMARK    1  A    between atoms: C_1  and  O_10
REMARK    2  A    between atoms: C_2  and  S_7
REMARK                            x       y       z     vdW  Elec       q    Type
REMARK                         _______ _______ _______ _____ _____    ______ ____
ROOT
ATOM      1  C   UNL     1      31.897 -24.284 -14.389  0.00  0.00    +0.139 C 
ATOM      2  C   UNL     1      29.550 -23.651 -15.757  0.00  0.00    +0.104 C 
ATOM      3  C   UNL     1      31.894 -23.254 -15.329  0.00  0.00    +0.038 C 
ATOM      4  C   UNL     1      30.728 -24.998 -14.133  0.00  0.00    +0.038 C 
ATOM      5  C   UNL     1      30.721 -22.937 -16.013  0.00  0.00    +0.021 C 
ATOM      6  C   UNL     1      29.554 -24.682 -14.817  0.00  0.00    +0.021 C 
ENDROOT
BRANCH   2   7
ATOM      7  S   UNL     1      28.081 -23.256 -16.614  0.00  0.00    +0.005 S 
ATOM      8  O   UNL     1      28.256 -21.921 -17.157  0.00  0.00    -0.073 OA
ATOM      9  O   UNL     1      27.776 -24.387 -17.471  0.00  0.00    -0.073 OA
ENDBRANCH   2   7
BRANCH   1  10
ATOM     10  O   UNL     1      33.043 -24.591 -13.721  0.00  0.00    -0.471 OA
ATOM     11  C   UNL     1      34.273 -24.393 -14.415  0.00  0.00    +0.252 C 
ENDBRANCH   1  10
TORSDOF 2
ENDMDL
MODEL 8
REMARK VINA RESULT:      -6.3      2.225      4.789
REMARK  Name = 3952261
REMARK  2 active torsions:
REMARK  status: ('A' for Active; 'I' for Inactive)
REMARK    1  A    between atoms: C_1  and  O_10
REMARK    2  A    between atoms: C_2  and  S_7
REMARK                            x       y       z     vdW  Elec       q    Type
REMARK                         _______ _______ _______ _____ _____    ______ ____
ROOT
ATOM      1  C   UNL     1      34.726 -22.092 -18.817  0.00  0.00    +0.139 C 
ATOM      2  C   UNL     1      35.232 -19.934 -20.510  0.00  0.00    +0.104 C 
ATOM      3  C   UNL     1      33.671 -21.458 -19.472  0.00  0.00    +0.038 C 
ATOM      4  C   UNL     1      36.034 -21.647 -19.006  0.00  0.00    +0.038 C 
ATOM      5  C   UNL     1      33.924 -20.380 -20.319  0.00  0.00    +0.021 C 
ATOM      6  C   UNL     1      36.286 -20.568 -19.853  0.00  0.00    +0.021 C 
ENDROOT
BRANCH   2   7
ATOM      7  S   UNL     1      35.548 -18.583 -21.570  0.00  0.00    +0.005 S 
ATOM      8  O   UNL     1      34.837 -18.844 -22.808  0.00  0.00    -0.073 OA
ATOM      9  O   UNL     1      35.306 -17.377 -20.798  0.00  0.00    -0.073 OA
ENDBRANCH   2   7
BRANCH   1  10
ATOM     10  O   UNL     1      34.479 -23.146 -17.991  0.00  0.00    -0.471 OA
ATOM     11  C   UNL     1      34.783 -22.973 -16.608  0.00  0.00    +0.252 C 
ENDBRANCH   1  10
TORSDOF 2
ENDMDL
MODEL 9
REMARK VINA RESULT:      -6.1      4.105      5.374
REMARK  Name = 3952261
REMARK  2 active torsions:
REMARK  status: ('A' for Active; 'I' for Inactive)
REMARK    1  A    between atoms: C_1  and  O_10
REMARK    2  A    between atoms: C_2  and  S_7
REMARK                            x       y       z     vdW  Elec       q    Type
REMARK                         _______ _______ _______ _____ _____    ______ ____
ROOT
ATOM      1  C   UNL     1      34.060 -16.224 -25.259  0.00  0.00    +0.139 C 
ATOM      2  C   UNL     1      34.884 -17.365 -22.851  0.00  0.00    +0.104 C 
ATOM      3  C   UNL     1      33.953 -15.500 -24.072  0.00  0.00    +0.038 C 
ATOM      4  C   UNL     1      34.577 -17.519 -25.243  0.00  0.00    +0.038 C 
ATOM      5  C   UNL     1      34.365 -16.070 -22.868  0.00  0.00    +0.021 C 
ATOM      6  C   UNL     1      34.990 -18.089 -24.038  0.00  0.00    +0.021 C 
ENDROOT
BRANCH   2   7
ATOM      7  S   UNL     1      35.400 -18.079 -21.343  0.00  0.00    +0.005 S 
ATOM      8  O   UNL     1      34.303 -18.903 -20.870  0.00  0.00    -0.073 OA
ATOM      9  O   UNL     1      36.721 -18.637 -21.572  0.00  0.00    -0.073 OA
ENDBRANCH   2   7
BRANCH   1  10
ATOM     10  O   UNL     1      33.658 -15.667 -26.434  0.00  0.00    -0.471 OA
ATOM     11  C   UNL     1      33.004 -14.401 -26.363  0.00  0.00    +0.252 C 
ENDBRANCH   1  10
TORSDOF 2
ENDMDL
