MODEL 1
REMARK VINA RESULT:     -12.3      0.000      0.000
REMARK  Name = 72696796
REMARK  9 active torsions:
REMARK  status: ('A' for Active; 'I' for Inactive)
REMARK    1  A    between atoms: N_2  and  C_29
REMARK    2  A    between atoms: C_10  and  C_12
REMARK    3  A    between atoms: C_13  and  C_16
REMARK    4  A    between atoms: N_15  and  C_18
REMARK    5  A    between atoms: C_18  and  C_20
REMARK    6  A    between atoms: C_29  and  O_30
REMARK    7  A    between atoms: O_30  and  P_31
REMARK    8  A    between atoms: P_31  and  O_33
REMARK    9  A    between atoms: P_31  and  O_35
REMARK                            x       y       z     vdW  Elec       q    Type
REMARK                         _______ _______ _______ _____ _____    ______ ____
ROOT
ATOM      1  O   UNL     1      31.756  -7.696 -19.527  0.00  0.00    -0.274 OA
ATOM      2  N   UNL     1      32.354  -9.009 -21.356  0.00  0.00    -0.217 N 
ATOM      3  N   UNL     1      33.030 -10.447 -23.163  0.00  0.00    -0.229 NA
ATOM      4  C   UNL     1      31.233 -11.212 -19.937  0.00  0.00    +0.039 C 
ATOM      5  C   UNL     1      31.944 -11.407 -21.238  0.00  0.00    +0.010 C 
ATOM      6  C   UNL     1      31.845 -10.049 -19.183  0.00  0.00    +0.090 C 
ATOM      7  C   UNL     1      32.461 -10.313 -21.937  0.00  0.00    +0.135 C 
ATOM      8  C   UNL     1      31.944  -8.802 -20.037  0.00  0.00    +0.233 C 
ATOM      9  C   UNL     1      32.026 -12.673 -21.827  0.00  0.00    +0.000 C 
ATOM     10  C   UNL     1      32.622 -12.824 -23.071  0.00  0.00    +0.019 C 
ATOM     11  C   UNL     1      33.104 -11.689 -23.692  0.00  0.00    +0.100 C 
ENDROOT
BRANCH  10  12
ATOM     12  C   UNL     1      32.748 -14.130 -23.691  0.00  0.00    +0.006 C 
ATOM     13  C   UNL     1      33.830 -14.570 -24.377  0.00  0.00    +0.058 C 
BRANCH  13  16
ATOM     14  O   UNL     1      33.281 -16.097 -26.092  0.00  0.00    -0.270 OA
ATOM     15  N   UNL     1      34.485 -16.932 -24.287  0.00  0.00    -0.267 N 
ATOM     16  C   UNL     1      33.826 -15.926 -24.999  0.00  0.00    +0.250 C 
ATOM     17  C   UNL     1      34.551 -18.278 -24.844  0.00  0.00    +0.116 C 
BRANCH  15  18
ATOM     18  C   UNL     1      35.167 -16.747 -23.008  0.00  0.00    +0.158 C 
BRANCH  18  20
ATOM     19  O   UNL     1      33.833 -18.319 -21.729  0.00  0.00    -0.456 OA
ATOM     20  C   UNL     1      35.080 -17.972 -22.143  0.00  0.00    +0.139 A 
ATOM     21  C   UNL     1      36.017 -18.854 -21.659  0.00  0.00    +0.013 A 
ATOM     22  C   UNL     1      35.306 -19.814 -20.892  0.00  0.00    +0.033 A 
ATOM     23  C   UNL     1      33.968 -19.440 -20.966  0.00  0.00    +0.145 A 
ATOM     24  C   UNL     1      37.473 -18.809 -21.894  0.00  0.00    +0.034 C 
ATOM     25  C   UNL     1      35.645 -20.955 -20.144  0.00  0.00    +0.003 C 
ATOM     26  C   UNL     1      32.930 -20.128 -20.342  0.00  0.00    +0.037 C 
ATOM     27  C   UNL     1      34.621 -21.668 -19.505  0.00  0.00    +0.000 C 
ATOM     28  C   UNL     1      33.289 -21.260 -19.603  0.00  0.00    +0.003 C 
ENDBRANCH  18  20
ENDBRANCH  15  18
ENDBRANCH  13  16
ENDBRANCH  10  12
BRANCH   2  29
ATOM     29  C   UNL     1      32.687  -7.871 -22.207  0.00  0.00    +0.257 C 
BRANCH  29  30
ATOM     30  O   UNL     1      31.489  -7.277 -22.668  0.00  0.00    -0.251 OA
BRANCH  30  31
ATOM     31  P   UNL     1      31.338  -5.668 -22.569  0.00  0.00    +0.475 P 
ATOM     32  O   UNL     1      31.700  -4.907 -23.811  0.00  0.00    -0.227 OA
BRANCH  31  33
ATOM     33  O   UNL     1      32.210  -5.295 -21.260  0.00  0.00    -0.303 OA
ATOM     34  H   UNL     1      32.060  -5.960 -20.570  0.00  0.00    +0.222 HD
ENDBRANCH  31  33
BRANCH  31  35
ATOM     35  O   UNL     1      29.815  -5.457 -22.065  0.00  0.00    -0.303 OA
ATOM     36  H   UNL     1      29.227  -6.054 -22.554  0.00  0.00    +0.222 HD
ENDBRANCH  31  35
ENDBRANCH  30  31
ENDBRANCH  29  30
ENDBRANCH   2  29
TORSDOF 9
ENDMDL
MODEL 2
REMARK VINA RESULT:     -11.6      5.783     11.946
REMARK  Name = 72696796
REMARK  9 active torsions:
REMARK  status: ('A' for Active; 'I' for Inactive)
REMARK    1  A    between atoms: N_2  and  C_29
REMARK    2  A    between atoms: C_10  and  C_12
REMARK    3  A    between atoms: C_13  and  C_16
REMARK    4  A    between atoms: N_15  and  C_18
REMARK    5  A    between atoms: C_18  and  C_20
REMARK    6  A    between atoms: C_29  and  O_30
REMARK    7  A    between atoms: O_30  and  P_31
REMARK    8  A    between atoms: P_31  and  O_33
REMARK    9  A    between atoms: P_31  and  O_35
REMARK                            x       y       z     vdW  Elec       q    Type
REMARK                         _______ _______ _______ _____ _____    ______ ____
ROOT
ATOM      1  O   UNL     1      34.517 -23.682 -15.279  0.00  0.00    -0.274 OA
ATOM      2  N   UNL     1      35.550 -22.354 -16.891  0.00  0.00    -0.217 N 
ATOM      3  N   UNL     1      36.579 -21.068 -18.645  0.00  0.00    -0.229 NA
ATOM      4  C   UNL     1      33.087 -22.453 -18.321  0.00  0.00    +0.039 C 
ATOM      5  C   UNL     1      34.299 -21.801 -18.906  0.00  0.00    +0.010 C 
ATOM      6  C   UNL     1      33.500 -23.607 -17.430  0.00  0.00    +0.090 C 
ATOM      7  C   UNL     1      35.490 -21.733 -18.179  0.00  0.00    +0.135 C 
ATOM      8  C   UNL     1      34.545 -23.198 -16.413  0.00  0.00    +0.233 C 
ATOM      9  C   UNL     1      34.240 -21.165 -20.150  0.00  0.00    +0.000 C 
ATOM     10  C   UNL     1      35.352 -20.498 -20.644  0.00  0.00    +0.019 C 
ATOM     11  C   UNL     1      36.487 -20.478 -19.858  0.00  0.00    +0.100 C 
ENDROOT
BRANCH  10  12
ATOM     12  C   UNL     1      35.328 -19.857 -21.945  0.00  0.00    +0.006 C 
ATOM     13  C   UNL     1      34.306 -19.115 -22.434  0.00  0.00    +0.058 C 
BRANCH  13  16
ATOM     14  O   UNL     1      34.036 -19.204 -24.778  0.00  0.00    -0.270 OA
ATOM     15  N   UNL     1      34.846 -17.215 -23.889  0.00  0.00    -0.267 N 
ATOM     16  C   UNL     1      34.387 -18.533 -23.805  0.00  0.00    +0.250 C 
ATOM     17  C   UNL     1      34.924 -16.565 -25.191  0.00  0.00    +0.116 C 
BRANCH  15  18
ATOM     18  C   UNL     1      35.235 -16.387 -22.749  0.00  0.00    +0.158 C 
BRANCH  18  20
ATOM     19  O   UNL     1      34.621 -14.143 -23.439  0.00  0.00    -0.456 OA
ATOM     20  C   UNL     1      34.351 -15.181 -22.604  0.00  0.00    +0.139 A 
ATOM     21  C   UNL     1      33.289 -14.882 -21.783  0.00  0.00    +0.013 A 
ATOM     22  C   UNL     1      32.871 -13.571 -22.131  0.00  0.00    +0.033 A 
ATOM     23  C   UNL     1      33.722 -13.160 -23.152  0.00  0.00    +0.145 A 
ATOM     24  C   UNL     1      32.703 -15.755 -20.748  0.00  0.00    +0.034 C 
ATOM     25  C   UNL     1      31.869 -12.686 -21.694  0.00  0.00    +0.003 C 
ATOM     26  C   UNL     1      33.647 -11.919 -23.779  0.00  0.00    +0.037 C 
ATOM     27  C   UNL     1      31.769 -11.429 -22.307  0.00  0.00    +0.000 C 
ATOM     28  C   UNL     1      32.644 -11.055 -23.330  0.00  0.00    +0.003 C 
ENDBRANCH  18  20
ENDBRANCH  15  18
ENDBRANCH  13  16
ENDBRANCH  10  12
BRANCH   2  29
ATOM     29  C   UNL     1      36.719 -22.066 -16.066  0.00  0.00    +0.257 C 
BRANCH  29  30
ATOM     30  O   UNL     1      37.688 -23.076 -16.276  0.00  0.00    -0.251 OA
BRANCH  30  31
ATOM     31  P   UNL     1      38.020 -24.089 -15.058  0.00  0.00    +0.475 P 
ATOM     32  O   UNL     1      37.783 -23.544 -13.680  0.00  0.00    -0.227 OA
BRANCH  31  33
ATOM     33  O   UNL     1      39.542 -24.544 -15.360  0.00  0.00    -0.303 OA
ATOM     34  H   UNL     1      40.077 -24.436 -14.558  0.00  0.00    +0.222 HD
ENDBRANCH  31  33
BRANCH  31  35
ATOM     35  O   UNL     1      37.165 -25.414 -15.418  0.00  0.00    -0.303 OA
ATOM     36  H   UNL     1      36.405 -25.482 -14.819  0.00  0.00    +0.222 HD
ENDBRANCH  31  35
ENDBRANCH  30  31
ENDBRANCH  29  30
ENDBRANCH   2  29
TORSDOF 9
ENDMDL
MODEL 3
REMARK VINA RESULT:     -11.5      5.596     11.741
REMARK  Name = 72696796
REMARK  9 active torsions:
REMARK  status: ('A' for Active; 'I' for Inactive)
REMARK    1  A    between atoms: N_2  and  C_29
REMARK    2  A    between atoms: C_10  and  C_12
REMARK    3  A    between atoms: C_13  and  C_16
REMARK    4  A    between atoms: N_15  and  C_18
REMARK    5  A    between atoms: C_18  and  C_20
REMARK    6  A    between atoms: C_29  and  O_30
REMARK    7  A    between atoms: O_30  and  P_31
REMARK    8  A    between atoms: P_31  and  O_33
REMARK    9  A    between atoms: P_31  and  O_35
REMARK                            x       y       z     vdW  Elec       q    Type
REMARK                         _______ _______ _______ _____ _____    ______ ____
ROOT
ATOM      1  O   UNL     1      35.965 -23.495 -15.557  0.00  0.00    -0.274 OA
ATOM      2  N   UNL     1      34.563 -22.745 -17.261  0.00  0.00    -0.217 N 
ATOM      3  N   UNL     1      33.168 -21.853 -19.006  0.00  0.00    -0.229 NA
ATOM      4  C   UNL     1      36.901 -21.682 -18.498  0.00  0.00    +0.039 C 
ATOM      5  C   UNL     1      35.539 -21.432 -19.065  0.00  0.00    +0.010 C 
ATOM      6  C   UNL     1      36.819 -21.795 -16.989  0.00  0.00    +0.090 C 
ATOM      7  C   UNL     1      34.407 -21.986 -18.464  0.00  0.00    +0.135 C 
ATOM      8  C   UNL     1      35.763 -22.787 -16.546  0.00  0.00    +0.233 C 
ATOM      9  C   UNL     1      35.380 -20.718 -20.256  0.00  0.00    +0.000 C 
ATOM     10  C   UNL     1      34.117 -20.560 -20.810  0.00  0.00    +0.019 C 
ATOM     11  C   UNL     1      33.053 -21.144 -20.151  0.00  0.00    +0.100 C 
ENDROOT
BRANCH  10  12
ATOM     12  C   UNL     1      33.920 -19.798 -22.028  0.00  0.00    +0.006 C 
ATOM     13  C   UNL     1      34.891 -19.143 -22.708  0.00  0.00    +0.058 C 
BRANCH  13  16
ATOM     14  O   UNL     1      34.260 -18.955 -24.976  0.00  0.00    -0.270 OA
ATOM     15  N   UNL     1      34.574 -16.972 -23.806  0.00  0.00    -0.267 N 
ATOM     16  C   UNL     1      34.555 -18.363 -23.936  0.00  0.00    +0.250 C 
ATOM     17  C   UNL     1      34.228 -16.141 -24.952  0.00  0.00    +0.116 C 
BRANCH  15  18
ATOM     18  C   UNL     1      34.887 -16.247 -22.575  0.00  0.00    +0.158 C 
BRANCH  18  20
ATOM     19  O   UNL     1      34.372 -13.975 -23.254  0.00  0.00    -0.456 OA
ATOM     20  C   UNL     1      34.053 -15.006 -22.429  0.00  0.00    +0.139 A 
ATOM     21  C   UNL     1      32.999 -14.669 -21.613  0.00  0.00    +0.013 A 
ATOM     22  C   UNL     1      32.638 -13.339 -21.954  0.00  0.00    +0.033 A 
ATOM     23  C   UNL     1      33.512 -12.958 -22.966  0.00  0.00    +0.145 A 
ATOM     24  C   UNL     1      32.369 -15.523 -20.588  0.00  0.00    +0.034 C 
ATOM     25  C   UNL     1      31.671 -12.416 -21.519  0.00  0.00    +0.003 C 
ATOM     26  C   UNL     1      33.493 -11.709 -23.586  0.00  0.00    +0.037 C 
ATOM     27  C   UNL     1      31.627 -11.152 -22.123  0.00  0.00    +0.000 C 
ATOM     28  C   UNL     1      32.524 -10.807 -23.137  0.00  0.00    +0.003 C 
ENDBRANCH  18  20
ENDBRANCH  15  18
ENDBRANCH  13  16
ENDBRANCH  10  12
BRANCH   2  29
ATOM     29  C   UNL     1      33.405 -23.500 -16.793  0.00  0.00    +0.257 C 
BRANCH  29  30
ATOM     30  O   UNL     1      32.984 -22.969 -15.551  0.00  0.00    -0.251 OA
BRANCH  30  31
ATOM     31  P   UNL     1      32.509 -23.997 -14.395  0.00  0.00    +0.475 P 
ATOM     32  O   UNL     1      31.207 -24.700 -14.649  0.00  0.00    -0.227 OA
BRANCH  31  33
ATOM     33  O   UNL     1      32.548 -23.093 -13.055  0.00  0.00    -0.303 OA
ATOM     34  H   UNL     1      31.908 -22.368 -13.135  0.00  0.00    +0.222 HD
ENDBRANCH  31  33
BRANCH  31  35
ATOM     35  O   UNL     1      33.782 -24.979 -14.210  0.00  0.00    -0.303 OA
ATOM     36  H   UNL     1      33.772 -25.657 -14.903  0.00  0.00    +0.222 HD
ENDBRANCH  31  35
ENDBRANCH  30  31
ENDBRANCH  29  30
ENDBRANCH   2  29
TORSDOF 9
ENDMDL
MODEL 4
REMARK VINA RESULT:     -11.2      1.891      3.116
REMARK  Name = 72696796
REMARK  9 active torsions:
REMARK  status: ('A' for Active; 'I' for Inactive)
REMARK    1  A    between atoms: N_2  and  C_29
REMARK    2  A    between atoms: C_10  and  C_12
REMARK    3  A    between atoms: C_13  and  C_16
REMARK    4  A    between atoms: N_15  and  C_18
REMARK    5  A    between atoms: C_18  and  C_20
REMARK    6  A    between atoms: C_29  and  O_30
REMARK    7  A    between atoms: O_30  and  P_31
REMARK    8  A    between atoms: P_31  and  O_33
REMARK    9  A    between atoms: P_31  and  O_35
REMARK                            x       y       z     vdW  Elec       q    Type
REMARK                         _______ _______ _______ _____ _____    ______ ____
ROOT
ATOM      1  O   UNL     1      33.088  -6.644 -22.384  0.00  0.00    -0.274 OA
ATOM      2  N   UNL     1      32.652  -8.932 -22.459  0.00  0.00    -0.217 N 
ATOM      3  N   UNL     1      32.200 -11.286 -22.667  0.00  0.00    -0.229 NA
ATOM      4  C   UNL     1      34.831  -9.124 -24.286  0.00  0.00    +0.039 C 
ATOM      5  C   UNL     1      33.978 -10.311 -23.966  0.00  0.00    +0.010 C 
ATOM      6  C   UNL     1      34.002  -7.858 -24.216  0.00  0.00    +0.090 C 
ATOM      7  C   UNL     1      32.933 -10.207 -23.045  0.00  0.00    +0.135 C 
ATOM      8  C   UNL     1      33.235  -7.747 -22.915  0.00  0.00    +0.233 C 
ATOM      9  C   UNL     1      34.265 -11.566 -24.510  0.00  0.00    +0.000 C 
ATOM     10  C   UNL     1      33.510 -12.672 -24.145  0.00  0.00    +0.019 C 
ATOM     11  C   UNL     1      32.498 -12.480 -23.225  0.00  0.00    +0.100 C 
ENDROOT
BRANCH  10  12
ATOM     12  C   UNL     1      33.767 -13.981 -24.717  0.00  0.00    +0.006 C 
ATOM     13  C   UNL     1      33.663 -15.158 -24.056  0.00  0.00    +0.058 C 
BRANCH  13  16
ATOM     14  O   UNL     1      33.575 -16.639 -25.893  0.00  0.00    -0.270 OA
ATOM     15  N   UNL     1      34.781 -17.342 -24.034  0.00  0.00    -0.267 N 
ATOM     16  C   UNL     1      33.986 -16.440 -24.748  0.00  0.00    +0.250 C 
ATOM     17  C   UNL     1      35.166 -18.604 -24.654  0.00  0.00    +0.116 C 
BRANCH  15  18
ATOM     18  C   UNL     1      35.310 -17.114 -22.691  0.00  0.00    +0.158 C 
BRANCH  18  20
ATOM     19  O   UNL     1      33.885 -18.671 -21.494  0.00  0.00    -0.456 OA
ATOM     20  C   UNL     1      35.159 -18.326 -21.816  0.00  0.00    +0.139 A 
ATOM     21  C   UNL     1      36.058 -19.197 -21.247  0.00  0.00    +0.013 A 
ATOM     22  C   UNL     1      35.292 -20.147 -20.522  0.00  0.00    +0.033 A 
ATOM     23  C   UNL     1      33.963 -19.780 -20.705  0.00  0.00    +0.145 A 
ATOM     24  C   UNL     1      37.528 -19.149 -21.368  0.00  0.00    +0.034 C 
ATOM     25  C   UNL     1      35.575 -21.275 -19.732  0.00  0.00    +0.003 C 
ATOM     26  C   UNL     1      32.881 -20.463 -20.153  0.00  0.00    +0.037 C 
ATOM     27  C   UNL     1      34.507 -21.983 -19.163  0.00  0.00    +0.000 C 
ATOM     28  C   UNL     1      33.185 -21.581 -19.371  0.00  0.00    +0.003 C 
ENDBRANCH  18  20
ENDBRANCH  15  18
ENDBRANCH  13  16
ENDBRANCH  10  12
BRANCH   2  29
ATOM     29  C   UNL     1      31.718  -8.905 -21.337  0.00  0.00    +0.257 C 
BRANCH  29  30
ATOM     30  O   UNL     1      32.305  -9.575 -20.237  0.00  0.00    -0.251 OA
BRANCH  30  31
ATOM     31  P   UNL     1      31.483 -10.786 -19.547  0.00  0.00    +0.475 P 
ATOM     32  O   UNL     1      31.202 -10.625 -18.081  0.00  0.00    -0.227 OA
BRANCH  31  33
ATOM     33  O   UNL     1      32.351 -12.093 -19.937  0.00  0.00    -0.303 OA
ATOM     34  H   UNL     1      33.191 -12.080 -19.452  0.00  0.00    +0.222 HD
ENDBRANCH  31  33
BRANCH  31  35
ATOM     35  O   UNL     1      30.166 -10.933 -20.476  0.00  0.00    -0.303 OA
ATOM     36  H   UNL     1      29.585 -11.617 -20.108  0.00  0.00    +0.222 HD
ENDBRANCH  31  35
ENDBRANCH  30  31
ENDBRANCH  29  30
ENDBRANCH   2  29
TORSDOF 9
ENDMDL
MODEL 5
REMARK VINA RESULT:     -10.9      1.300      2.341
REMARK  Name = 72696796
REMARK  9 active torsions:
REMARK  status: ('A' for Active; 'I' for Inactive)
REMARK    1  A    between atoms: N_2  and  C_29
REMARK    2  A    between atoms: C_10  and  C_12
REMARK    3  A    between atoms: C_13  and  C_16
REMARK    4  A    between atoms: N_15  and  C_18
REMARK    5  A    between atoms: C_18  and  C_20
REMARK    6  A    between atoms: C_29  and  O_30
REMARK    7  A    between atoms: O_30  and  P_31
REMARK    8  A    between atoms: P_31  and  O_33
REMARK    9  A    between atoms: P_31  and  O_35
REMARK                            x       y       z     vdW  Elec       q    Type
REMARK                         _______ _______ _______ _____ _____    ______ ____
ROOT
ATOM      1  O   UNL     1      34.106  -6.672 -23.181  0.00  0.00    -0.274 OA
ATOM      2  N   UNL     1      33.168  -8.794 -22.965  0.00  0.00    -0.217 N 
ATOM      3  N   UNL     1      32.202 -10.996 -22.873  0.00  0.00    -0.229 NA
ATOM      4  C   UNL     1      35.276  -9.720 -24.646  0.00  0.00    +0.039 C 
ATOM      5  C   UNL     1      34.173 -10.631 -24.208  0.00  0.00    +0.010 C 
ATOM      6  C   UNL     1      34.752  -8.306 -24.787  0.00  0.00    +0.090 C 
ATOM      7  C   UNL     1      33.165 -10.170 -23.360  0.00  0.00    +0.135 C 
ATOM      8  C   UNL     1      34.010  -7.844 -23.550  0.00  0.00    +0.233 C 
ATOM      9  C   UNL     1      34.179 -11.984 -24.564  0.00  0.00    +0.000 C 
ATOM     10  C   UNL     1      33.190 -12.832 -24.087  0.00  0.00    +0.019 C 
ATOM     11  C   UNL     1      32.233 -12.293 -23.250  0.00  0.00    +0.100 C 
ENDROOT
BRANCH  10  12
ATOM     12  C   UNL     1      33.154 -14.233 -24.464  0.00  0.00    +0.006 C 
ATOM     13  C   UNL     1      34.206 -15.084 -24.415  0.00  0.00    +0.058 C 
BRANCH  13  16
ATOM     14  O   UNL     1      33.547 -16.742 -25.961  0.00  0.00    -0.270 OA
ATOM     15  N   UNL     1      34.530 -17.478 -23.988  0.00  0.00    -0.267 N 
ATOM     16  C   UNL     1      34.052 -16.499 -24.863  0.00  0.00    +0.250 C 
ATOM     17  C   UNL     1      34.442 -18.883 -24.368  0.00  0.00    +0.116 C 
BRANCH  15  18
ATOM     18  C   UNL     1      35.163 -17.215 -22.697  0.00  0.00    +0.158 C 
BRANCH  18  20
ATOM     19  O   UNL     1      33.870 -18.819 -21.415  0.00  0.00    -0.456 OA
ATOM     20  C   UNL     1      35.110 -18.412 -21.791  0.00  0.00    +0.139 A 
ATOM     21  C   UNL     1      36.077 -19.219 -21.238  0.00  0.00    +0.013 A 
ATOM     22  C   UNL     1      35.391 -20.193 -20.465  0.00  0.00    +0.033 A 
ATOM     23  C   UNL     1      34.038 -19.903 -20.606  0.00  0.00    +0.145 A 
ATOM     24  C   UNL     1      37.536 -19.095 -21.415  0.00  0.00    +0.034 C 
ATOM     25  C   UNL     1      35.764 -21.285 -19.663  0.00  0.00    +0.003 C 
ATOM     26  C   UNL     1      33.016 -20.630 -20.000  0.00  0.00    +0.037 C 
ATOM     27  C   UNL     1      34.758 -22.036 -19.039  0.00  0.00    +0.000 C 
ATOM     28  C   UNL     1      33.409 -21.712 -19.206  0.00  0.00    +0.003 C 
ENDBRANCH  18  20
ENDBRANCH  15  18
ENDBRANCH  13  16
ENDBRANCH  10  12
BRANCH   2  29
ATOM     29  C   UNL     1      32.248  -8.402 -21.902  0.00  0.00    +0.257 C 
BRANCH  29  30
ATOM     30  O   UNL     1      31.185  -7.660 -22.468  0.00  0.00    -0.251 OA
BRANCH  30  31
ATOM     31  P   UNL     1      31.099  -6.075 -22.152  0.00  0.00    +0.475 P 
ATOM     32  O   UNL     1      29.738  -5.562 -21.778  0.00  0.00    -0.227 OA
BRANCH  31  33
ATOM     33  O   UNL     1      31.745  -5.398 -23.471  0.00  0.00    -0.303 OA
ATOM     34  H   UNL     1      31.057  -4.920 -23.959  0.00  0.00    +0.222 HD
ENDBRANCH  31  33
BRANCH  31  35
ATOM     35  O   UNL     1      32.240  -5.846 -21.028  0.00  0.00    -0.303 OA
ATOM     36  H   UNL     1      33.100  -6.126 -21.379  0.00  0.00    +0.222 HD
ENDBRANCH  31  35
ENDBRANCH  30  31
ENDBRANCH  29  30
ENDBRANCH   2  29
TORSDOF 9
ENDMDL
MODEL 6
REMARK VINA RESULT:     -10.6      1.072      1.719
REMARK  Name = 72696796
REMARK  9 active torsions:
REMARK  status: ('A' for Active; 'I' for Inactive)
REMARK    1  A    between atoms: N_2  and  C_29
REMARK    2  A    between atoms: C_10  and  C_12
REMARK    3  A    between atoms: C_13  and  C_16
REMARK    4  A    between atoms: N_15  and  C_18
REMARK    5  A    between atoms: C_18  and  C_20
REMARK    6  A    between atoms: C_29  and  O_30
REMARK    7  A    between atoms: O_30  and  P_31
REMARK    8  A    between atoms: P_31  and  O_33
REMARK    9  A    between atoms: P_31  and  O_35
REMARK                            x       y       z     vdW  Elec       q    Type
REMARK                         _______ _______ _______ _____ _____    ______ ____
ROOT
ATOM      1  O   UNL     1      31.631  -7.807 -20.363  0.00  0.00    -0.274 OA
ATOM      2  N   UNL     1      32.402  -9.243 -22.028  0.00  0.00    -0.217 N 
ATOM      3  N   UNL     1      33.261 -10.794 -23.654  0.00  0.00    -0.229 NA
ATOM      4  C   UNL     1      31.390 -11.377 -20.433  0.00  0.00    +0.039 C 
ATOM      5  C   UNL     1      32.168 -11.642 -21.682  0.00  0.00    +0.010 C 
ATOM      6  C   UNL     1      31.881 -10.101 -19.780  0.00  0.00    +0.090 C 
ATOM      7  C   UNL     1      32.631 -10.585 -22.469  0.00  0.00    +0.135 C 
ATOM      8  C   UNL     1      31.923  -8.940 -20.751  0.00  0.00    +0.233 C 
ATOM      9  C   UNL     1      32.369 -12.950 -22.136  0.00  0.00    +0.000 C 
ATOM     10  C   UNL     1      33.028 -13.175 -23.337  0.00  0.00    +0.019 C 
ATOM     11  C   UNL     1      33.449 -12.072 -24.053  0.00  0.00    +0.100 C 
ENDROOT
BRANCH  10  12
ATOM     12  C   UNL     1      33.277 -14.522 -23.817  0.00  0.00    +0.006 C 
ATOM     13  C   UNL     1      34.498 -15.049 -24.070  0.00  0.00    +0.058 C 
BRANCH  13  16
ATOM     14  O   UNL     1      34.898 -16.626 -25.781  0.00  0.00    -0.270 OA
ATOM     15  N   UNL     1      34.440 -17.468 -23.664  0.00  0.00    -0.267 N 
ATOM     16  C   UNL     1      34.624 -16.441 -24.594  0.00  0.00    +0.250 C 
ATOM     17  C   UNL     1      34.576 -18.854 -24.093  0.00  0.00    +0.116 C 
BRANCH  15  18
ATOM     18  C   UNL     1      34.148 -17.274 -22.245  0.00  0.00    +0.158 C 
BRANCH  18  20
ATOM     19  O   UNL     1      35.760 -18.724 -21.154  0.00  0.00    -0.456 OA
ATOM     20  C   UNL     1      34.449 -18.504 -21.437  0.00  0.00    +0.139 A 
ATOM     21  C   UNL     1      33.663 -19.496 -20.901  0.00  0.00    +0.013 A 
ATOM     22  C   UNL     1      34.543 -20.392 -20.239  0.00  0.00    +0.033 A 
ATOM     23  C   UNL     1      35.820 -19.873 -20.425  0.00  0.00    +0.145 A 
ATOM     24  C   UNL     1      32.194 -19.604 -20.995  0.00  0.00    +0.034 C 
ATOM     25  C   UNL     1      34.402 -21.583 -19.506  0.00  0.00    +0.003 C 
ATOM     26  C   UNL     1      36.982 -20.460 -19.928  0.00  0.00    +0.037 C 
ATOM     27  C   UNL     1      35.553 -22.197 -18.992  0.00  0.00    +0.000 C 
ATOM     28  C   UNL     1      36.819 -21.644 -19.201  0.00  0.00    +0.003 C 
ENDBRANCH  18  20
ENDBRANCH  15  18
ENDBRANCH  13  16
ENDBRANCH  10  12
BRANCH   2  29
ATOM     29  C   UNL     1      32.686  -8.171 -22.977  0.00  0.00    +0.257 C 
BRANCH  29  30
ATOM     30  O   UNL     1      31.462  -7.654 -23.463  0.00  0.00    -0.251 OA
BRANCH  30  31
ATOM     31  P   UNL     1      31.241  -6.051 -23.443  0.00  0.00    +0.475 P 
ATOM     32  O   UNL     1      30.815  -5.440 -24.747  0.00  0.00    -0.227 OA
BRANCH  31  33
ATOM     33  O   UNL     1      32.637  -5.492 -22.851  0.00  0.00    -0.303 OA
ATOM     34  H   UNL     1      32.479  -4.656 -22.384  0.00  0.00    +0.222 HD
ENDBRANCH  31  33
BRANCH  31  35
ATOM     35  O   UNL     1      30.208  -5.823 -22.219  0.00  0.00    -0.303 OA
ATOM     36  H   UNL     1      29.867  -4.915 -22.248  0.00  0.00    +0.222 HD
ENDBRANCH  31  35
ENDBRANCH  30  31
ENDBRANCH  29  30
ENDBRANCH   2  29
TORSDOF 9
ENDMDL
MODEL 7
REMARK VINA RESULT:     -10.3      5.011     11.616
REMARK  Name = 72696796
REMARK  9 active torsions:
REMARK  status: ('A' for Active; 'I' for Inactive)
REMARK    1  A    between atoms: N_2  and  C_29
REMARK    2  A    between atoms: C_10  and  C_12
REMARK    3  A    between atoms: C_13  and  C_16
REMARK    4  A    between atoms: N_15  and  C_18
REMARK    5  A    between atoms: C_18  and  C_20
REMARK    6  A    between atoms: C_29  and  O_30
REMARK    7  A    between atoms: O_30  and  P_31
REMARK    8  A    between atoms: P_31  and  O_33
REMARK    9  A    between atoms: P_31  and  O_35
REMARK                            x       y       z     vdW  Elec       q    Type
REMARK                         _______ _______ _______ _____ _____    ______ ____
ROOT
ATOM      1  O   UNL     1      34.482 -23.135 -17.227  0.00  0.00    -0.274 OA
ATOM      2  N   UNL     1      35.529 -21.624 -18.658  0.00  0.00    -0.217 N 
ATOM      3  N   UNL     1      36.555 -20.126 -20.237  0.00  0.00    -0.229 NA
ATOM      4  C   UNL     1      32.964 -21.202 -19.827  0.00  0.00    +0.039 C 
ATOM      5  C   UNL     1      34.193 -20.568 -20.399  0.00  0.00    +0.010 C 
ATOM      6  C   UNL     1      33.313 -22.542 -19.213  0.00  0.00    +0.090 C 
ATOM      7  C   UNL     1      35.438 -20.760 -19.795  0.00  0.00    +0.135 C 
ATOM      8  C   UNL     1      34.475 -22.444 -18.247  0.00  0.00    +0.233 C 
ATOM      9  C   UNL     1      34.107 -19.698 -21.490  0.00  0.00    +0.000 C 
ATOM     10  C   UNL     1      35.246 -19.059 -21.961  0.00  0.00    +0.019 C 
ATOM     11  C   UNL     1      36.435 -19.304 -21.303  0.00  0.00    +0.100 C 
ENDROOT
BRANCH  10  12
ATOM     12  C   UNL     1      35.192 -18.176 -23.111  0.00  0.00    +0.006 C 
ATOM     13  C   UNL     1      34.378 -17.101 -23.234  0.00  0.00    +0.058 C 
BRANCH  13  16
ATOM     14  O   UNL     1      34.913 -16.740 -25.506  0.00  0.00    -0.270 OA
ATOM     15  N   UNL     1      33.768 -15.037 -24.413  0.00  0.00    -0.267 N 
ATOM     16  C   UNL     1      34.392 -16.286 -24.485  0.00  0.00    +0.250 C 
ATOM     17  C   UNL     1      33.713 -14.196 -25.602  0.00  0.00    +0.116 C 
BRANCH  15  18
ATOM     18  C   UNL     1      33.114 -14.492 -23.226  0.00  0.00    +0.158 C 
BRANCH  18  20
ATOM     19  O   UNL     1      34.075 -12.406 -24.008  0.00  0.00    -0.456 OA
ATOM     20  C   UNL     1      33.147 -12.991 -23.207  0.00  0.00    +0.139 A 
ATOM     21  C   UNL     1      32.418 -12.039 -22.532  0.00  0.00    +0.013 A 
ATOM     22  C   UNL     1      32.927 -10.779 -22.942  0.00  0.00    +0.033 A 
ATOM     23  C   UNL     1      33.944 -11.059 -23.848  0.00  0.00    +0.145 A 
ATOM     24  C   UNL     1      31.323 -12.284 -21.574  0.00  0.00    +0.034 C 
ATOM     25  C   UNL     1      32.642  -9.435 -22.646  0.00  0.00    +0.003 C 
ATOM     26  C   UNL     1      34.707 -10.086 -24.491  0.00  0.00    +0.037 C 
ATOM     27  C   UNL     1      33.393  -8.433 -23.277  0.00  0.00    +0.000 C 
ATOM     28  C   UNL     1      34.407  -8.756 -24.182  0.00  0.00    +0.003 C 
ENDBRANCH  18  20
ENDBRANCH  15  18
ENDBRANCH  13  16
ENDBRANCH  10  12
BRANCH   2  29
ATOM     29  C   UNL     1      36.786 -21.619 -17.916  0.00  0.00    +0.257 C 
BRANCH  29  30
ATOM     30  O   UNL     1      36.501 -21.715 -16.533  0.00  0.00    -0.251 OA
BRANCH  30  31
ATOM     31  P   UNL     1      37.349 -22.768 -15.643  0.00  0.00    +0.475 P 
ATOM     32  O   UNL     1      37.518 -22.404 -14.197  0.00  0.00    -0.227 OA
BRANCH  31  33
ATOM     33  O   UNL     1      38.727 -22.929 -16.473  0.00  0.00    -0.303 OA
ATOM     34  H   UNL     1      39.249 -23.654 -16.096  0.00  0.00    +0.222 HD
ENDBRANCH  31  33
BRANCH  31  35
ATOM     35  O   UNL     1      36.599 -24.178 -15.903  0.00  0.00    -0.303 OA
ATOM     36  H   UNL     1      36.719 -24.755 -15.132  0.00  0.00    +0.222 HD
ENDBRANCH  31  35
ENDBRANCH  30  31
ENDBRANCH  29  30
ENDBRANCH   2  29
TORSDOF 9
ENDMDL
MODEL 8
REMARK VINA RESULT:     -10.1      7.670     13.675
REMARK  Name = 72696796
REMARK  9 active torsions:
REMARK  status: ('A' for Active; 'I' for Inactive)
REMARK    1  A    between atoms: N_2  and  C_29
REMARK    2  A    between atoms: C_10  and  C_12
REMARK    3  A    between atoms: C_13  and  C_16
REMARK    4  A    between atoms: N_15  and  C_18
REMARK    5  A    between atoms: C_18  and  C_20
REMARK    6  A    between atoms: C_29  and  O_30
REMARK    7  A    between atoms: O_30  and  P_31
REMARK    8  A    between atoms: P_31  and  O_33
REMARK    9  A    between atoms: P_31  and  O_35
REMARK                            x       y       z     vdW  Elec       q    Type
REMARK                         _______ _______ _______ _____ _____    ______ ____
ROOT
ATOM      1  O   UNL     1      37.454 -24.506 -10.885  0.00  0.00    -0.274 OA
ATOM      2  N   UNL     1      37.334 -23.855 -13.118  0.00  0.00    -0.217 N 
ATOM      3  N   UNL     1      37.122 -23.277 -15.444  0.00  0.00    -0.229 NA
ATOM      4  C   UNL     1      34.508 -23.733 -12.764  0.00  0.00    +0.039 C 
ATOM      5  C   UNL     1      35.133 -23.522 -14.107  0.00  0.00    +0.010 C 
ATOM      6  C   UNL     1      35.338 -24.709 -11.956  0.00  0.00    +0.090 C 
ATOM      7  C   UNL     1      36.521 -23.554 -14.258  0.00  0.00    +0.135 C 
ATOM      8  C   UNL     1      36.801 -24.319 -11.913  0.00  0.00    +0.233 C 
ATOM      9  C   UNL     1      34.349 -23.197 -15.218  0.00  0.00    +0.000 C 
ATOM     10  C   UNL     1      34.951 -22.930 -16.440  0.00  0.00    +0.019 C 
ATOM     11  C   UNL     1      36.329 -22.981 -16.499  0.00  0.00    +0.100 C 
ENDROOT
BRANCH  10  12
ATOM     12  C   UNL     1      34.160 -22.620 -17.616  0.00  0.00    +0.006 C 
ATOM     13  C   UNL     1      34.537 -21.789 -18.617  0.00  0.00    +0.058 C 
BRANCH  13  16
ATOM     14  O   UNL     1      32.610 -22.219 -19.912  0.00  0.00    -0.270 OA
ATOM     15  N   UNL     1      33.963 -20.457 -20.595  0.00  0.00    -0.267 N 
ATOM     16  C   UNL     1      33.618 -21.525 -19.762  0.00  0.00    +0.250 C 
ATOM     17  C   UNL     1      33.098 -20.116 -21.718  0.00  0.00    +0.116 C 
BRANCH  15  18
ATOM     18  C   UNL     1      35.132 -19.598 -20.419  0.00  0.00    +0.158 C 
BRANCH  18  20
ATOM     19  O   UNL     1      34.547 -17.243 -20.388  0.00  0.00    -0.456 OA
ATOM     20  C   UNL     1      34.980 -18.289 -21.140  0.00  0.00    +0.139 A 
ATOM     21  C   UNL     1      35.190 -17.899 -22.442  0.00  0.00    +0.013 A 
ATOM     22  C   UNL     1      34.866 -16.518 -22.504  0.00  0.00    +0.033 A 
ATOM     23  C   UNL     1      34.475 -16.163 -21.217  0.00  0.00    +0.145 A 
ATOM     24  C   UNL     1      35.661 -18.750 -23.551  0.00  0.00    +0.034 C 
ATOM     25  C   UNL     1      34.859 -15.531 -23.504  0.00  0.00    +0.003 C 
ATOM     26  C   UNL     1      34.073 -14.881 -20.848  0.00  0.00    +0.037 C 
ATOM     27  C   UNL     1      34.459 -14.231 -23.164  0.00  0.00    +0.000 C 
ATOM     28  C   UNL     1      34.073 -13.915 -21.859  0.00  0.00    +0.003 C 
ENDBRANCH  18  20
ENDBRANCH  15  18
ENDBRANCH  13  16
ENDBRANCH  10  12
BRANCH   2  29
ATOM     29  C   UNL     1      38.773 -23.652 -13.253  0.00  0.00    +0.257 C 
BRANCH  29  30
ATOM     30  O   UNL     1      39.415 -24.912 -13.255  0.00  0.00    -0.251 OA
BRANCH  30  31
ATOM     31  P   UNL     1      39.792 -25.583 -14.679  0.00  0.00    +0.475 P 
ATOM     32  O   UNL     1      40.965 -26.519 -14.663  0.00  0.00    -0.227 OA
BRANCH  31  33
ATOM     33  O   UNL     1      39.947 -24.308 -15.660  0.00  0.00    -0.303 OA
ATOM     34  H   UNL     1      40.040 -24.614 -16.576  0.00  0.00    +0.222 HD
ENDBRANCH  31  33
BRANCH  31  35
ATOM     35  O   UNL     1      38.400 -26.251 -15.166  0.00  0.00    -0.303 OA
ATOM     36  H   UNL     1      38.015 -25.715 -15.876  0.00  0.00    +0.222 HD
ENDBRANCH  31  35
ENDBRANCH  30  31
ENDBRANCH  29  30
ENDBRANCH   2  29
TORSDOF 9
ENDMDL
MODEL 9
REMARK VINA RESULT:     -10.0      6.771     10.917
REMARK  Name = 72696796
REMARK  9 active torsions:
REMARK  status: ('A' for Active; 'I' for Inactive)
REMARK    1  A    between atoms: N_2  and  C_29
REMARK    2  A    between atoms: C_10  and  C_12
REMARK    3  A    between atoms: C_13  and  C_16
REMARK    4  A    between atoms: N_15  and  C_18
REMARK    5  A    between atoms: C_18  and  C_20
REMARK    6  A    between atoms: C_29  and  O_30
REMARK    7  A    between atoms: O_30  and  P_31
REMARK    8  A    between atoms: P_31  and  O_33
REMARK    9  A    between atoms: P_31  and  O_35
REMARK                            x       y       z     vdW  Elec       q    Type
REMARK                         _______ _______ _______ _____ _____    ______ ____
ROOT
ATOM      1  O   UNL     1      36.995 -18.600 -21.940  0.00  0.00    -0.274 OA
ATOM      2  N   UNL     1      35.071 -19.565 -21.048  0.00  0.00    -0.217 N 
ATOM      3  N   UNL     1      33.141 -20.678 -20.141  0.00  0.00    -0.229 NA
ATOM      4  C   UNL     1      36.792 -20.935 -19.236  0.00  0.00    +0.039 C 
ATOM      5  C   UNL     1      35.323 -21.214 -19.274  0.00  0.00    +0.010 C 
ATOM      6  C   UNL     1      37.283 -20.559 -20.619  0.00  0.00    +0.090 C 
ATOM      7  C   UNL     1      34.489 -20.512 -20.147  0.00  0.00    +0.135 C 
ATOM      8  C   UNL     1      36.450 -19.457 -21.242  0.00  0.00    +0.233 C 
ATOM      9  C   UNL     1      34.742 -22.115 -18.376  0.00  0.00    +0.000 C 
ATOM     10  C   UNL     1      33.368 -22.306 -18.374  0.00  0.00    +0.019 C 
ATOM     11  C   UNL     1      32.618 -21.568 -19.268  0.00  0.00    +0.100 C 
ENDROOT
BRANCH  10  12
ATOM     12  C   UNL     1      32.742 -23.257 -17.474  0.00  0.00    +0.006 C 
ATOM     13  C   UNL     1      31.825 -22.950 -16.525  0.00  0.00    +0.058 C 
BRANCH  13  16
ATOM     14  O   UNL     1      30.368 -24.744 -16.041  0.00  0.00    -0.270 OA
ATOM     15  N   UNL     1      31.872 -24.133 -14.376  0.00  0.00    -0.267 N 
ATOM     16  C   UNL     1      31.277 -24.016 -15.636  0.00  0.00    +0.250 C 
ATOM     17  C   UNL     1      31.412 -25.171 -13.462  0.00  0.00    +0.116 C 
BRANCH  15  18
ATOM     18  C   UNL     1      32.973 -23.306 -13.887  0.00  0.00    +0.158 C 
BRANCH  18  20
ATOM     19  O   UNL     1      34.599 -24.798 -14.896  0.00  0.00    -0.456 OA
ATOM     20  C   UNL     1      34.257 -24.080 -13.795  0.00  0.00    +0.139 A 
ATOM     21  C   UNL     1      35.200 -24.228 -12.804  0.00  0.00    +0.013 A 
ATOM     22  C   UNL     1      36.195 -25.097 -13.325  0.00  0.00    +0.033 A 
ATOM     23  C   UNL     1      35.779 -25.420 -14.612  0.00  0.00    +0.145 A 
ATOM     24  C   UNL     1      35.179 -23.605 -11.467  0.00  0.00    +0.034 C 
ATOM     25  C   UNL     1      37.399 -25.646 -12.851  0.00  0.00    +0.003 C 
ATOM     26  C   UNL     1      36.482 -26.259 -15.473  0.00  0.00    +0.037 C 
ATOM     27  C   UNL     1      38.129 -26.495 -13.694  0.00  0.00    +0.000 C 
ATOM     28  C   UNL     1      37.677 -26.794 -14.982  0.00  0.00    +0.003 C 
ENDBRANCH  18  20
ENDBRANCH  15  18
ENDBRANCH  13  16
ENDBRANCH  10  12
BRANCH   2  29
ATOM     29  C   UNL     1      34.159 -18.687 -21.774  0.00  0.00    +0.257 C 
BRANCH  29  30
ATOM     30  O   UNL     1      33.820 -17.592 -20.944  0.00  0.00    -0.251 OA
BRANCH  30  31
ATOM     31  P   UNL     1      34.107 -16.095 -21.489  0.00  0.00    +0.475 P 
ATOM     32  O   UNL     1      32.900 -15.335 -21.958  0.00  0.00    -0.227 OA
BRANCH  31  33
ATOM     33  O   UNL     1      35.251 -16.321 -22.608  0.00  0.00    -0.303 OA
ATOM     34  H   UNL     1      35.845 -15.554 -22.623  0.00  0.00    +0.222 HD
ENDBRANCH  31  33
BRANCH  31  35
ATOM     35  O   UNL     1      34.917 -15.395 -20.275  0.00  0.00    -0.303 OA
ATOM     36  H   UNL     1      34.288 -15.003 -19.650  0.00  0.00    +0.222 HD
ENDBRANCH  31  35
ENDBRANCH  30  31
ENDBRANCH  29  30
ENDBRANCH   2  29
TORSDOF 9
ENDMDL
