MODEL 1
REMARK VINA RESULT:      -6.6      0.000      0.000
REMARK  Name = 492405
REMARK  1 active torsions:
REMARK  status: ('A' for Active; 'I' for Inactive)
REMARK    1  A    between atoms: C_5  and  C_12
REMARK                            x       y       z     vdW  Elec       q    Type
REMARK                         _______ _______ _______ _____ _____    ______ ____
ROOT
ATOM      1  F   UNL     1      37.595 -23.172 -11.361  0.00  0.00    -0.172 F 
ATOM      2  O   UNL     1      38.085 -27.216 -14.776  0.00  0.00    -0.267 OA
ATOM      3  N   UNL     1      36.730 -26.013 -13.326  0.00  0.00    -0.291 N 
ATOM      4  N   UNL     1      38.935 -24.388 -12.819  0.00  0.00    -0.367 NA
ATOM      5  C   UNL     1      39.055 -25.377 -13.653  0.00  0.00    +0.239 C 
ATOM      6  C   UNL     1      37.904 -26.306 -13.982  0.00  0.00    +0.281 C 
ATOM      7  C   UNL     1      36.642 -24.967 -12.456  0.00  0.00    +0.181 C 
ATOM      8  C   UNL     1      37.713 -24.202 -12.228  0.00  0.00    +0.268 C 
ATOM      9  H   UNL     1      35.936 -26.572 -13.488  0.00  0.00    +0.150 HD
ENDROOT
BRANCH   5  12
ATOM     10  O   UNL     1      40.923 -24.548 -14.771  0.00  0.00    -0.267 OA
ATOM     11  N   UNL     1      40.912 -26.793 -14.162  0.00  0.00    -0.323 N 
ATOM     12  C   UNL     1      40.409 -25.527 -14.261  0.00  0.00    +0.277 C 
ATOM     13  H   UNL     1      41.801 -27.000 -14.532  0.00  0.00    +0.145 HD
ATOM     14  H   UNL     1      40.386 -27.499 -13.720  0.00  0.00    +0.145 HD
ENDBRANCH   5  12
TORSDOF 1
ENDMDL
MODEL 2
REMARK VINA RESULT:      -6.5      2.777      3.833
REMARK  Name = 492405
REMARK  1 active torsions:
REMARK  status: ('A' for Active; 'I' for Inactive)
REMARK    1  A    between atoms: C_5  and  C_12
REMARK                            x       y       z     vdW  Elec       q    Type
REMARK                         _______ _______ _______ _____ _____    ______ ____
ROOT
ATOM      1  F   UNL     1      39.267 -23.922 -15.817  0.00  0.00    -0.172 F 
ATOM      2  O   UNL     1      36.842 -26.339 -11.751  0.00  0.00    -0.267 OA
ATOM      3  N   UNL     1      38.100 -26.530 -13.692  0.00  0.00    -0.291 N 
ATOM      4  N   UNL     1      38.010 -23.752 -13.871  0.00  0.00    -0.367 NA
ATOM      5  C   UNL     1      37.416 -24.343 -12.876  0.00  0.00    +0.239 C 
ATOM      6  C   UNL     1      37.419 -25.848 -12.708  0.00  0.00    +0.281 C 
ATOM      7  C   UNL     1      38.709 -25.876 -14.721  0.00  0.00    +0.181 C 
ATOM      8  C   UNL     1      38.653 -24.543 -14.786  0.00  0.00    +0.268 C 
ATOM      9  H   UNL     1      38.147 -27.512 -13.652  0.00  0.00    +0.150 HD
ENDROOT
BRANCH   5  12
ATOM     10  O   UNL     1      37.426 -22.736 -11.190  0.00  0.00    -0.267 OA
ATOM     11  N   UNL     1      35.372 -23.489 -11.981  0.00  0.00    -0.323 N 
ATOM     12  C   UNL     1      36.735 -23.427 -11.916  0.00  0.00    +0.277 C 
ATOM     13  H   UNL     1      34.825 -22.923 -11.388  0.00  0.00    +0.145 HD
ATOM     14  H   UNL     1      34.936 -24.098 -12.621  0.00  0.00    +0.145 HD
ENDBRANCH   5  12
TORSDOF 1
ENDMDL
MODEL 3
REMARK VINA RESULT:      -6.4     14.914     15.285
REMARK  Name = 492405
REMARK  1 active torsions:
REMARK  status: ('A' for Active; 'I' for Inactive)
REMARK    1  A    between atoms: C_5  and  C_12
REMARK                            x       y       z     vdW  Elec       q    Type
REMARK                         _______ _______ _______ _____ _____    ______ ____
ROOT
ATOM      1  F   UNL     1      34.565 -19.726 -25.245  0.00  0.00    -0.172 F 
ATOM      2  O   UNL     1      34.966 -14.842 -23.185  0.00  0.00    -0.267 OA
ATOM      3  N   UNL     1      35.493 -17.098 -23.029  0.00  0.00    -0.291 N 
ATOM      4  N   UNL     1      34.050 -17.465 -25.384  0.00  0.00    -0.367 NA
ATOM      5  C   UNL     1      34.148 -16.271 -24.880  0.00  0.00    +0.239 C 
ATOM      6  C   UNL     1      34.914 -15.988 -23.604  0.00  0.00    +0.281 C 
ATOM      7  C   UNL     1      35.368 -18.335 -23.587  0.00  0.00    +0.181 C 
ATOM      8  C   UNL     1      34.671 -18.488 -24.716  0.00  0.00    +0.268 C 
ATOM      9  H   UNL     1      36.008 -16.995 -22.198  0.00  0.00    +0.150 HD
ENDROOT
BRANCH   5  12
ATOM     10  O   UNL     1      33.535 -15.222 -26.868  0.00  0.00    -0.267 OA
ATOM     11  N   UNL     1      32.785 -14.308 -24.865  0.00  0.00    -0.323 N 
ATOM     12  C   UNL     1      33.451 -15.203 -25.654  0.00  0.00    +0.277 C 
ATOM     13  H   UNL     1      32.290 -13.562 -25.276  0.00  0.00    +0.145 HD
ATOM     14  H   UNL     1      32.799 -14.409 -23.885  0.00  0.00    +0.145 HD
ENDBRANCH   5  12
TORSDOF 1
ENDMDL
MODEL 4
REMARK VINA RESULT:      -6.3      9.375      9.615
REMARK  Name = 492405
REMARK  1 active torsions:
REMARK  status: ('A' for Active; 'I' for Inactive)
REMARK    1  A    between atoms: C_5  and  C_12
REMARK                            x       y       z     vdW  Elec       q    Type
REMARK                         _______ _______ _______ _____ _____    ______ ____
ROOT
ATOM      1  F   UNL     1      36.673 -22.136 -18.453  0.00  0.00    -0.172 F 
ATOM      2  O   UNL     1      32.332 -20.267 -20.886  0.00  0.00    -0.267 OA
ATOM      3  N   UNL     1      33.275 -21.856 -19.481  0.00  0.00    -0.291 N 
ATOM      4  N   UNL     1      35.709 -20.555 -19.856  0.00  0.00    -0.367 NA
ATOM      5  C   UNL     1      34.648 -20.097 -20.451  0.00  0.00    +0.239 C 
ATOM      6  C   UNL     1      33.289 -20.748 -20.299  0.00  0.00    +0.281 C 
ATOM      7  C   UNL     1      34.410 -22.307 -18.874  0.00  0.00    +0.181 C 
ATOM      8  C   UNL     1      35.565 -21.667 -19.069  0.00  0.00    +0.268 C 
ATOM      9  H   UNL     1      32.428 -22.334 -19.332  0.00  0.00    +0.150 HD
ENDROOT
BRANCH   5  12
ATOM     10  O   UNL     1      35.299 -17.882 -20.756  0.00  0.00    -0.267 OA
ATOM     11  N   UNL     1      34.551 -19.073 -22.608  0.00  0.00    -0.323 N 
ATOM     12  C   UNL     1      34.871 -18.886 -21.293  0.00  0.00    +0.277 C 
ATOM     13  H   UNL     1      34.661 -18.335 -23.251  0.00  0.00    +0.145 HD
ATOM     14  H   UNL     1      34.211 -19.945 -22.913  0.00  0.00    +0.145 HD
ENDBRANCH   5  12
TORSDOF 1
ENDMDL
MODEL 5
REMARK VINA RESULT:      -6.2      3.124      4.075
REMARK  Name = 492405
REMARK  1 active torsions:
REMARK  status: ('A' for Active; 'I' for Inactive)
REMARK    1  A    between atoms: C_5  and  C_12
REMARK                            x       y       z     vdW  Elec       q    Type
REMARK                         _______ _______ _______ _____ _____    ______ ____
ROOT
ATOM      1  F   UNL     1      33.820 -23.252 -16.109  0.00  0.00    -0.172 F 
ATOM      2  O   UNL     1      38.744 -24.481 -14.528  0.00  0.00    -0.267 OA
ATOM      3  N   UNL     1      37.195 -22.834 -15.052  0.00  0.00    -0.291 N 
ATOM      4  N   UNL     1      35.385 -24.885 -15.579  0.00  0.00    -0.367 NA
ATOM      5  C   UNL     1      36.589 -25.186 -15.193  0.00  0.00    +0.239 C 
ATOM      6  C   UNL     1      37.631 -24.130 -14.887  0.00  0.00    +0.281 C 
ATOM      7  C   UNL     1      35.924 -22.557 -15.460  0.00  0.00    +0.181 C 
ATOM      8  C   UNL     1      35.073 -23.557 -15.707  0.00  0.00    +0.268 C 
ATOM      9  H   UNL     1      37.814 -22.091 -14.872  0.00  0.00    +0.150 HD
ENDROOT
BRANCH   5  12
ATOM     10  O   UNL     1      36.789 -27.332 -16.077  0.00  0.00    -0.267 OA
ATOM     11  N   UNL     1      37.177 -27.038 -13.802  0.00  0.00    -0.323 N 
ATOM     12  C   UNL     1      36.865 -26.647 -15.074  0.00  0.00    +0.277 C 
ATOM     13  H   UNL     1      37.377 -27.985 -13.614  0.00  0.00    +0.145 HD
ATOM     14  H   UNL     1      37.202 -26.375 -13.075  0.00  0.00    +0.145 HD
ENDBRANCH   5  12
TORSDOF 1
ENDMDL
MODEL 6
REMARK VINA RESULT:      -6.1     11.830     12.157
REMARK  Name = 492405
REMARK  1 active torsions:
REMARK  status: ('A' for Active; 'I' for Inactive)
REMARK    1  A    between atoms: C_5  and  C_12
REMARK                            x       y       z     vdW  Elec       q    Type
REMARK                         _______ _______ _______ _____ _____    ______ ____
ROOT
ATOM      1  F   UNL     1      34.549 -19.140 -25.229  0.00  0.00    -0.172 F 
ATOM      2  O   UNL     1      35.357 -16.965 -20.446  0.00  0.00    -0.267 OA
ATOM      3  N   UNL     1      35.081 -16.659 -22.730  0.00  0.00    -0.291 N 
ATOM      4  N   UNL     1      34.827 -19.425 -22.940  0.00  0.00    -0.367 NA
ATOM      5  C   UNL     1      35.024 -18.894 -21.770  0.00  0.00    +0.239 C 
ATOM      6  C   UNL     1      35.173 -17.399 -21.573  0.00  0.00    +0.281 C 
ATOM      7  C   UNL     1      34.874 -17.252 -23.940  0.00  0.00    +0.181 C 
ATOM      8  C   UNL     1      34.755 -18.580 -24.016  0.00  0.00    +0.268 C 
ATOM      9  H   UNL     1      35.167 -15.680 -22.683  0.00  0.00    +0.150 HD
ENDROOT
BRANCH   5  12
ATOM     10  O   UNL     1      34.086 -20.486 -20.352  0.00  0.00    -0.267 OA
ATOM     11  N   UNL     1      36.326 -19.932 -20.056  0.00  0.00    -0.323 N 
ATOM     12  C   UNL     1      35.093 -19.866 -20.641  0.00  0.00    +0.277 C 
ATOM     13  H   UNL     1      36.479 -20.544 -19.299  0.00  0.00    +0.145 HD
ATOM     14  H   UNL     1      37.061 -19.369 -20.391  0.00  0.00    +0.145 HD
ENDBRANCH   5  12
TORSDOF 1
ENDMDL
MODEL 7
REMARK VINA RESULT:      -6.1      2.447      2.470
REMARK  Name = 492405
REMARK  1 active torsions:
REMARK  status: ('A' for Active; 'I' for Inactive)
REMARK    1  A    between atoms: C_5  and  C_12
REMARK                            x       y       z     vdW  Elec       q    Type
REMARK                         _______ _______ _______ _____ _____    ______ ____
ROOT
ATOM      1  F   UNL     1      37.654 -21.801 -15.953  0.00  0.00    -0.172 F 
ATOM      2  O   UNL     1      37.242 -26.886 -14.460  0.00  0.00    -0.267 OA
ATOM      3  N   UNL     1      36.175 -24.898 -15.005  0.00  0.00    -0.291 N 
ATOM      4  N   UNL     1      38.703 -23.800 -15.405  0.00  0.00    -0.367 NA
ATOM      5  C   UNL     1      38.603 -25.043 -15.040  0.00  0.00    +0.239 C 
ATOM      6  C   UNL     1      37.266 -25.714 -14.802  0.00  0.00    +0.281 C 
ATOM      7  C   UNL     1      36.320 -23.598 -15.388  0.00  0.00    +0.181 C 
ATOM      8  C   UNL     1      37.542 -23.093 -15.573  0.00  0.00    +0.268 C 
ATOM      9  H   UNL     1      35.271 -25.262 -14.871  0.00  0.00    +0.150 HD
ENDROOT
BRANCH   5  12
ATOM     10  O   UNL     1      40.615 -25.892 -15.851  0.00  0.00    -0.267 OA
ATOM     11  N   UNL     1      40.128 -26.184 -13.596  0.00  0.00    -0.323 N 
ATOM     12  C   UNL     1      39.902 -25.757 -14.874  0.00  0.00    +0.277 C 
ATOM     13  H   UNL     1      40.958 -26.667 -13.378  0.00  0.00    +0.145 HD
ATOM     14  H   UNL     1      39.461 -26.007 -12.893  0.00  0.00    +0.145 HD
ENDBRANCH   5  12
TORSDOF 1
ENDMDL
MODEL 8
REMARK VINA RESULT:      -5.9      8.658     10.204
REMARK  Name = 492405
REMARK  1 active torsions:
REMARK  status: ('A' for Active; 'I' for Inactive)
REMARK    1  A    between atoms: C_5  and  C_12
REMARK                            x       y       z     vdW  Elec       q    Type
REMARK                         _______ _______ _______ _____ _____    ______ ____
ROOT
ATOM      1  F   UNL     1      32.467 -22.482 -17.114  0.00  0.00    -0.172 F 
ATOM      2  O   UNL     1      28.461 -24.924 -14.614  0.00  0.00    -0.267 OA
ATOM      3  N   UNL     1      30.751 -24.629 -14.849  0.00  0.00    -0.291 N 
ATOM      4  N   UNL     1      30.178 -22.791 -16.861  0.00  0.00    -0.367 NA
ATOM      5  C   UNL     1      29.198 -23.387 -16.250  0.00  0.00    +0.239 C 
ATOM      6  C   UNL     1      29.427 -24.399 -15.146  0.00  0.00    +0.281 C 
ATOM      7  C   UNL     1      31.752 -23.984 -15.512  0.00  0.00    +0.181 C 
ATOM      8  C   UNL     1      31.454 -23.107 -16.474  0.00  0.00    +0.268 C 
ATOM      9  H   UNL     1      30.981 -25.274 -14.142  0.00  0.00    +0.150 HD
ENDROOT
BRANCH   5  12
ATOM     10  O   UNL     1      27.499 -23.322 -17.843  0.00  0.00    -0.267 OA
ATOM     11  N   UNL     1      27.118 -22.307 -15.785  0.00  0.00    -0.323 N 
ATOM     12  C   UNL     1      27.836 -23.000 -16.718  0.00  0.00    +0.277 C 
ATOM     13  H   UNL     1      26.205 -22.002 -15.993  0.00  0.00    +0.145 HD
ATOM     14  H   UNL     1      27.514 -22.111 -14.905  0.00  0.00    +0.145 HD
ENDBRANCH   5  12
TORSDOF 1
ENDMDL
MODEL 9
REMARK VINA RESULT:      -5.9     14.783     15.066
REMARK  Name = 492405
REMARK  1 active torsions:
REMARK  status: ('A' for Active; 'I' for Inactive)
REMARK    1  A    between atoms: C_5  and  C_12
REMARK                            x       y       z     vdW  Elec       q    Type
REMARK                         _______ _______ _______ _____ _____    ______ ____
ROOT
ATOM      1  F   UNL     1      34.536 -15.852 -20.678  0.00  0.00    -0.172 F 
ATOM      2  O   UNL     1      34.789 -16.721 -25.916  0.00  0.00    -0.267 OA
ATOM      3  N   UNL     1      35.368 -17.402 -23.774  0.00  0.00    -0.291 N 
ATOM      4  N   UNL     1      33.967 -15.188 -22.830  0.00  0.00    -0.367 NA
ATOM      5  C   UNL     1      34.028 -15.400 -24.111  0.00  0.00    +0.239 C 
ATOM      6  C   UNL     1      34.770 -16.580 -24.703  0.00  0.00    +0.281 C 
ATOM      7  C   UNL     1      35.281 -17.147 -22.437  0.00  0.00    +0.181 C 
ATOM      8  C   UNL     1      34.605 -16.079 -22.008  0.00  0.00    +0.268 C 
ATOM      9  H   UNL     1      35.868 -18.192 -24.081  0.00  0.00    +0.150 HD
ENDROOT
BRANCH   5  12
ATOM     10  O   UNL     1      33.407 -13.219 -24.647  0.00  0.00    -0.267 OA
ATOM     11  N   UNL     1      32.622 -14.949 -25.989  0.00  0.00    -0.323 N 
ATOM     12  C   UNL     1      33.314 -14.394 -24.950  0.00  0.00    +0.277 C 
ATOM     13  H   UNL     1      32.114 -14.372 -26.606  0.00  0.00    +0.145 HD
ATOM     14  H   UNL     1      32.630 -15.924 -26.122  0.00  0.00    +0.145 HD
ENDBRANCH   5  12
TORSDOF 1
ENDMDL
