MODEL 1
REMARK VINA RESULT:      -9.3      0.000      0.000
REMARK  Name = 24875259
REMARK  11 active torsions:
REMARK  status: ('A' for Active; 'I' for Inactive)
REMARK    1  A    between atoms: C_1  and  C_3
REMARK    2  A    between atoms: C_1  and  C_16
REMARK    3  A    between atoms: C_5  and  O_10
REMARK    4  A    between atoms: C_7  and  O_12
REMARK    5  A    between atoms: C_9  and  O_14
REMARK    6  A    between atoms: C_17  and  C_19
REMARK    7  A    between atoms: C_19  and  C_20
REMARK    8  A    between atoms: C_20  and  C_21
REMARK    9  A    between atoms: C_22  and  C_24
REMARK   10  A    between atoms: C_24  and  C_25
REMARK   11  A    between atoms: C_25  and  C_26
REMARK                            x       y       z     vdW  Elec       q    Type
REMARK                         _______ _______ _______ _____ _____    ______ ____
ROOT
ATOM      1  C   UNL     1      34.583 -14.657 -23.105  0.00  0.00    +0.029 C 
ENDROOT
BRANCH   1   3
ATOM      2  O   UNL     1      34.578 -11.457 -25.572  0.00  0.00    -0.288 OA
ATOM      3  C   UNL     1      33.247 -14.344 -23.804  0.00  0.00    +0.046 C 
ATOM      4  C   UNL     1      33.489 -13.543 -25.098  0.00  0.00    +0.068 C 
ATOM      5  C   UNL     1      32.252 -13.613 -22.882  0.00  0.00    +0.170 C 
ATOM      6  C   UNL     1      33.879 -12.103 -24.794  0.00  0.00    +0.209 C 
ATOM      7  C   UNL     1      32.588 -12.157 -22.705  0.00  0.00    +0.179 C 
ATOM      8  C   UNL     1      32.275 -13.542 -26.027  0.00  0.00    +0.008 C 
ATOM      9  C   UNL     1      33.348 -11.456 -23.560  0.00  0.00    +0.205 C 
BRANCH   5  10
ATOM     10  O   UNL     1      32.203 -14.254 -21.608  0.00  0.00    -0.377 OA
ATOM     11  H   UNL     1      32.919 -14.905 -21.545  0.00  0.00    +0.211 HD
ENDBRANCH   5  10
BRANCH   7  12
ATOM     12  O   UNL     1      32.058 -11.538 -21.585  0.00  0.00    -0.470 OA
ATOM     13  C   UNL     1      30.661 -11.376 -21.721  0.00  0.00    +0.252 C 
ENDBRANCH   7  12
BRANCH   9  14
ATOM     14  O   UNL     1      33.657 -10.125 -23.374  0.00  0.00    -0.466 OA
ATOM     15  C   UNL     1      32.595  -9.296 -23.808  0.00  0.00    +0.253 C 
ENDBRANCH   9  14
ENDBRANCH   1   3
BRANCH   1  16
ATOM     16  C   UNL     1      34.715 -16.123 -22.807  0.00  0.00    -0.034 C 
ATOM     17  C   UNL     1      34.841 -17.128 -23.694  0.00  0.00    -0.048 C 
ATOM     18  C   UNL     1      34.860 -16.842 -25.173  0.00  0.00    +0.026 C 
BRANCH  17  19
ATOM     19  C   UNL     1      34.996 -18.584 -23.316  0.00  0.00    +0.026 C 
BRANCH  19  20
ATOM     20  C   UNL     1      35.343 -18.753 -21.834  0.00  0.00    +0.030 C 
BRANCH  20  21
ATOM     21  C   UNL     1      34.296 -19.552 -21.109  0.00  0.00    -0.034 C 
ATOM     22  C   UNL     1      34.506 -20.583 -20.268  0.00  0.00    -0.048 C 
ATOM     23  C   UNL     1      35.903 -21.051 -19.965  0.00  0.00    +0.026 C 
BRANCH  22  24
ATOM     24  C   UNL     1      33.402 -21.317 -19.541  0.00  0.00    +0.026 C 
BRANCH  24  25
ATOM     25  C   UNL     1      33.921 -22.539 -18.781  0.00  0.00    +0.030 C 
BRANCH  25  26
ATOM     26  C   UNL     1      33.001 -22.898 -17.646  0.00  0.00    -0.034 C 
ATOM     27  C   UNL     1      33.347 -23.271 -16.400  0.00  0.00    -0.048 C 
ATOM     28  C   UNL     1      32.289 -23.570 -15.371  0.00  0.00    +0.026 C 
ATOM     29  C   UNL     1      34.757 -23.442 -15.910  0.00  0.00    +0.026 C 
ENDBRANCH  25  26
ENDBRANCH  24  25
ENDBRANCH  22  24
ENDBRANCH  20  21
ENDBRANCH  19  20
ENDBRANCH  17  19
ENDBRANCH   1  16
TORSDOF 11
ENDMDL
MODEL 2
REMARK VINA RESULT:      -9.3      6.072     12.165
REMARK  Name = 24875259
REMARK  11 active torsions:
REMARK  status: ('A' for Active; 'I' for Inactive)
REMARK    1  A    between atoms: C_1  and  C_3
REMARK    2  A    between atoms: C_1  and  C_16
REMARK    3  A    between atoms: C_5  and  O_10
REMARK    4  A    between atoms: C_7  and  O_12
REMARK    5  A    between atoms: C_9  and  O_14
REMARK    6  A    between atoms: C_17  and  C_19
REMARK    7  A    between atoms: C_19  and  C_20
REMARK    8  A    between atoms: C_20  and  C_21
REMARK    9  A    between atoms: C_22  and  C_24
REMARK   10  A    between atoms: C_24  and  C_25
REMARK   11  A    between atoms: C_25  and  C_26
REMARK                            x       y       z     vdW  Elec       q    Type
REMARK                         _______ _______ _______ _____ _____    ______ ____
ROOT
ATOM      1  C   UNL     1      36.442 -22.008 -16.193  0.00  0.00    +0.029 C 
ENDROOT
BRANCH   1   3
ATOM      2  O   UNL     1      33.894 -23.367 -13.367  0.00  0.00    -0.288 OA
ATOM      3  C   UNL     1      36.373 -23.536 -16.024  0.00  0.00    +0.046 C 
ATOM      4  C   UNL     1      35.026 -23.951 -15.402  0.00  0.00    +0.068 C 
ATOM      5  C   UNL     1      37.553 -24.096 -15.205  0.00  0.00    +0.170 C 
ATOM      6  C   UNL     1      34.967 -23.599 -13.922  0.00  0.00    +0.209 C 
ATOM      7  C   UNL     1      37.402 -23.849 -13.729  0.00  0.00    +0.179 C 
ATOM      8  C   UNL     1      34.733 -25.442 -15.569  0.00  0.00    +0.008 C 
ATOM      9  C   UNL     1      36.228 -23.600 -13.128  0.00  0.00    +0.205 C 
BRANCH   5  10
ATOM     10  O   UNL     1      38.780 -23.531 -15.665  0.00  0.00    -0.377 OA
ATOM     11  H   UNL     1      39.256 -24.184 -16.201  0.00  0.00    +0.211 HD
ENDBRANCH   5  10
BRANCH   7  12
ATOM     12  O   UNL     1      38.566 -23.896 -12.978  0.00  0.00    -0.470 OA
ATOM     13  C   UNL     1      39.006 -25.229 -12.826  0.00  0.00    +0.252 C 
ENDBRANCH   7  12
BRANCH   9  14
ATOM     14  O   UNL     1      36.111 -23.362 -11.775  0.00  0.00    -0.466 OA
ATOM     15  C   UNL     1      35.749 -24.544 -11.086  0.00  0.00    +0.253 C 
ENDBRANCH   9  14
ENDBRANCH   1   3
BRANCH   1  16
ATOM     16  C   UNL     1      36.830 -21.629 -17.594  0.00  0.00    -0.034 C 
ATOM     17  C   UNL     1      36.055 -21.666 -18.694  0.00  0.00    -0.048 C 
ATOM     18  C   UNL     1      34.624 -22.126 -18.603  0.00  0.00    +0.026 C 
BRANCH  17  19
ATOM     19  C   UNL     1      36.511 -21.242 -20.072  0.00  0.00    +0.026 C 
BRANCH  19  20
ATOM     20  C   UNL     1      36.729 -19.729 -20.159  0.00  0.00    +0.030 C 
BRANCH  20  21
ATOM     21  C   UNL     1      36.293 -19.184 -21.491  0.00  0.00    -0.034 C 
ATOM     22  C   UNL     1      35.027 -18.990 -21.909  0.00  0.00    -0.048 C 
ATOM     23  C   UNL     1      33.866 -19.328 -21.013  0.00  0.00    +0.026 C 
BRANCH  22  24
ATOM     24  C   UNL     1      34.662 -18.399 -23.252  0.00  0.00    +0.026 C 
BRANCH  24  25
ATOM     25  C   UNL     1      35.164 -16.963 -23.410  0.00  0.00    +0.030 C 
BRANCH  25  26
ATOM     26  C   UNL     1      34.076 -15.974 -23.094  0.00  0.00    -0.034 C 
ATOM     27  C   UNL     1      33.831 -15.378 -21.911  0.00  0.00    -0.048 C 
ATOM     28  C   UNL     1      32.709 -14.384 -21.775  0.00  0.00    +0.026 C 
ATOM     29  C   UNL     1      34.595 -15.632 -20.643  0.00  0.00    +0.026 C 
ENDBRANCH  25  26
ENDBRANCH  24  25
ENDBRANCH  22  24
ENDBRANCH  20  21
ENDBRANCH  19  20
ENDBRANCH  17  19
ENDBRANCH   1  16
TORSDOF 11
ENDMDL
MODEL 3
REMARK VINA RESULT:      -9.3      6.736     13.276
REMARK  Name = 24875259
REMARK  11 active torsions:
REMARK  status: ('A' for Active; 'I' for Inactive)
REMARK    1  A    between atoms: C_1  and  C_3
REMARK    2  A    between atoms: C_1  and  C_16
REMARK    3  A    between atoms: C_5  and  O_10
REMARK    4  A    between atoms: C_7  and  O_12
REMARK    5  A    between atoms: C_9  and  O_14
REMARK    6  A    between atoms: C_17  and  C_19
REMARK    7  A    between atoms: C_19  and  C_20
REMARK    8  A    between atoms: C_20  and  C_21
REMARK    9  A    between atoms: C_22  and  C_24
REMARK   10  A    between atoms: C_24  and  C_25
REMARK   11  A    between atoms: C_25  and  C_26
REMARK                            x       y       z     vdW  Elec       q    Type
REMARK                         _______ _______ _______ _____ _____    ______ ____
ROOT
ATOM      1  C   UNL     1      36.028 -22.956 -14.425  0.00  0.00    +0.029 C 
ENDROOT
BRANCH   1   3
ATOM      2  O   UNL     1      39.034 -23.369 -11.757  0.00  0.00    -0.288 OA
ATOM      3  C   UNL     1      35.687 -23.727 -13.137  0.00  0.00    +0.046 C 
ATOM      4  C   UNL     1      36.646 -23.328 -11.999  0.00  0.00    +0.068 C 
ATOM      5  C   UNL     1      35.684 -25.255 -13.343  0.00  0.00    +0.170 C 
ATOM      6  C   UNL     1      38.032 -23.922 -12.207  0.00  0.00    +0.209 C 
ATOM      7  C   UNL     1      37.071 -25.833 -13.414  0.00  0.00    +0.179 C 
ATOM      8  C   UNL     1      36.131 -23.743 -10.621  0.00  0.00    +0.008 C 
ATOM      9  C   UNL     1      38.160 -25.227 -12.916  0.00  0.00    +0.205 C 
BRANCH   5  10
ATOM     10  O   UNL     1      34.963 -25.587 -14.529  0.00  0.00    -0.377 OA
ATOM     11  H   UNL     1      35.437 -25.247 -15.303  0.00  0.00    +0.211 HD
ENDBRANCH   5  10
BRANCH   7  12
ATOM     12  O   UNL     1      37.188 -27.068 -14.029  0.00  0.00    -0.470 OA
ATOM     13  C   UNL     1      37.059 -26.941 -15.430  0.00  0.00    +0.252 C 
ENDBRANCH   7  12
BRANCH   9  14
ATOM     14  O   UNL     1      39.426 -25.766 -13.002  0.00  0.00    -0.466 OA
ATOM     15  C   UNL     1      40.050 -25.394 -14.217  0.00  0.00    +0.253 C 
ENDBRANCH   9  14
ENDBRANCH   1   3
BRANCH   1  16
ATOM     16  C   UNL     1      34.892 -23.001 -15.407  0.00  0.00    -0.034 C 
ATOM     17  C   UNL     1      34.937 -22.707 -16.720  0.00  0.00    -0.048 C 
ATOM     18  C   UNL     1      36.229 -22.275 -17.362  0.00  0.00    +0.026 C 
BRANCH  17  19
ATOM     19  C   UNL     1      33.751 -22.801 -17.655  0.00  0.00    +0.026 C 
BRANCH  19  20
ATOM     20  C   UNL     1      34.176 -22.708 -19.123  0.00  0.00    +0.030 C 
BRANCH  20  21
ATOM     21  C   UNL     1      33.703 -21.428 -19.754  0.00  0.00    -0.034 C 
ATOM     22  C   UNL     1      34.470 -20.471 -20.312  0.00  0.00    -0.048 C 
ATOM     23  C   UNL     1      35.967 -20.617 -20.349  0.00  0.00    +0.026 C 
BRANCH  22  24
ATOM     24  C   UNL     1      33.922 -19.224 -20.966  0.00  0.00    +0.026 C 
BRANCH  24  25
ATOM     25  C   UNL     1      35.029 -18.300 -21.476  0.00  0.00    +0.030 C 
BRANCH  25  26
ATOM     26  C   UNL     1      34.930 -18.110 -22.964  0.00  0.00    -0.034 C 
ATOM     27  C   UNL     1      34.803 -16.949 -23.634  0.00  0.00    -0.048 C 
ATOM     28  C   UNL     1      34.745 -16.937 -25.138  0.00  0.00    +0.026 C 
ATOM     29  C   UNL     1      34.690 -15.594 -22.996  0.00  0.00    +0.026 C 
ENDBRANCH  25  26
ENDBRANCH  24  25
ENDBRANCH  22  24
ENDBRANCH  20  21
ENDBRANCH  19  20
ENDBRANCH  17  19
ENDBRANCH   1  16
TORSDOF 11
ENDMDL
MODEL 4
REMARK VINA RESULT:      -9.3      2.244      4.909
REMARK  Name = 24875259
REMARK  11 active torsions:
REMARK  status: ('A' for Active; 'I' for Inactive)
REMARK    1  A    between atoms: C_1  and  C_3
REMARK    2  A    between atoms: C_1  and  C_16
REMARK    3  A    between atoms: C_5  and  O_10
REMARK    4  A    between atoms: C_7  and  O_12
REMARK    5  A    between atoms: C_9  and  O_14
REMARK    6  A    between atoms: C_17  and  C_19
REMARK    7  A    between atoms: C_19  and  C_20
REMARK    8  A    between atoms: C_20  and  C_21
REMARK    9  A    between atoms: C_22  and  C_24
REMARK   10  A    between atoms: C_24  and  C_25
REMARK   11  A    between atoms: C_25  and  C_26
REMARK                            x       y       z     vdW  Elec       q    Type
REMARK                         _______ _______ _______ _____ _____    ______ ____
ROOT
ATOM      1  C   UNL     1      33.952 -18.479 -21.404  0.00  0.00    +0.029 C 
ENDROOT
BRANCH   1   3
ATOM      2  O   UNL     1      32.110 -14.899 -21.754  0.00  0.00    -0.288 OA
ATOM      3  C   UNL     1      34.851 -17.239 -21.250  0.00  0.00    +0.046 C 
ATOM      4  C   UNL     1      34.017 -16.018 -20.816  0.00  0.00    +0.068 C 
ATOM      5  C   UNL     1      35.658 -16.929 -22.525  0.00  0.00    +0.170 C 
ATOM      6  C   UNL     1      33.170 -15.489 -21.965  0.00  0.00    +0.209 C 
ATOM      7  C   UNL     1      34.822 -16.284 -23.598  0.00  0.00    +0.179 C 
ATOM      8  C   UNL     1      34.878 -14.879 -20.270  0.00  0.00    +0.008 C 
ATOM      9  C   UNL     1      33.670 -15.638 -23.361  0.00  0.00    +0.205 C 
BRANCH   5  10
ATOM     10  O   UNL     1      36.253 -18.123 -23.031  0.00  0.00    -0.377 OA
ATOM     11  H   UNL     1      37.159 -18.202 -22.694  0.00  0.00    +0.211 HD
ENDBRANCH   5  10
BRANCH   7  12
ATOM     12  O   UNL     1      35.308 -16.379 -24.891  0.00  0.00    -0.470 OA
ATOM     13  C   UNL     1      34.640 -17.402 -25.600  0.00  0.00    +0.252 C 
ENDBRANCH   7  12
BRANCH   9  14
ATOM     14  O   UNL     1      32.910 -15.066 -24.358  0.00  0.00    -0.466 OA
ATOM     15  C   UNL     1      33.329 -13.738 -24.611  0.00  0.00    +0.253 C 
ENDBRANCH   9  14
ENDBRANCH   1   3
BRANCH   1  16
ATOM     16  C   UNL     1      34.655 -19.725 -20.947  0.00  0.00    -0.034 C 
ATOM     17  C   UNL     1      34.145 -20.721 -20.198  0.00  0.00    -0.048 C 
ATOM     18  C   UNL     1      32.718 -20.664 -19.720  0.00  0.00    +0.026 C 
BRANCH  17  19
ATOM     19  C   UNL     1      34.910 -21.963 -19.798  0.00  0.00    +0.026 C 
BRANCH  19  20
ATOM     20  C   UNL     1      35.915 -21.676 -18.679  0.00  0.00    +0.030 C 
BRANCH  20  21
ATOM     21  C   UNL     1      35.573 -22.430 -17.424  0.00  0.00    -0.034 C 
ATOM     22  C   UNL     1      36.314 -22.509 -16.302  0.00  0.00    -0.048 C 
ATOM     23  C   UNL     1      37.638 -21.799 -16.208  0.00  0.00    +0.026 C 
BRANCH  22  24
ATOM     24  C   UNL     1      35.888 -23.255 -15.058  0.00  0.00    +0.026 C 
BRANCH  24  25
ATOM     25  C   UNL     1      34.703 -24.186 -15.317  0.00  0.00    +0.030 C 
BRANCH  25  26
ATOM     26  C   UNL     1      33.445 -23.642 -14.698  0.00  0.00    -0.034 C 
ATOM     27  C   UNL     1      32.331 -23.231 -15.333  0.00  0.00    -0.048 C 
ATOM     28  C   UNL     1      31.144 -22.736 -14.552  0.00  0.00    +0.026 C 
ATOM     29  C   UNL     1      32.152 -23.199 -16.825  0.00  0.00    +0.026 C 
ENDBRANCH  25  26
ENDBRANCH  24  25
ENDBRANCH  22  24
ENDBRANCH  20  21
ENDBRANCH  19  20
ENDBRANCH  17  19
ENDBRANCH   1  16
TORSDOF 11
ENDMDL
MODEL 5
REMARK VINA RESULT:      -9.1      3.903      9.433
REMARK  Name = 24875259
REMARK  11 active torsions:
REMARK  status: ('A' for Active; 'I' for Inactive)
REMARK    1  A    between atoms: C_1  and  C_3
REMARK    2  A    between atoms: C_1  and  C_16
REMARK    3  A    between atoms: C_5  and  O_10
REMARK    4  A    between atoms: C_7  and  O_12
REMARK    5  A    between atoms: C_9  and  O_14
REMARK    6  A    between atoms: C_17  and  C_19
REMARK    7  A    between atoms: C_19  and  C_20
REMARK    8  A    between atoms: C_20  and  C_21
REMARK    9  A    between atoms: C_22  and  C_24
REMARK   10  A    between atoms: C_24  and  C_25
REMARK   11  A    between atoms: C_25  and  C_26
REMARK                            x       y       z     vdW  Elec       q    Type
REMARK                         _______ _______ _______ _____ _____    ______ ____
ROOT
ATOM      1  C   UNL     1      34.247 -12.959 -23.554  0.00  0.00    +0.029 C 
ENDROOT
BRANCH   1   3
ATOM      2  O   UNL     1      35.085 -15.435 -20.473  0.00  0.00    -0.288 OA
ATOM      3  C   UNL     1      33.201 -14.049 -23.260  0.00  0.00    +0.046 C 
ATOM      4  C   UNL     1      33.304 -14.516 -21.795  0.00  0.00    +0.068 C 
ATOM      5  C   UNL     1      33.303 -15.245 -24.227  0.00  0.00    +0.170 C 
ATOM      6  C   UNL     1      34.538 -15.379 -21.574  0.00  0.00    +0.209 C 
ATOM      7  C   UNL     1      34.456 -16.156 -23.902  0.00  0.00    +0.179 C 
ATOM      8  C   UNL     1      32.069 -15.288 -21.334  0.00  0.00    +0.008 C 
ATOM      9  C   UNL     1      35.047 -16.215 -22.699  0.00  0.00    +0.205 C 
BRANCH   5  10
ATOM     10  O   UNL     1      33.420 -14.780 -25.571  0.00  0.00    -0.377 OA
ATOM     11  H   UNL     1      33.247 -13.827 -25.600  0.00  0.00    +0.211 HD
ENDBRANCH   5  10
BRANCH   7  12
ATOM     12  O   UNL     1      34.902 -16.970 -24.931  0.00  0.00    -0.470 OA
ATOM     13  C   UNL     1      34.099 -18.128 -25.032  0.00  0.00    +0.252 C 
ENDBRANCH   7  12
BRANCH   9  14
ATOM     14  O   UNL     1      36.112 -17.046 -22.423  0.00  0.00    -0.466 OA
ATOM     15  C   UNL     1      35.674 -18.233 -21.790  0.00  0.00    +0.253 C 
ENDBRANCH   9  14
ENDBRANCH   1   3
BRANCH   1  16
ATOM     16  C   UNL     1      33.616 -11.597 -23.615  0.00  0.00    -0.034 C 
ATOM     17  C   UNL     1      33.969 -10.569 -24.409  0.00  0.00    -0.048 C 
ATOM     18  C   UNL     1      35.114 -10.710 -25.377  0.00  0.00    +0.026 C 
BRANCH  17  19
ATOM     19  C   UNL     1      33.266  -9.230 -24.432  0.00  0.00    +0.026 C 
BRANCH  19  20
ATOM     20  C   UNL     1      34.149  -8.114 -23.867  0.00  0.00    +0.030 C 
BRANCH  20  21
ATOM     21  C   UNL     1      33.759  -7.761 -22.459  0.00  0.00    -0.034 C 
ATOM     22  C   UNL     1      32.679  -7.054 -22.073  0.00  0.00    -0.048 C 
ATOM     23  C   UNL     1      31.709  -6.522 -23.093  0.00  0.00    +0.026 C 
BRANCH  22  24
ATOM     24  C   UNL     1      32.327  -6.769 -20.631  0.00  0.00    +0.026 C 
BRANCH  24  25
ATOM     25  C   UNL     1      32.267  -8.042 -19.786  0.00  0.00    +0.030 C 
BRANCH  25  26
ATOM     26  C   UNL     1      31.815  -9.216 -20.611  0.00  0.00    -0.034 C 
ATOM     27  C   UNL     1      31.410 -10.420 -20.166  0.00  0.00    -0.048 C 
ATOM     28  C   UNL     1      30.961 -11.481 -21.136  0.00  0.00    +0.026 C 
ATOM     29  C   UNL     1      31.375 -10.841 -18.725  0.00  0.00    +0.026 C 
ENDBRANCH  25  26
ENDBRANCH  24  25
ENDBRANCH  22  24
ENDBRANCH  20  21
ENDBRANCH  19  20
ENDBRANCH  17  19
ENDBRANCH   1  16
TORSDOF 11
ENDMDL
MODEL 6
REMARK VINA RESULT:      -8.9      5.447     11.666
REMARK  Name = 24875259
REMARK  11 active torsions:
REMARK  status: ('A' for Active; 'I' for Inactive)
REMARK    1  A    between atoms: C_1  and  C_3
REMARK    2  A    between atoms: C_1  and  C_16
REMARK    3  A    between atoms: C_5  and  O_10
REMARK    4  A    between atoms: C_7  and  O_12
REMARK    5  A    between atoms: C_9  and  O_14
REMARK    6  A    between atoms: C_17  and  C_19
REMARK    7  A    between atoms: C_19  and  C_20
REMARK    8  A    between atoms: C_20  and  C_21
REMARK    9  A    between atoms: C_22  and  C_24
REMARK   10  A    between atoms: C_24  and  C_25
REMARK   11  A    between atoms: C_25  and  C_26
REMARK                            x       y       z     vdW  Elec       q    Type
REMARK                         _______ _______ _______ _____ _____    ______ ____
ROOT
ATOM      1  C   UNL     1      33.359 -23.676 -16.903  0.00  0.00    +0.029 C 
ENDROOT
BRANCH   1   3
ATOM      2  O   UNL     1      31.933 -25.645 -13.676  0.00  0.00    -0.288 OA
ATOM      3  C   UNL     1      32.567 -22.829 -15.890  0.00  0.00    +0.046 C 
ATOM      4  C   UNL     1      32.593 -23.488 -14.498  0.00  0.00    +0.068 C 
ATOM      5  C   UNL     1      31.119 -22.561 -16.345  0.00  0.00    +0.170 C 
ATOM      6  C   UNL     1      31.697 -24.718 -14.449  0.00  0.00    +0.209 C 
ATOM      7  C   UNL     1      30.223 -23.756 -16.162  0.00  0.00    +0.179 C 
ATOM      8  C   UNL     1      32.178 -22.528 -13.383  0.00  0.00    +0.008 C 
ATOM      9  C   UNL     1      30.483 -24.763 -15.313  0.00  0.00    +0.205 C 
BRANCH   5  10
ATOM     10  O   UNL     1      31.102 -22.152 -17.711  0.00  0.00    -0.377 OA
ATOM     11  H   UNL     1      31.587 -21.317 -17.805  0.00  0.00    +0.211 HD
ENDBRANCH   5  10
BRANCH   7  12
ATOM     12  O   UNL     1      29.069 -23.779 -16.927  0.00  0.00    -0.470 OA
ATOM     13  C   UNL     1      28.134 -22.835 -16.447  0.00  0.00    +0.252 C 
ENDBRANCH   7  12
BRANCH   9  14
ATOM     14  O   UNL     1      29.658 -25.857 -15.169  0.00  0.00    -0.466 OA
ATOM     15  C   UNL     1      28.653 -25.606 -14.204  0.00  0.00    +0.253 C 
ENDBRANCH   9  14
ENDBRANCH   1   3
BRANCH   1  16
ATOM     16  C   UNL     1      34.247 -22.818 -17.758  0.00  0.00    -0.034 C 
ATOM     17  C   UNL     1      35.493 -22.396 -17.473  0.00  0.00    -0.048 C 
ATOM     18  C   UNL     1      36.150 -22.780 -16.174  0.00  0.00    +0.026 C 
BRANCH  17  19
ATOM     19  C   UNL     1      36.340 -21.552 -18.400  0.00  0.00    +0.026 C 
BRANCH  19  20
ATOM     20  C   UNL     1      35.842 -21.621 -19.846  0.00  0.00    +0.030 C 
BRANCH  20  21
ATOM     21  C   UNL     1      35.621 -20.249 -20.420  0.00  0.00    -0.034 C 
ATOM     22  C   UNL     1      34.435 -19.670 -20.693  0.00  0.00    -0.048 C 
ATOM     23  C   UNL     1      33.147 -20.401 -20.428  0.00  0.00    +0.026 C 
BRANCH  22  24
ATOM     24  C   UNL     1      34.286 -18.266 -21.235  0.00  0.00    +0.026 C 
BRANCH  24  25
ATOM     25  C   UNL     1      35.506 -17.823 -22.043  0.00  0.00    +0.030 C 
BRANCH  25  26
ATOM     26  C   UNL     1      35.096 -16.973 -23.215  0.00  0.00    -0.034 C 
ATOM     27  C   UNL     1      34.620 -17.392 -24.403  0.00  0.00    -0.048 C 
ATOM     28  C   UNL     1      34.228 -16.397 -25.463  0.00  0.00    +0.026 C 
ATOM     29  C   UNL     1      34.448 -18.829 -24.804  0.00  0.00    +0.026 C 
ENDBRANCH  25  26
ENDBRANCH  24  25
ENDBRANCH  22  24
ENDBRANCH  20  21
ENDBRANCH  19  20
ENDBRANCH  17  19
ENDBRANCH   1  16
TORSDOF 11
ENDMDL
MODEL 7
REMARK VINA RESULT:      -8.9      2.829      6.343
REMARK  Name = 24875259
REMARK  11 active torsions:
REMARK  status: ('A' for Active; 'I' for Inactive)
REMARK    1  A    between atoms: C_1  and  C_3
REMARK    2  A    between atoms: C_1  and  C_16
REMARK    3  A    between atoms: C_5  and  O_10
REMARK    4  A    between atoms: C_7  and  O_12
REMARK    5  A    between atoms: C_9  and  O_14
REMARK    6  A    between atoms: C_17  and  C_19
REMARK    7  A    between atoms: C_19  and  C_20
REMARK    8  A    between atoms: C_20  and  C_21
REMARK    9  A    between atoms: C_22  and  C_24
REMARK   10  A    between atoms: C_24  and  C_25
REMARK   11  A    between atoms: C_25  and  C_26
REMARK                            x       y       z     vdW  Elec       q    Type
REMARK                         _______ _______ _______ _____ _____    ______ ____
ROOT
ATOM      1  C   UNL     1      31.591  -9.577 -22.475  0.00  0.00    +0.029 C 
ENDROOT
BRANCH   1   3
ATOM      2  O   UNL     1      30.134  -5.841 -21.982  0.00  0.00    -0.288 OA
ATOM      3  C   UNL     1      32.595  -8.521 -21.980  0.00  0.00    +0.046 C 
ATOM      4  C   UNL     1      31.859  -7.359 -21.285  0.00  0.00    +0.068 C 
ATOM      5  C   UNL     1      33.508  -7.998 -23.106  0.00  0.00    +0.170 C 
ATOM      6  C   UNL     1      31.142  -6.474 -22.295  0.00  0.00    +0.209 C 
ATOM      7  C   UNL     1      32.810  -7.021 -24.012  0.00  0.00    +0.179 C 
ATOM      8  C   UNL     1      32.790  -6.492 -20.438  0.00  0.00    +0.008 C 
ATOM      9  C   UNL     1      31.713  -6.329 -23.664  0.00  0.00    +0.205 C 
BRANCH   5  10
ATOM     10  O   UNL     1      34.014  -9.089 -23.873  0.00  0.00    -0.377 OA
ATOM     11  H   UNL     1      34.957  -9.212 -23.679  0.00  0.00    +0.211 HD
ENDBRANCH   5  10
BRANCH   7  12
ATOM     12  O   UNL     1      33.365  -6.847 -25.269  0.00  0.00    -0.470 OA
ATOM     13  C   UNL     1      34.632  -6.231 -25.173  0.00  0.00    +0.252 C 
ENDBRANCH   7  12
BRANCH   9  14
ATOM     14  O   UNL     1      31.078  -5.449 -24.513  0.00  0.00    -0.466 OA
ATOM     15  C   UNL     1      31.594  -4.140 -24.358  0.00  0.00    +0.253 C 
ENDBRANCH   9  14
ENDBRANCH   1   3
BRANCH   1  16
ATOM     16  C   UNL     1      31.917 -10.939 -21.932  0.00  0.00    -0.034 C 
ATOM     17  C   UNL     1      31.648 -11.413 -20.700  0.00  0.00    -0.048 C 
ATOM     18  C   UNL     1      30.944 -10.549 -19.688  0.00  0.00    +0.026 C 
BRANCH  17  19
ATOM     19  C   UNL     1      31.986 -12.811 -20.233  0.00  0.00    +0.026 C 
BRANCH  19  20
ATOM     20  C   UNL     1      32.437 -13.705 -21.391  0.00  0.00    +0.030 C 
BRANCH  20  21
ATOM     21  C   UNL     1      33.187 -14.911 -20.897  0.00  0.00    -0.034 C 
ATOM     22  C   UNL     1      34.152 -15.585 -21.552  0.00  0.00    -0.048 C 
ATOM     23  C   UNL     1      34.587 -15.155 -22.927  0.00  0.00    +0.026 C 
BRANCH  22  24
ATOM     24  C   UNL     1      34.894 -16.770 -20.977  0.00  0.00    +0.026 C 
BRANCH  24  25
ATOM     25  C   UNL     1      34.758 -18.019 -21.848  0.00  0.00    +0.030 C 
BRANCH  25  26
ATOM     26  C   UNL     1      35.169 -19.252 -21.091  0.00  0.00    -0.034 C 
ATOM     27  C   UNL     1      34.365 -20.150 -20.492  0.00  0.00    -0.048 C 
ATOM     28  C   UNL     1      34.946 -21.351 -19.795  0.00  0.00    +0.026 C 
ATOM     29  C   UNL     1      32.867 -20.060 -20.431  0.00  0.00    +0.026 C 
ENDBRANCH  25  26
ENDBRANCH  24  25
ENDBRANCH  22  24
ENDBRANCH  20  21
ENDBRANCH  19  20
ENDBRANCH  17  19
ENDBRANCH   1  16
TORSDOF 11
ENDMDL
MODEL 8
REMARK VINA RESULT:      -8.9      1.994      4.098
REMARK  Name = 24875259
REMARK  11 active torsions:
REMARK  status: ('A' for Active; 'I' for Inactive)
REMARK    1  A    between atoms: C_1  and  C_3
REMARK    2  A    between atoms: C_1  and  C_16
REMARK    3  A    between atoms: C_5  and  O_10
REMARK    4  A    between atoms: C_7  and  O_12
REMARK    5  A    between atoms: C_9  and  O_14
REMARK    6  A    between atoms: C_17  and  C_19
REMARK    7  A    between atoms: C_19  and  C_20
REMARK    8  A    between atoms: C_20  and  C_21
REMARK    9  A    between atoms: C_22  and  C_24
REMARK   10  A    between atoms: C_24  and  C_25
REMARK   11  A    between atoms: C_25  and  C_26
REMARK                            x       y       z     vdW  Elec       q    Type
REMARK                         _______ _______ _______ _____ _____    ______ ____
ROOT
ATOM      1  C   UNL     1      33.468 -11.377 -23.004  0.00  0.00    +0.029 C 
ENDROOT
BRANCH   1   3
ATOM      2  O   UNL     1      33.854  -7.405 -22.367  0.00  0.00    -0.288 OA
ATOM      3  C   UNL     1      32.218 -10.523 -23.284  0.00  0.00    +0.046 C 
ATOM      4  C   UNL     1      32.615  -9.065 -23.582  0.00  0.00    +0.068 C 
ATOM      5  C   UNL     1      31.187 -10.589 -22.140  0.00  0.00    +0.170 C 
ATOM      6  C   UNL     1      33.054  -8.340 -22.318  0.00  0.00    +0.209 C 
ATOM      7  C   UNL     1      31.585  -9.755 -20.952  0.00  0.00    +0.179 C 
ATOM      8  C   UNL     1      31.490  -8.270 -24.244  0.00  0.00    +0.008 C 
ATOM      9  C   UNL     1      32.454  -8.734 -21.012  0.00  0.00    +0.205 C 
BRANCH   5  10
ATOM     10  O   UNL     1      30.991 -11.943 -21.734  0.00  0.00    -0.377 OA
ATOM     11  H   UNL     1      30.497 -11.963 -20.900  0.00  0.00    +0.211 HD
ENDBRANCH   5  10
BRANCH   7  12
ATOM     12  O   UNL     1      30.992 -10.088 -19.745  0.00  0.00    -0.470 OA
ATOM     13  C   UNL     1      31.739 -11.087 -19.082  0.00  0.00    +0.252 C 
ENDBRANCH   7  12
BRANCH   9  14
ATOM     14  O   UNL     1      32.817  -7.990 -19.910  0.00  0.00    -0.466 OA
ATOM     15  C   UNL     1      32.247  -6.696 -19.967  0.00  0.00    +0.253 C 
ENDBRANCH   9  14
ENDBRANCH   1   3
BRANCH   1  16
ATOM     16  C   UNL     1      33.455 -12.646 -23.806  0.00  0.00    -0.034 C 
ATOM     17  C   UNL     1      33.553 -13.906 -23.342  0.00  0.00    -0.048 C 
ATOM     18  C   UNL     1      33.697 -14.166 -21.865  0.00  0.00    +0.026 C 
BRANCH  17  19
ATOM     19  C   UNL     1      33.505 -15.142 -24.213  0.00  0.00    +0.026 C 
BRANCH  19  20
ATOM     20  C   UNL     1      34.870 -15.831 -24.299  0.00  0.00    +0.030 C 
BRANCH  20  21
ATOM     21  C   UNL     1      34.959 -16.998 -23.356  0.00  0.00    -0.034 C 
ATOM     22  C   UNL     1      34.718 -18.291 -23.647  0.00  0.00    -0.048 C 
ATOM     23  C   UNL     1      34.313 -18.699 -25.038  0.00  0.00    +0.026 C 
BRANCH  22  24
ATOM     24  C   UNL     1      34.866 -19.423 -22.656  0.00  0.00    +0.026 C 
BRANCH  24  25
ATOM     25  C   UNL     1      34.415 -19.026 -21.250  0.00  0.00    +0.030 C 
BRANCH  25  26
ATOM     26  C   UNL     1      33.784 -20.190 -20.537  0.00  0.00    -0.034 C 
ATOM     27  C   UNL     1      34.402 -21.124 -19.789  0.00  0.00    -0.048 C 
ATOM     28  C   UNL     1      33.609 -22.214 -19.119  0.00  0.00    +0.026 C 
ATOM     29  C   UNL     1      35.884 -21.200 -19.557  0.00  0.00    +0.026 C 
ENDBRANCH  25  26
ENDBRANCH  24  25
ENDBRANCH  22  24
ENDBRANCH  20  21
ENDBRANCH  19  20
ENDBRANCH  17  19
ENDBRANCH   1  16
TORSDOF 11
ENDMDL
MODEL 9
REMARK VINA RESULT:      -8.9      3.837     11.340
REMARK  Name = 24875259
REMARK  11 active torsions:
REMARK  status: ('A' for Active; 'I' for Inactive)
REMARK    1  A    between atoms: C_1  and  C_3
REMARK    2  A    between atoms: C_1  and  C_16
REMARK    3  A    between atoms: C_5  and  O_10
REMARK    4  A    between atoms: C_7  and  O_12
REMARK    5  A    between atoms: C_9  and  O_14
REMARK    6  A    between atoms: C_17  and  C_19
REMARK    7  A    between atoms: C_19  and  C_20
REMARK    8  A    between atoms: C_20  and  C_21
REMARK    9  A    between atoms: C_22  and  C_24
REMARK   10  A    between atoms: C_24  and  C_25
REMARK   11  A    between atoms: C_25  and  C_26
REMARK                            x       y       z     vdW  Elec       q    Type
REMARK                         _______ _______ _______ _____ _____    ______ ____
ROOT
ATOM      1  C   UNL     1      34.259 -13.497 -23.191  0.00  0.00    +0.029 C 
ENDROOT
BRANCH   1   3
ATOM      2  O   UNL     1      35.168 -16.001 -20.153  0.00  0.00    -0.288 OA
ATOM      3  C   UNL     1      33.257 -14.637 -22.932  0.00  0.00    +0.046 C 
ATOM      4  C   UNL     1      33.364 -15.130 -21.476  0.00  0.00    +0.068 C 
ATOM      5  C   UNL     1      33.420 -15.806 -23.922  0.00  0.00    +0.170 C 
ATOM      6  C   UNL     1      34.631 -15.945 -21.259  0.00  0.00    +0.209 C 
ATOM      7  C   UNL     1      34.607 -16.674 -23.604  0.00  0.00    +0.179 C 
ATOM      8  C   UNL     1      32.158 -15.963 -21.045  0.00  0.00    +0.008 C 
ATOM      9  C   UNL     1      35.187 -16.735 -22.395  0.00  0.00    +0.205 C 
BRANCH   5  10
ATOM     10  O   UNL     1      33.532 -15.308 -25.255  0.00  0.00    -0.377 OA
ATOM     11  H   UNL     1      32.647 -15.211 -25.640  0.00  0.00    +0.211 HD
ENDBRANCH   5  10
BRANCH   7  12
ATOM     12  O   UNL     1      35.097 -17.446 -24.644  0.00  0.00    -0.470 OA
ATOM     13  C   UNL     1      34.315 -18.610 -24.812  0.00  0.00    +0.252 C 
ENDBRANCH   7  12
BRANCH   9  14
ATOM     14  O   UNL     1      36.282 -17.526 -22.125  0.00  0.00    -0.466 OA
ATOM     15  C   UNL     1      35.888 -18.746 -21.527  0.00  0.00    +0.253 C 
ENDBRANCH   9  14
ENDBRANCH   1   3
BRANCH   1  16
ATOM     16  C   UNL     1      33.595 -12.153 -23.101  0.00  0.00    -0.034 C 
ATOM     17  C   UNL     1      33.593 -11.180 -24.032  0.00  0.00    -0.048 C 
ATOM     18  C   UNL     1      34.313 -11.375 -25.341  0.00  0.00    +0.026 C 
BRANCH  17  19
ATOM     19  C   UNL     1      32.876  -9.857 -23.881  0.00  0.00    +0.026 C 
BRANCH  19  20
ATOM     20  C   UNL     1      33.738  -8.823 -23.151  0.00  0.00    +0.030 C 
BRANCH  20  21
ATOM     21  C   UNL     1      32.943  -7.600 -22.787  0.00  0.00    -0.034 C 
ATOM     22  C   UNL     1      32.437  -7.297 -21.576  0.00  0.00    -0.048 C 
ATOM     23  C   UNL     1      32.641  -8.223 -20.408  0.00  0.00    +0.026 C 
BRANCH  22  24
ATOM     24  C   UNL     1      31.679  -6.025 -21.272  0.00  0.00    +0.026 C 
BRANCH  24  25
ATOM     25  C   UNL     1      30.731  -5.628 -22.404  0.00  0.00    +0.030 C 
BRANCH  25  26
ATOM     26  C   UNL     1      31.085  -4.274 -22.954  0.00  0.00    -0.034 C 
ATOM     27  C   UNL     1      31.614  -3.994 -24.160  0.00  0.00    -0.048 C 
ATOM     28  C   UNL     1      31.883  -2.569 -24.565  0.00  0.00    +0.026 C 
ATOM     29  C   UNL     1      31.999  -5.016 -25.192  0.00  0.00    +0.026 C 
ENDBRANCH  25  26
ENDBRANCH  24  25
ENDBRANCH  22  24
ENDBRANCH  20  21
ENDBRANCH  19  20
ENDBRANCH  17  19
ENDBRANCH   1  16
TORSDOF 11
ENDMDL
