MODEL 1
REMARK VINA RESULT:      -8.1      0.000      0.000
REMARK  Name = 3033968
REMARK  3 active torsions:
REMARK  status: ('A' for Active; 'I' for Inactive)
REMARK    1  A    between atoms: C_2  and  C_21
REMARK    2  A    between atoms: C_9  and  O_19
REMARK    3  A    between atoms: C_9  and  C_23
REMARK                            x       y       z     vdW  Elec       q    Type
REMARK                         _______ _______ _______ _____ _____    ______ ____
ROOT
ATOM      1  O   UNL     1      27.973 -22.740 -15.708  0.00  0.00    -0.291 OA
ATOM      2  C   UNL     1      36.084 -24.630 -14.272  0.00  0.00    +0.033 C 
ATOM      3  C   UNL     1      34.261 -23.738 -15.826  0.00  0.00    +0.001 C 
ATOM      4  C   UNL     1      35.590 -23.432 -15.130  0.00  0.00    +0.003 C 
ATOM      5  C   UNL     1      33.184 -24.003 -14.728  0.00  0.00    +0.004 C 
ATOM      6  C   UNL     1      35.064 -24.833 -13.138  0.00  0.00    +0.003 C 
ATOM      7  C   UNL     1      33.641 -25.059 -13.685  0.00  0.00    +0.000 C 
ATOM      8  C   UNL     1      31.805 -24.353 -15.369  0.00  0.00    +0.019 C 
ATOM      9  C   UNL     1      37.526 -24.164 -13.887  0.00  0.00    +0.142 C 
ATOM     10  C   UNL     1      33.801 -22.583 -16.726  0.00  0.00    +0.004 C 
ATOM     11  C   UNL     1      36.839 -23.091 -15.885  0.00  0.00    +0.004 C 
ATOM     12  C   UNL     1      31.410 -23.320 -16.417  0.00  0.00    -0.042 C 
ATOM     13  C   UNL     1      32.478 -22.924 -17.405  0.00  0.00    +0.022 C 
ATOM     14  C   UNL     1      37.916 -23.451 -15.165  0.00  0.00    +0.039 C 
ATOM     15  C   UNL     1      30.725 -24.505 -14.278  0.00  0.00    +0.012 C 
ATOM     16  C   UNL     1      29.318 -24.528 -14.849  0.00  0.00    +0.069 C 
ATOM     17  C   UNL     1      30.178 -22.794 -16.519  0.00  0.00    +0.029 C 
ATOM     18  C   UNL     1      29.072 -23.289 -15.669  0.00  0.00    +0.173 C 
ENDROOT
BRANCH   9  19
ATOM     19  O   UNL     1      38.388 -25.262 -13.634  0.00  0.00    -0.375 OA
ATOM     20  H   UNL     1      38.381 -25.468 -12.686  0.00  0.00    +0.211 HD
ENDBRANCH   9  19
BRANCH   2  21
ATOM     21  C   UNL     1      36.189 -25.971 -15.075  0.00  0.00    +0.003 C 
ATOM     22  C   UNL     1      36.809 -27.037 -14.216  0.00  0.00    +0.000 C 
ENDBRANCH   2  21
BRANCH   9  23
ATOM     23  C   UNL     1      37.587 -23.225 -12.758  0.00  0.00    -0.053 C 
ATOM     24  C   UNL     1      37.635 -22.458 -11.835  0.00  0.00    -0.012 C 
ENDBRANCH   9  23
TORSDOF 3
ENDMDL
MODEL 2
REMARK VINA RESULT:      -7.6      1.272      3.086
REMARK  Name = 3033968
REMARK  3 active torsions:
REMARK  status: ('A' for Active; 'I' for Inactive)
REMARK    1  A    between atoms: C_2  and  C_21
REMARK    2  A    between atoms: C_9  and  O_19
REMARK    3  A    between atoms: C_9  and  C_23
REMARK                            x       y       z     vdW  Elec       q    Type
REMARK                         _______ _______ _______ _____ _____    ______ ____
ROOT
ATOM      1  O   UNL     1      27.407 -23.402 -15.921  0.00  0.00    -0.291 OA
ATOM      2  C   UNL     1      35.800 -23.850 -15.026  0.00  0.00    +0.033 C 
ATOM      3  C   UNL     1      33.481 -23.493 -14.009  0.00  0.00    +0.001 C 
ATOM      4  C   UNL     1      34.767 -24.323 -13.965  0.00  0.00    +0.003 C 
ATOM      5  C   UNL     1      32.827 -23.679 -15.414  0.00  0.00    +0.004 C 
ATOM      6  C   UNL     1      35.187 -24.115 -16.411  0.00  0.00    +0.003 C 
ATOM      7  C   UNL     1      33.823 -23.415 -16.576  0.00  0.00    +0.000 C 
ATOM      8  C   UNL     1      31.523 -22.834 -15.541  0.00  0.00    +0.019 C 
ATOM      9  C   UNL     1      37.066 -24.668 -14.613  0.00  0.00    +0.142 C 
ATOM     10  C   UNL     1      32.483 -23.914 -12.921  0.00  0.00    +0.004 C 
ATOM     11  C   UNL     1      35.634 -24.408 -12.745  0.00  0.00    +0.004 C 
ATOM     12  C   UNL     1      30.589 -23.085 -14.363  0.00  0.00    -0.042 C 
ATOM     13  C   UNL     1      31.218 -23.064 -12.993  0.00  0.00    +0.022 C 
ATOM     14  C   UNL     1      36.904 -24.654 -13.108  0.00  0.00    +0.039 C 
ATOM     15  C   UNL     1      30.829 -23.110 -16.891  0.00  0.00    +0.012 C 
ATOM     16  C   UNL     1      29.411 -22.570 -16.940  0.00  0.00    +0.069 C 
ATOM     17  C   UNL     1      29.266 -23.277 -14.487  0.00  0.00    +0.029 C 
ATOM     18  C   UNL     1      28.601 -23.137 -15.803  0.00  0.00    +0.173 C 
ENDROOT
BRANCH   9  19
ATOM     19  O   UNL     1      38.266 -24.018 -15.002  0.00  0.00    -0.375 OA
ATOM     20  H   UNL     1      39.022 -24.445 -14.569  0.00  0.00    +0.211 HD
ENDBRANCH   9  19
BRANCH   2  21
ATOM     21  C   UNL     1      36.137 -22.322 -14.929  0.00  0.00    +0.003 C 
ATOM     22  C   UNL     1      36.757 -21.852 -16.215  0.00  0.00    +0.000 C 
ENDBRANCH   2  21
BRANCH   9  23
ATOM     23  C   UNL     1      37.084 -26.056 -15.097  0.00  0.00    -0.053 C 
ATOM     24  C   UNL     1      37.098 -27.190 -15.493  0.00  0.00    -0.012 C 
ENDBRANCH   9  23
TORSDOF 3
ENDMDL
MODEL 3
REMARK VINA RESULT:      -7.3      1.434      6.705
REMARK  Name = 3033968
REMARK  3 active torsions:
REMARK  status: ('A' for Active; 'I' for Inactive)
REMARK    1  A    between atoms: C_2  and  C_21
REMARK    2  A    between atoms: C_9  and  O_19
REMARK    3  A    between atoms: C_9  and  C_23
REMARK                            x       y       z     vdW  Elec       q    Type
REMARK                         _______ _______ _______ _____ _____    ______ ____
ROOT
ATOM      1  O   UNL     1      39.836 -25.687 -14.008  0.00  0.00    -0.291 OA
ATOM      2  C   UNL     1      31.672 -23.602 -14.672  0.00  0.00    +0.033 C 
ATOM      3  C   UNL     1      34.110 -23.247 -15.355  0.00  0.00    +0.001 C 
ATOM      4  C   UNL     1      32.695 -23.570 -15.842  0.00  0.00    +0.003 C 
ATOM      5  C   UNL     1      34.558 -24.374 -14.373  0.00  0.00    +0.004 C 
ATOM      6  C   UNL     1      32.066 -24.769 -13.751  0.00  0.00    +0.003 C 
ATOM      7  C   UNL     1      33.518 -24.636 -13.249  0.00  0.00    +0.000 C 
ATOM      8  C   UNL     1      35.986 -24.092 -13.811  0.00  0.00    +0.019 C 
ATOM      9  C   UNL     1      30.317 -23.702 -15.446  0.00  0.00    +0.142 C 
ATOM     10  C   UNL     1      35.112 -23.150 -16.514  0.00  0.00    +0.004 C 
ATOM     11  C   UNL     1      31.964 -22.714 -16.832  0.00  0.00    +0.004 C 
ATOM     12  C   UNL     1      36.969 -23.797 -14.937  0.00  0.00    -0.042 C 
ATOM     13  C   UNL     1      36.508 -22.824 -15.993  0.00  0.00    +0.022 C 
ATOM     14  C   UNL     1      30.639 -22.832 -16.643  0.00  0.00    +0.039 C 
ATOM     15  C   UNL     1      36.460 -25.265 -12.929  0.00  0.00    +0.012 C 
ATOM     16  C   UNL     1      37.945 -25.198 -12.618  0.00  0.00    +0.069 C 
ATOM     17  C   UNL     1      38.205 -24.318 -15.005  0.00  0.00    +0.029 C 
ATOM     18  C   UNL     1      38.740 -25.142 -13.897  0.00  0.00    +0.173 C 
ENDROOT
BRANCH   9  19
ATOM     19  O   UNL     1      29.239 -23.160 -14.698  0.00  0.00    -0.375 OA
ATOM     20  H   UNL     1      29.447 -23.205 -13.751  0.00  0.00    +0.211 HD
ENDBRANCH   9  19
BRANCH   2  21
ATOM     21  C   UNL     1      31.664 -22.290 -13.815  0.00  0.00    +0.003 C 
ATOM     22  C   UNL     1      31.227 -22.597 -12.410  0.00  0.00    +0.000 C 
ENDBRANCH   2  21
BRANCH   9  23
ATOM     23  C   UNL     1      29.966 -25.056 -15.896  0.00  0.00    -0.053 C 
ATOM     24  C   UNL     1      29.680 -26.163 -16.264  0.00  0.00    -0.012 C 
ENDBRANCH   9  23
TORSDOF 3
ENDMDL
MODEL 4
REMARK VINA RESULT:      -7.0      9.536     11.535
REMARK  Name = 3033968
REMARK  3 active torsions:
REMARK  status: ('A' for Active; 'I' for Inactive)
REMARK    1  A    between atoms: C_2  and  C_21
REMARK    2  A    between atoms: C_9  and  O_19
REMARK    3  A    between atoms: C_9  and  C_23
REMARK                            x       y       z     vdW  Elec       q    Type
REMARK                         _______ _______ _______ _____ _____    ______ ____
ROOT
ATOM      1  O   UNL     1      32.038  -9.870 -21.578  0.00  0.00    -0.291 OA
ATOM      2  C   UNL     1      34.446 -17.957 -22.065  0.00  0.00    +0.033 C 
ATOM      3  C   UNL     1      33.437 -15.878 -23.159  0.00  0.00    +0.001 C 
ATOM      4  C   UNL     1      34.549 -16.928 -23.226  0.00  0.00    +0.003 C 
ATOM      5  C   UNL     1      33.588 -15.090 -21.821  0.00  0.00    +0.004 C 
ATOM      6  C   UNL     1      34.682 -17.191 -20.753  0.00  0.00    +0.003 C 
ATOM      7  C   UNL     1      33.688 -16.025 -20.584  0.00  0.00    +0.000 C 
ATOM      8  C   UNL     1      32.464 -14.019 -21.671  0.00  0.00    +0.019 C 
ATOM      9  C   UNL     1      35.508 -19.020 -22.497  0.00  0.00    +0.142 C 
ATOM     10  C   UNL     1      33.495 -14.898 -24.340  0.00  0.00    +0.004 C 
ATOM     11  C   UNL     1      34.729 -17.843 -24.399  0.00  0.00    +0.004 C 
ATOM     12  C   UNL     1      32.367 -13.148 -22.918  0.00  0.00    -0.042 C 
ATOM     13  C   UNL     1      32.372 -13.870 -24.242  0.00  0.00    +0.022 C 
ATOM     14  C   UNL     1      35.312 -18.986 -23.998  0.00  0.00    +0.039 C 
ATOM     15  C   UNL     1      32.688 -13.175 -20.399  0.00  0.00    +0.012 C 
ATOM     16  C   UNL     1      31.824 -11.927 -20.367  0.00  0.00    +0.069 C 
ATOM     17  C   UNL     1      32.239 -11.812 -22.887  0.00  0.00    +0.029 C 
ATOM     18  C   UNL     1      32.064 -11.098 -21.602  0.00  0.00    +0.173 C 
ENDROOT
BRANCH   9  19
ATOM     19  O   UNL     1      35.211 -20.306 -21.975  0.00  0.00    -0.375 OA
ATOM     20  H   UNL     1      34.530 -20.228 -21.288  0.00  0.00    +0.211 HD
ENDBRANCH   9  19
BRANCH   2  21
ATOM     21  C   UNL     1      33.046 -18.655 -21.974  0.00  0.00    +0.003 C 
ATOM     22  C   UNL     1      32.938 -19.421 -20.685  0.00  0.00    +0.000 C 
ENDBRANCH   2  21
BRANCH   9  23
ATOM     23  C   UNL     1      36.897 -18.668 -22.169  0.00  0.00    -0.053 C 
ATOM     24  C   UNL     1      38.032 -18.381 -21.903  0.00  0.00    -0.012 C 
ENDBRANCH   9  23
TORSDOF 3
ENDMDL
MODEL 5
REMARK VINA RESULT:      -6.9     10.085     12.298
REMARK  Name = 3033968
REMARK  3 active torsions:
REMARK  status: ('A' for Active; 'I' for Inactive)
REMARK    1  A    between atoms: C_2  and  C_21
REMARK    2  A    between atoms: C_9  and  O_19
REMARK    3  A    between atoms: C_9  and  C_23
REMARK                            x       y       z     vdW  Elec       q    Type
REMARK                         _______ _______ _______ _____ _____    ______ ____
ROOT
ATOM      1  O   UNL     1      34.425 -10.313 -25.882  0.00  0.00    -0.291 OA
ATOM      2  C   UNL     1      34.287 -17.631 -21.655  0.00  0.00    +0.033 C 
ATOM      3  C   UNL     1      33.832 -16.298 -23.789  0.00  0.00    +0.001 C 
ATOM      4  C   UNL     1      34.574 -17.489 -23.176  0.00  0.00    +0.003 C 
ATOM      5  C   UNL     1      34.339 -14.996 -23.094  0.00  0.00    +0.004 C 
ATOM      6  C   UNL     1      34.865 -16.386 -20.962  0.00  0.00    +0.003 C 
ATOM      7  C   UNL     1      34.279 -15.084 -21.544  0.00  0.00    +0.000 C 
ATOM      8  C   UNL     1      33.600 -13.740 -23.651  0.00  0.00    +0.019 C 
ATOM      9  C   UNL     1      34.941 -19.016 -21.342  0.00  0.00    +0.142 C 
ATOM     10  C   UNL     1      34.061 -16.192 -25.303  0.00  0.00    +0.004 C 
ATOM     11  C   UNL     1      34.361 -18.899 -23.636  0.00  0.00    +0.004 C 
ATOM     12  C   UNL     1      33.641 -13.709 -25.173  0.00  0.00    -0.042 C 
ATOM     13  C   UNL     1      33.305 -14.999 -25.879  0.00  0.00    +0.022 C 
ATOM     14  C   UNL     1      34.619 -19.750 -22.628  0.00  0.00    +0.039 C 
ATOM     15  C   UNL     1      34.185 -12.452 -23.036  0.00  0.00    +0.012 C 
ATOM     16  C   UNL     1      33.734 -11.199 -23.765  0.00  0.00    +0.069 C 
ATOM     17  C   UNL     1      33.917 -12.608 -25.891  0.00  0.00    +0.029 C 
ATOM     18  C   UNL     1      34.086 -11.296 -25.226  0.00  0.00    +0.173 C 
ENDROOT
BRANCH   9  19
ATOM     19  O   UNL     1      34.332 -19.649 -20.228  0.00  0.00    -0.375 OA
ATOM     20  H   UNL     1      34.492 -20.605 -20.272  0.00  0.00    +0.211 HD
ENDBRANCH   9  19
BRANCH   2  21
ATOM     21  C   UNL     1      32.760 -17.710 -21.314  0.00  0.00    +0.003 C 
ATOM     22  C   UNL     1      32.337 -16.479 -20.562  0.00  0.00    +0.000 C 
ENDBRANCH   2  21
BRANCH   9  23
ATOM     23  C   UNL     1      36.398 -18.976 -21.146  0.00  0.00    -0.053 C 
ATOM     24  C   UNL     1      37.587 -18.945 -20.985  0.00  0.00    -0.012 C 
ENDBRANCH   9  23
TORSDOF 3
ENDMDL
MODEL 6
REMARK VINA RESULT:      -6.9      2.849      3.893
REMARK  Name = 3033968
REMARK  3 active torsions:
REMARK  status: ('A' for Active; 'I' for Inactive)
REMARK    1  A    between atoms: C_2  and  C_21
REMARK    2  A    between atoms: C_9  and  O_19
REMARK    3  A    between atoms: C_9  and  C_23
REMARK                            x       y       z     vdW  Elec       q    Type
REMARK                         _______ _______ _______ _____ _____    ______ ____
ROOT
ATOM      1  O   UNL     1      33.471 -20.274 -20.252  0.00  0.00    -0.291 OA
ATOM      2  C   UNL     1      36.482 -24.881 -13.838  0.00  0.00    +0.033 C 
ATOM      3  C   UNL     1      36.870 -23.234 -15.754  0.00  0.00    +0.001 C 
ATOM      4  C   UNL     1      37.010 -23.478 -14.248  0.00  0.00    +0.003 C 
ATOM      5  C   UNL     1      35.354 -23.287 -16.118  0.00  0.00    +0.004 C 
ATOM      6  C   UNL     1      34.970 -24.900 -14.118  0.00  0.00    +0.003 C 
ATOM      7  C   UNL     1      34.658 -24.572 -15.592  0.00  0.00    +0.000 C 
ATOM      8  C   UNL     1      35.139 -23.075 -17.649  0.00  0.00    +0.019 C 
ATOM      9  C   UNL     1      36.954 -24.968 -12.350  0.00  0.00    +0.142 C 
ATOM     10  C   UNL     1      37.451 -21.876 -16.175  0.00  0.00    +0.004 C 
ATOM     11  C   UNL     1      38.334 -23.459 -13.545  0.00  0.00    +0.004 C 
ATOM     12  C   UNL     1      35.871 -21.832 -18.139  0.00  0.00    -0.042 C 
ATOM     13  C   UNL     1      37.297 -21.668 -17.678  0.00  0.00    +0.022 C 
ATOM     14  C   UNL     1      38.281 -24.247 -12.458  0.00  0.00    +0.039 C 
ATOM     15  C   UNL     1      33.633 -23.021 -17.980  0.00  0.00    +0.012 C 
ATOM     16  C   UNL     1      33.362 -22.505 -19.382  0.00  0.00    +0.069 C 
ATOM     17  C   UNL     1      35.330 -20.925 -18.969  0.00  0.00    +0.029 C 
ATOM     18  C   UNL     1      33.993 -21.149 -19.566  0.00  0.00    +0.173 C 
ENDROOT
BRANCH   9  19
ATOM     19  O   UNL     1      37.137 -26.312 -11.930  0.00  0.00    -0.375 OA
ATOM     20  H   UNL     1      36.810 -26.913 -12.617  0.00  0.00    +0.211 HD
ENDBRANCH   9  19
BRANCH   2  21
ATOM     21  C   UNL     1      37.139 -26.055 -14.641  0.00  0.00    +0.003 C 
ATOM     22  C   UNL     1      36.071 -26.944 -15.215  0.00  0.00    +0.000 C 
ENDBRANCH   2  21
BRANCH   9  23
ATOM     23  C   UNL     1      36.087 -24.270 -11.389  0.00  0.00    -0.053 C 
ATOM     24  C   UNL     1      35.380 -23.701 -10.604  0.00  0.00    -0.012 C 
ENDBRANCH   9  23
TORSDOF 3
ENDMDL
MODEL 7
REMARK VINA RESULT:      -6.8      5.688      8.561
REMARK  Name = 3033968
REMARK  3 active torsions:
REMARK  status: ('A' for Active; 'I' for Inactive)
REMARK    1  A    between atoms: C_2  and  C_21
REMARK    2  A    between atoms: C_9  and  O_19
REMARK    3  A    between atoms: C_9  and  C_23
REMARK                            x       y       z     vdW  Elec       q    Type
REMARK                         _______ _______ _______ _____ _____    ______ ____
ROOT
ATOM      1  O   UNL     1      34.485 -24.989 -15.983  0.00  0.00    -0.291 OA
ATOM      2  C   UNL     1      34.495 -18.868 -21.810  0.00  0.00    +0.033 C 
ATOM      3  C   UNL     1      35.659 -20.111 -19.904  0.00  0.00    +0.001 C 
ATOM      4  C   UNL     1      35.747 -19.676 -21.370  0.00  0.00    +0.003 C 
ATOM      5  C   UNL     1      34.420 -21.045 -19.745  0.00  0.00    +0.004 C 
ATOM      6  C   UNL     1      33.288 -19.818 -21.736  0.00  0.00    +0.003 C 
ATOM      7  C   UNL     1      33.122 -20.421 -20.326  0.00  0.00    +0.000 C 
ATOM      8  C   UNL     1      34.251 -21.504 -18.263  0.00  0.00    +0.019 C 
ATOM      9  C   UNL     1      34.938 -18.352 -23.219  0.00  0.00    +0.142 C 
ATOM     10  C   UNL     1      36.922 -20.854 -19.445  0.00  0.00    +0.004 C 
ATOM     11  C   UNL     1      36.846 -18.800 -21.889  0.00  0.00    +0.004 C 
ATOM     12  C   UNL     1      35.553 -22.071 -17.713  0.00  0.00    -0.042 C 
ATOM     13  C   UNL     1      36.801 -21.268 -17.981  0.00  0.00    +0.022 C 
ATOM     14  C   UNL     1      36.408 -18.104 -22.952  0.00  0.00    +0.039 C 
ATOM     15  C   UNL     1      33.089 -22.512 -18.139  0.00  0.00    +0.012 C 
ATOM     16  C   UNL     1      33.080 -23.229 -16.801  0.00  0.00    +0.069 C 
ATOM     17  C   UNL     1      35.629 -23.198 -16.987  0.00  0.00    +0.029 C 
ATOM     18  C   UNL     1      34.401 -23.913 -16.570  0.00  0.00    +0.173 C 
ENDROOT
BRANCH   9  19
ATOM     19  O   UNL     1      34.275 -17.149 -23.574  0.00  0.00    -0.375 OA
ATOM     20  H   UNL     1      34.876 -16.398 -23.447  0.00  0.00    +0.211 HD
ENDBRANCH   9  19
BRANCH   2  21
ATOM     21  C   UNL     1      34.197 -17.632 -20.895  0.00  0.00    +0.003 C 
ATOM     22  C   UNL     1      32.737 -17.283 -20.963  0.00  0.00    +0.000 C 
ENDBRANCH   2  21
BRANCH   9  23
ATOM     23  C   UNL     1      34.789 -19.331 -24.305  0.00  0.00    -0.053 C 
ATOM     24  C   UNL     1      34.668 -20.130 -25.193  0.00  0.00    -0.012 C 
ENDBRANCH   9  23
TORSDOF 3
ENDMDL
MODEL 8
REMARK VINA RESULT:      -6.7     19.549     21.972
REMARK  Name = 3033968
REMARK  3 active torsions:
REMARK  status: ('A' for Active; 'I' for Inactive)
REMARK    1  A    between atoms: C_2  and  C_21
REMARK    2  A    between atoms: C_9  and  O_19
REMARK    3  A    between atoms: C_9  and  C_23
REMARK                            x       y       z     vdW  Elec       q    Type
REMARK                         _______ _______ _______ _____ _____    ______ ____
ROOT
ATOM      1  O   UNL     1      31.934 -10.154 -21.330  0.00  0.00    -0.291 OA
ATOM      2  C   UNL     1      32.923  -3.704 -26.701  0.00  0.00    +0.033 C 
ATOM      3  C   UNL     1      33.930  -5.582 -25.287  0.00  0.00    +0.001 C 
ATOM      4  C   UNL     1      33.789  -4.995 -26.695  0.00  0.00    +0.003 C 
ATOM      5  C   UNL     1      32.507  -5.969 -24.775  0.00  0.00    +0.004 C 
ATOM      6  C   UNL     1      31.500  -4.105 -26.279  0.00  0.00    +0.003 C 
ATOM      7  C   UNL     1      31.487  -4.805 -24.905  0.00  0.00    +0.000 C 
ATOM      8  C   UNL     1      32.572  -6.548 -23.328  0.00  0.00    +0.019 C 
ATOM      9  C   UNL     1      33.139  -3.192 -28.162  0.00  0.00    +0.142 C 
ATOM     10  C   UNL     1      34.836  -6.820 -25.265  0.00  0.00    +0.004 C 
ATOM     11  C   UNL     1      34.967  -4.550 -27.507  0.00  0.00    +0.004 C 
ATOM     12  C   UNL     1      33.612  -7.657 -23.226  0.00  0.00    -0.042 C 
ATOM     13  C   UNL     1      34.956  -7.375 -23.849  0.00  0.00    +0.022 C 
ATOM     14  C   UNL     1      34.589  -3.583 -28.361  0.00  0.00    +0.039 C 
ATOM     15  C   UNL     1      31.178  -7.028 -22.875  0.00  0.00    +0.012 C 
ATOM     16  C   UNL     1      31.233  -7.881 -21.620  0.00  0.00    +0.069 C 
ATOM     17  C   UNL     1      33.402  -8.822 -22.591  0.00  0.00    +0.029 C 
ATOM     18  C   UNL     1      32.153  -9.054 -21.832  0.00  0.00    +0.173 C 
ENDROOT
BRANCH   9  19
ATOM     19  O   UNL     1      32.974  -1.786 -28.260  0.00  0.00    -0.375 OA
ATOM     20  H   UNL     1      33.700  -1.409 -28.781  0.00  0.00    +0.211 HD
ENDBRANCH   9  19
BRANCH   2  21
ATOM     21  C   UNL     1      33.434  -2.607 -25.705  0.00  0.00    +0.003 C 
ATOM     22  C   UNL     1      32.274  -1.798 -25.195  0.00  0.00    +0.000 C 
ENDBRANCH   2  21
BRANCH   9  23
ATOM     23  C   UNL     1      32.304  -3.854 -29.174  0.00  0.00    -0.053 C 
ATOM     24  C   UNL     1      31.621  -4.395 -30.000  0.00  0.00    -0.012 C 
ENDBRANCH   9  23
TORSDOF 3
ENDMDL
MODEL 9
REMARK VINA RESULT:      -5.6      4.378      7.165
REMARK  Name = 3033968
REMARK  3 active torsions:
REMARK  status: ('A' for Active; 'I' for Inactive)
REMARK    1  A    between atoms: C_2  and  C_21
REMARK    2  A    between atoms: C_9  and  O_19
REMARK    3  A    between atoms: C_9  and  C_23
REMARK                            x       y       z     vdW  Elec       q    Type
REMARK                         _______ _______ _______ _____ _____    ______ ____
ROOT
ATOM      1  O   UNL     1      35.393 -23.834 -12.843  0.00  0.00    -0.291 OA
ATOM      2  C   UNL     1      35.334 -20.478 -20.600  0.00  0.00    +0.033 C 
ATOM      3  C   UNL     1      34.218 -21.907 -18.798  0.00  0.00    +0.001 C 
ATOM      4  C   UNL     1      34.074 -20.688 -19.714  0.00  0.00    +0.003 C 
ATOM      5  C   UNL     1      35.426 -21.660 -17.842  0.00  0.00    +0.004 C 
ATOM      6  C   UNL     1      36.505 -20.148 -19.659  0.00  0.00    +0.003 C 
ATOM      7  C   UNL     1      36.717 -21.252 -18.603  0.00  0.00    +0.000 C 
ATOM      8  C   UNL     1      35.651 -22.881 -16.897  0.00  0.00    +0.019 C 
ATOM      9  C   UNL     1      34.842 -19.362 -21.578  0.00  0.00    +0.142 C 
ATOM     10  C   UNL     1      32.951 -22.159 -17.967  0.00  0.00    +0.004 C 
ATOM     11  C   UNL     1      32.986 -20.569 -20.737  0.00  0.00    +0.004 C 
ATOM     12  C   UNL     1      34.356 -23.281 -16.200  0.00  0.00    -0.042 C 
ATOM     13  C   UNL     1      33.129 -23.380 -17.071  0.00  0.00    +0.022 C 
ATOM     14  C   UNL     1      33.398 -19.785 -21.748  0.00  0.00    +0.039 C 
ATOM     15  C   UNL     1      36.776 -22.581 -15.885  0.00  0.00    +0.012 C 
ATOM     16  C   UNL     1      36.824 -23.588 -14.750  0.00  0.00    +0.069 C 
ATOM     17  C   UNL     1      34.272 -23.578 -14.893  0.00  0.00    +0.029 C 
ATOM     18  C   UNL     1      35.490 -23.649 -14.054  0.00  0.00    +0.173 C 
ENDROOT
BRANCH   9  19
ATOM     19  O   UNL     1      35.533 -19.403 -22.817  0.00  0.00    -0.375 OA
ATOM     20  H   UNL     1      36.362 -18.904 -22.742  0.00  0.00    +0.211 HD
ENDBRANCH   9  19
BRANCH   2  21
ATOM     21  C   UNL     1      35.725 -21.742 -21.438  0.00  0.00    +0.003 C 
ATOM     22  C   UNL     1      37.108 -22.197 -21.064  0.00  0.00    +0.000 C 
ENDBRANCH   2  21
BRANCH   9  23
ATOM     23  C   UNL     1      34.898 -17.998 -21.032  0.00  0.00    -0.053 C 
ATOM     24  C   UNL     1      34.944 -16.884 -20.587  0.00  0.00    -0.012 C 
ENDBRANCH   9  23
TORSDOF 3
ENDMDL
