MODEL 1
REMARK VINA RESULT:     -12.2      0.000      0.000
REMARK  Name = 66555680
REMARK  4 active torsions:
REMARK  status: ('A' for Active; 'I' for Inactive)
REMARK    1  A    between atoms: N_1  and  C_8
REMARK    2  A    between atoms: C_3  and  C_22
REMARK    3  A    between atoms: C_4  and  N_18
REMARK    4  A    between atoms: C_22  and  C_24
REMARK                            x       y       z     vdW  Elec       q    Type
REMARK                         _______ _______ _______ _____ _____    ______ ____
ROOT
ATOM      1  N   UNL     1      34.889 -19.631 -20.635  0.00  0.00    -0.177 N 
ATOM      2  N   UNL     1      36.112 -19.907 -20.150  0.00  0.00    -0.171 NA
ATOM      3  C   UNL     1      34.626 -21.576 -19.676  0.00  0.00    +0.090 C 
ATOM      4  C   UNL     1      33.962 -20.599 -20.378  0.00  0.00    +0.122 C 
ATOM      5  C   UNL     1      35.945 -21.096 -19.565  0.00  0.00    +0.124 C 
ENDROOT
BRANCH   1   8
ATOM      6  N   UNL     1      32.810 -15.224 -21.356  0.00  0.00    -0.318 N 
ATOM      7  N   UNL     1      33.918 -14.834 -23.244  0.00  0.00    -0.318 N 
ATOM      8  C   UNL     1      34.678 -18.437 -21.327  0.00  0.00    +0.077 C 
ATOM      9  C   UNL     1      33.599 -16.328 -21.552  0.00  0.00    +0.060 C 
ATOM     10  C   UNL     1      33.769 -17.502 -20.819  0.00  0.00    +0.032 C 
ATOM     11  C   UNL     1      34.280 -16.061 -22.736  0.00  0.00    +0.059 C 
ATOM     12  C   UNL     1      35.376 -18.197 -22.513  0.00  0.00    +0.018 C 
ATOM     13  C   UNL     1      35.189 -17.011 -23.233  0.00  0.00    +0.017 C 
ATOM     14  C   UNL     1      33.037 -14.360 -22.392  0.00  0.00    +0.144 C 
ATOM     15  C   UNL     1      32.336 -13.065 -22.476  0.00  0.00    +0.044 C 
ATOM     16  H   UNL     1      32.193 -15.078 -20.603  0.00  0.00    +0.148 HD
ATOM     17  H   UNL     1      34.247 -14.405 -24.066  0.00  0.00    +0.148 HD
ENDBRANCH   1   8
BRANCH   4  18
ATOM     18  N   UNL     1      32.680 -20.494 -20.790  0.00  0.00    -0.344 N 
ATOM     19  H   UNL     1      32.059 -21.246 -20.663  0.00  0.00    +0.144 HD
ATOM     20  H   UNL     1      32.368 -19.664 -21.217  0.00  0.00    +0.144 HD
ENDBRANCH   4  18
BRANCH   3  22
ATOM     21  O   UNL     1      34.186 -23.862 -19.899  0.00  0.00    -0.285 OA
ATOM     22  C   UNL     1      34.037 -22.863 -19.156  0.00  0.00    +0.213 C 
BRANCH  22  24
ATOM     23  N   UNL     1      32.003 -22.768 -17.763  0.00  0.00    -0.310 N 
ATOM     24  C   UNL     1      33.351 -22.963 -17.907  0.00  0.00    +0.088 C 
ATOM     25  C   UNL     1      31.639 -22.930 -16.445  0.00  0.00    +0.048 C 
ATOM     26  C   UNL     1      32.799 -23.238 -15.732  0.00  0.00    +0.015 C 
ATOM     27  C   UNL     1      33.872 -23.255 -16.668  0.00  0.00    +0.019 C 
ATOM     28  C   UNL     1      30.384 -22.828 -15.835  0.00  0.00    +0.015 C 
ATOM     29  C   UNL     1      32.705 -23.457 -14.344  0.00  0.00    +0.001 C 
ATOM     30  C   UNL     1      30.314 -23.049 -14.457  0.00  0.00    +0.001 C 
ATOM     31  C   UNL     1      31.456 -23.359 -13.721  0.00  0.00    +0.000 C 
ATOM     32  H   UNL     1      31.384 -22.544 -18.495  0.00  0.00    +0.152 HD
ENDBRANCH  22  24
ENDBRANCH   3  22
TORSDOF 4
ENDMDL
MODEL 2
REMARK VINA RESULT:     -11.9      1.705      2.189
REMARK  Name = 66555680
REMARK  4 active torsions:
REMARK  status: ('A' for Active; 'I' for Inactive)
REMARK    1  A    between atoms: N_1  and  C_8
REMARK    2  A    between atoms: C_3  and  C_22
REMARK    3  A    between atoms: C_4  and  N_18
REMARK    4  A    between atoms: C_22  and  C_24
REMARK                            x       y       z     vdW  Elec       q    Type
REMARK                         _______ _______ _______ _____ _____    ______ ____
ROOT
ATOM      1  N   UNL     1      35.175 -19.744 -20.744  0.00  0.00    -0.177 N 
ATOM      2  N   UNL     1      36.417 -19.990 -20.292  0.00  0.00    -0.171 NA
ATOM      3  C   UNL     1      34.896 -21.439 -19.395  0.00  0.00    +0.090 C 
ATOM      4  C   UNL     1      34.227 -20.584 -20.237  0.00  0.00    +0.122 C 
ATOM      5  C   UNL     1      36.239 -21.027 -19.468  0.00  0.00    +0.124 C 
ENDROOT
BRANCH   1   8
ATOM      6  N   UNL     1      34.260 -15.070 -22.001  0.00  0.00    -0.318 N 
ATOM      7  N   UNL     1      34.330 -15.478 -24.185  0.00  0.00    -0.318 N 
ATOM      8  C   UNL     1      34.969 -18.701 -21.650  0.00  0.00    +0.077 C 
ATOM      9  C   UNL     1      34.521 -16.411 -22.115  0.00  0.00    +0.060 C 
ATOM     10  C   UNL     1      34.720 -17.413 -21.165  0.00  0.00    +0.032 C 
ATOM     11  C   UNL     1      34.560 -16.641 -23.487  0.00  0.00    +0.059 C 
ATOM     12  C   UNL     1      35.014 -18.962 -23.021  0.00  0.00    +0.018 C 
ATOM     13  C   UNL     1      34.811 -17.941 -23.957  0.00  0.00    +0.017 C 
ATOM     14  C   UNL     1      34.155 -14.557 -23.264  0.00  0.00    +0.144 C 
ATOM     15  C   UNL     1      33.876 -13.126 -23.489  0.00  0.00    +0.044 C 
ATOM     16  H   UNL     1      34.167 -14.566 -21.160  0.00  0.00    +0.148 HD
ATOM     17  H   UNL     1      34.303 -15.360 -25.162  0.00  0.00    +0.148 HD
ENDBRANCH   1   8
BRANCH   4  18
ATOM     18  N   UNL     1      32.924 -20.485 -20.580  0.00  0.00    -0.344 N 
ATOM     19  H   UNL     1      32.541 -21.105 -21.242  0.00  0.00    +0.144 HD
ATOM     20  H   UNL     1      32.358 -19.794 -20.167  0.00  0.00    +0.144 HD
ENDBRANCH   4  18
BRANCH   3  22
ATOM     21  O   UNL     1      33.428 -23.248 -19.186  0.00  0.00    -0.285 OA
ATOM     22  C   UNL     1      34.288 -22.559 -18.589  0.00  0.00    +0.213 C 
BRANCH  22  24
ATOM     23  N   UNL     1      33.792 -23.371 -16.312  0.00  0.00    -0.310 N 
ATOM     24  C   UNL     1      34.650 -22.835 -17.234  0.00  0.00    +0.088 C 
ATOM     25  C   UNL     1      34.429 -23.518 -15.100  0.00  0.00    +0.048 C 
ATOM     26  C   UNL     1      35.737 -23.057 -15.264  0.00  0.00    +0.015 C 
ATOM     27  C   UNL     1      35.862 -22.628 -16.616  0.00  0.00    +0.019 C 
ATOM     28  C   UNL     1      33.953 -24.019 -13.884  0.00  0.00    +0.015 C 
ATOM     29  C   UNL     1      36.613 -23.096 -14.163  0.00  0.00    +0.001 C 
ATOM     30  C   UNL     1      34.840 -24.049 -12.805  0.00  0.00    +0.001 C 
ATOM     31  C   UNL     1      36.151 -23.595 -12.940  0.00  0.00    +0.000 C 
ATOM     32  H   UNL     1      32.855 -23.617 -16.490  0.00  0.00    +0.152 HD
ENDBRANCH  22  24
ENDBRANCH   3  22
TORSDOF 4
ENDMDL
MODEL 3
REMARK VINA RESULT:     -11.9      1.735      2.417
REMARK  Name = 66555680
REMARK  4 active torsions:
REMARK  status: ('A' for Active; 'I' for Inactive)
REMARK    1  A    between atoms: N_1  and  C_8
REMARK    2  A    between atoms: C_3  and  C_22
REMARK    3  A    between atoms: C_4  and  N_18
REMARK    4  A    between atoms: C_22  and  C_24
REMARK                            x       y       z     vdW  Elec       q    Type
REMARK                         _______ _______ _______ _____ _____    ______ ____
ROOT
ATOM      1  N   UNL     1      35.182 -19.720 -20.743  0.00  0.00    -0.177 N 
ATOM      2  N   UNL     1      36.412 -19.965 -20.261  0.00  0.00    -0.171 NA
ATOM      3  C   UNL     1      34.877 -21.435 -19.426  0.00  0.00    +0.090 C 
ATOM      4  C   UNL     1      34.226 -20.573 -20.275  0.00  0.00    +0.122 C 
ATOM      5  C   UNL     1      36.219 -21.014 -19.457  0.00  0.00    +0.124 C 
ENDROOT
BRANCH   1   8
ATOM      6  N   UNL     1      34.186 -15.053 -21.964  0.00  0.00    -0.318 N 
ATOM      7  N   UNL     1      34.396 -15.413 -24.147  0.00  0.00    -0.318 N 
ATOM      8  C   UNL     1      34.994 -18.666 -21.639  0.00  0.00    +0.077 C 
ATOM      9  C   UNL     1      34.498 -16.383 -22.087  0.00  0.00    +0.060 C 
ATOM     10  C   UNL     1      34.675 -17.397 -21.146  0.00  0.00    +0.032 C 
ATOM     11  C   UNL     1      34.623 -16.583 -23.459  0.00  0.00    +0.059 C 
ATOM     12  C   UNL     1      35.126 -18.897 -23.010  0.00  0.00    +0.018 C 
ATOM     13  C   UNL     1      34.944 -17.865 -23.937  0.00  0.00    +0.017 C 
ATOM     14  C   UNL     1      34.137 -14.517 -23.221  0.00  0.00    +0.144 C 
ATOM     15  C   UNL     1      33.824 -13.092 -23.434  0.00  0.00    +0.044 C 
ATOM     16  H   UNL     1      34.028 -14.570 -21.121  0.00  0.00    +0.148 HD
ATOM     17  H   UNL     1      34.421 -15.277 -25.122  0.00  0.00    +0.148 HD
ENDBRANCH   1   8
BRANCH   4  18
ATOM     18  N   UNL     1      32.932 -20.478 -20.651  0.00  0.00    -0.344 N 
ATOM     19  H   UNL     1      32.220 -20.482 -19.972  0.00  0.00    +0.144 HD
ATOM     20  H   UNL     1      32.702 -20.405 -21.606  0.00  0.00    +0.144 HD
ENDBRANCH   4  18
BRANCH   3  22
ATOM     21  O   UNL     1      33.425 -23.265 -19.286  0.00  0.00    -0.285 OA
ATOM     22  C   UNL     1      34.254 -22.571 -18.652  0.00  0.00    +0.213 C 
BRANCH  22  24
ATOM     23  N   UNL     1      35.810 -22.664 -16.740  0.00  0.00    -0.310 N 
ATOM     24  C   UNL     1      34.570 -22.854 -17.288  0.00  0.00    +0.088 C 
ATOM     25  C   UNL     1      35.803 -23.028 -15.411  0.00  0.00    +0.048 C 
ATOM     26  C   UNL     1      34.510 -23.464 -15.112  0.00  0.00    +0.015 C 
ATOM     27  C   UNL     1      33.743 -23.349 -16.306  0.00  0.00    +0.019 C 
ATOM     28  C   UNL     1      36.830 -23.005 -14.462  0.00  0.00    +0.015 C 
ATOM     29  C   UNL     1      34.227 -23.897 -13.802  0.00  0.00    +0.001 C 
ATOM     30  C   UNL     1      36.526 -23.440 -13.170  0.00  0.00    +0.001 C 
ATOM     31  C   UNL     1      35.245 -23.880 -12.842  0.00  0.00    +0.000 C 
ATOM     32  H   UNL     1      36.594 -22.318 -17.224  0.00  0.00    +0.152 HD
ENDBRANCH  22  24
ENDBRANCH   3  22
TORSDOF 4
ENDMDL
MODEL 4
REMARK VINA RESULT:     -11.8      2.864      5.528
REMARK  Name = 66555680
REMARK  4 active torsions:
REMARK  status: ('A' for Active; 'I' for Inactive)
REMARK    1  A    between atoms: N_1  and  C_8
REMARK    2  A    between atoms: C_3  and  C_22
REMARK    3  A    between atoms: C_4  and  N_18
REMARK    4  A    between atoms: C_22  and  C_24
REMARK                            x       y       z     vdW  Elec       q    Type
REMARK                         _______ _______ _______ _____ _____    ______ ____
ROOT
ATOM      1  N   UNL     1      33.999 -15.202 -23.026  0.00  0.00    -0.177 N 
ATOM      2  N   UNL     1      33.946 -15.764 -24.245  0.00  0.00    -0.171 NA
ATOM      3  C   UNL     1      35.106 -17.068 -22.771  0.00  0.00    +0.090 C 
ATOM      4  C   UNL     1      34.683 -15.943 -22.106  0.00  0.00    +0.122 C 
ATOM      5  C   UNL     1      34.624 -16.904 -24.083  0.00  0.00    +0.124 C 
ENDROOT
BRANCH   1   8
ATOM      6  N   UNL     1      33.205 -10.420 -23.903  0.00  0.00    -0.318 N 
ATOM      7  N   UNL     1      31.657 -10.225 -22.320  0.00  0.00    -0.318 N 
ATOM      8  C   UNL     1      33.381 -13.969 -22.811  0.00  0.00    +0.077 C 
ATOM      9  C   UNL     1      33.098 -11.666 -23.340  0.00  0.00    +0.060 C 
ATOM     10  C   UNL     1      33.748 -12.873 -23.599  0.00  0.00    +0.032 C 
ATOM     11  C   UNL     1      32.126 -11.518 -22.355  0.00  0.00    +0.059 C 
ATOM     12  C   UNL     1      32.409 -13.850 -21.815  0.00  0.00    +0.018 C 
ATOM     13  C   UNL     1      31.770 -12.629 -21.572  0.00  0.00    +0.017 C 
ATOM     14  C   UNL     1      32.325  -9.595 -23.261  0.00  0.00    +0.144 C 
ATOM     15  C   UNL     1      32.195  -8.175 -23.635  0.00  0.00    +0.044 C 
ATOM     16  H   UNL     1      33.808 -10.167 -24.640  0.00  0.00    +0.148 HD
ATOM     17  H   UNL     1      30.971  -9.852 -21.721  0.00  0.00    +0.148 HD
ENDBRANCH   1   8
BRANCH   4  18
ATOM     18  N   UNL     1      34.837 -15.535 -20.828  0.00  0.00    -0.344 N 
ATOM     19  H   UNL     1      35.708 -15.191 -20.522  0.00  0.00    +0.144 HD
ATOM     20  H   UNL     1      34.080 -15.582 -20.201  0.00  0.00    +0.144 HD
ENDBRANCH   4  18
BRANCH   3  22
ATOM     21  O   UNL     1      37.115 -18.239 -22.522  0.00  0.00    -0.285 OA
ATOM     22  C   UNL     1      35.908 -18.204 -22.188  0.00  0.00    +0.213 C 
BRANCH  22  24
ATOM     23  N   UNL     1      36.102 -19.998 -20.505  0.00  0.00    -0.310 N 
ATOM     24  C   UNL     1      35.351 -19.188 -21.314  0.00  0.00    +0.088 C 
ATOM     25  C   UNL     1      35.283 -20.839 -19.784  0.00  0.00    +0.048 C 
ATOM     26  C   UNL     1      33.968 -20.547 -20.153  0.00  0.00    +0.015 C 
ATOM     27  C   UNL     1      34.026 -19.503 -21.119  0.00  0.00    +0.019 C 
ATOM     28  C   UNL     1      35.602 -21.825 -18.845  0.00  0.00    +0.015 C 
ATOM     29  C   UNL     1      32.920 -21.273 -19.555  0.00  0.00    +0.001 C 
ATOM     30  C   UNL     1      34.546 -22.532 -18.265  0.00  0.00    +0.001 C 
ATOM     31  C   UNL     1      33.224 -22.262 -18.613  0.00  0.00    +0.000 C 
ATOM     32  H   UNL     1      37.084 -19.983 -20.447  0.00  0.00    +0.152 HD
ENDBRANCH  22  24
ENDBRANCH   3  22
TORSDOF 4
ENDMDL
MODEL 5
REMARK VINA RESULT:     -11.6      1.932      2.645
REMARK  Name = 66555680
REMARK  4 active torsions:
REMARK  status: ('A' for Active; 'I' for Inactive)
REMARK    1  A    between atoms: N_1  and  C_8
REMARK    2  A    between atoms: C_3  and  C_22
REMARK    3  A    between atoms: C_4  and  N_18
REMARK    4  A    between atoms: C_22  and  C_24
REMARK                            x       y       z     vdW  Elec       q    Type
REMARK                         _______ _______ _______ _____ _____    ______ ____
ROOT
ATOM      1  N   UNL     1      35.198 -19.206 -20.884  0.00  0.00    -0.177 N 
ATOM      2  N   UNL     1      36.485 -19.478 -20.606  0.00  0.00    -0.171 NA
ATOM      3  C   UNL     1      35.088 -21.066 -19.743  0.00  0.00    +0.090 C 
ATOM      4  C   UNL     1      34.321 -20.127 -20.389  0.00  0.00    +0.122 C 
ATOM      5  C   UNL     1      36.411 -20.615 -19.909  0.00  0.00    +0.124 C 
ENDROOT
BRANCH   1   8
ATOM      6  N   UNL     1      33.982 -16.753 -24.979  0.00  0.00    -0.318 N 
ATOM      7  N   UNL     1      33.922 -14.775 -23.964  0.00  0.00    -0.318 N 
ATOM      8  C   UNL     1      34.881 -18.062 -21.618  0.00  0.00    +0.077 C 
ATOM      9  C   UNL     1      34.296 -17.003 -23.667  0.00  0.00    +0.060 C 
ATOM     10  C   UNL     1      34.606 -18.180 -22.985  0.00  0.00    +0.032 C 
ATOM     11  C   UNL     1      34.252 -15.754 -23.056  0.00  0.00    +0.059 C 
ATOM     12  C   UNL     1      34.844 -16.822 -20.977  0.00  0.00    +0.018 C 
ATOM     13  C   UNL     1      34.531 -15.654 -21.682  0.00  0.00    +0.017 C 
ATOM     14  C   UNL     1      33.767 -15.408 -25.106  0.00  0.00    +0.144 C 
ATOM     15  C   UNL     1      33.406 -14.811 -26.405  0.00  0.00    +0.044 C 
ATOM     16  H   UNL     1      33.921 -17.421 -25.699  0.00  0.00    +0.148 HD
ATOM     17  H   UNL     1      33.823 -13.810 -23.797  0.00  0.00    +0.148 HD
ENDBRANCH   1   8
BRANCH   4  18
ATOM     18  N   UNL     1      32.987 -20.018 -20.571  0.00  0.00    -0.344 N 
ATOM     19  H   UNL     1      32.606 -19.190 -20.944  0.00  0.00    +0.144 HD
ATOM     20  H   UNL     1      32.395 -20.766 -20.329  0.00  0.00    +0.144 HD
ENDBRANCH   4  18
BRANCH   3  22
ATOM     21  O   UNL     1      33.838 -23.042 -19.698  0.00  0.00    -0.285 OA
ATOM     22  C   UNL     1      34.586 -22.294 -19.026  0.00  0.00    +0.213 C 
BRANCH  22  24
ATOM     23  N   UNL     1      34.059 -23.190 -16.789  0.00  0.00    -0.310 N 
ATOM     24  C   UNL     1      34.924 -22.605 -17.673  0.00  0.00    +0.088 C 
ATOM     25  C   UNL     1      34.672 -23.360 -15.567  0.00  0.00    +0.048 C 
ATOM     26  C   UNL     1      35.972 -22.865 -15.687  0.00  0.00    +0.015 C 
ATOM     27  C   UNL     1      36.117 -22.391 -17.022  0.00  0.00    +0.019 C 
ATOM     28  C   UNL     1      34.180 -23.910 -14.378  0.00  0.00    +0.015 C 
ATOM     29  C   UNL     1      36.824 -22.920 -14.567  0.00  0.00    +0.001 C 
ATOM     30  C   UNL     1      35.044 -23.954 -13.281  0.00  0.00    +0.001 C 
ATOM     31  C   UNL     1      36.346 -23.467 -13.372  0.00  0.00    +0.000 C 
ATOM     32  H   UNL     1      33.132 -23.450 -16.995  0.00  0.00    +0.152 HD
ENDBRANCH  22  24
ENDBRANCH   3  22
TORSDOF 4
ENDMDL
MODEL 6
REMARK VINA RESULT:     -11.5      3.416     10.544
REMARK  Name = 66555680
REMARK  4 active torsions:
REMARK  status: ('A' for Active; 'I' for Inactive)
REMARK    1  A    between atoms: N_1  and  C_8
REMARK    2  A    between atoms: C_3  and  C_22
REMARK    3  A    between atoms: C_4  and  N_18
REMARK    4  A    between atoms: C_22  and  C_24
REMARK                            x       y       z     vdW  Elec       q    Type
REMARK                         _______ _______ _______ _____ _____    ______ ____
ROOT
ATOM      1  N   UNL     1      33.799 -16.405 -21.880  0.00  0.00    -0.177 N 
ATOM      2  N   UNL     1      32.927 -15.700 -21.138  0.00  0.00    -0.171 NA
ATOM      3  C   UNL     1      33.443 -14.616 -23.082  0.00  0.00    +0.090 C 
ATOM      4  C   UNL     1      34.140 -15.800 -23.054  0.00  0.00    +0.122 C 
ATOM      5  C   UNL     1      32.713 -14.609 -21.879  0.00  0.00    +0.124 C 
ENDROOT
BRANCH   1   8
ATOM      6  N   UNL     1      33.261 -20.924 -19.994  0.00  0.00    -0.318 N 
ATOM      7  N   UNL     1      35.443 -21.348 -19.979  0.00  0.00    -0.318 N 
ATOM      8  C   UNL     1      34.261 -17.636 -21.411  0.00  0.00    +0.077 C 
ATOM      9  C   UNL     1      33.857 -19.796 -20.498  0.00  0.00    +0.060 C 
ATOM     10  C   UNL     1      33.339 -18.585 -20.956  0.00  0.00    +0.032 C 
ATOM     11  C   UNL     1      35.218 -20.086 -20.478  0.00  0.00    +0.059 C 
ATOM     12  C   UNL     1      35.632 -17.898 -21.402  0.00  0.00    +0.018 C 
ATOM     13  C   UNL     1      36.131 -19.121 -20.938  0.00  0.00    +0.017 C 
ATOM     14  C   UNL     1      34.250 -21.822 -19.699  0.00  0.00    +0.144 C 
ATOM     15  C   UNL     1      33.936 -23.147 -19.135  0.00  0.00    +0.044 C 
ATOM     16  H   UNL     1      32.295 -21.062 -19.869  0.00  0.00    +0.148 HD
ATOM     17  H   UNL     1      36.310 -21.799 -19.857  0.00  0.00    +0.148 HD
ENDBRANCH   1   8
BRANCH   4  18
ATOM     18  N   UNL     1      35.004 -16.362 -23.927  0.00  0.00    -0.344 N 
ATOM     19  H   UNL     1      35.972 -16.339 -23.747  0.00  0.00    +0.144 HD
ATOM     20  H   UNL     1      34.666 -16.794 -24.744  0.00  0.00    +0.144 HD
ENDBRANCH   4  18
BRANCH   3  22
ATOM     21  O   UNL     1      33.456 -14.034 -25.348  0.00  0.00    -0.285 OA
ATOM     22  C   UNL     1      33.477 -13.582 -24.179  0.00  0.00    +0.213 C 
BRANCH  22  24
ATOM     23  N   UNL     1      34.502 -11.351 -24.431  0.00  0.00    -0.310 N 
ATOM     24  C   UNL     1      33.532 -12.176 -23.928  0.00  0.00    +0.088 C 
ATOM     25  C   UNL     1      34.287 -10.056 -24.014  0.00  0.00    +0.048 C 
ATOM     26  C   UNL     1      33.138 -10.065 -23.220  0.00  0.00    +0.015 C 
ATOM     27  C   UNL     1      32.673 -11.410 -23.174  0.00  0.00    +0.019 C 
ATOM     28  C   UNL     1      35.013  -8.890 -24.277  0.00  0.00    +0.015 C 
ATOM     29  C   UNL     1      32.691  -8.853 -22.661  0.00  0.00    +0.001 C 
ATOM     30  C   UNL     1      34.551  -7.699 -23.712  0.00  0.00    +0.001 C 
ATOM     31  C   UNL     1      33.407  -7.678 -22.915  0.00  0.00    +0.000 C 
ATOM     32  H   UNL     1      35.246 -11.642 -25.006  0.00  0.00    +0.152 HD
ENDBRANCH  22  24
ENDBRANCH   3  22
TORSDOF 4
ENDMDL
MODEL 7
REMARK VINA RESULT:     -11.5      4.494      7.476
REMARK  Name = 66555680
REMARK  4 active torsions:
REMARK  status: ('A' for Active; 'I' for Inactive)
REMARK    1  A    between atoms: N_1  and  C_8
REMARK    2  A    between atoms: C_3  and  C_22
REMARK    3  A    between atoms: C_4  and  N_18
REMARK    4  A    between atoms: C_22  and  C_24
REMARK                            x       y       z     vdW  Elec       q    Type
REMARK                         _______ _______ _______ _____ _____    ______ ____
ROOT
ATOM      1  N   UNL     1      33.090 -13.718 -23.958  0.00  0.00    -0.177 N 
ATOM      2  N   UNL     1      32.615 -13.834 -25.210  0.00  0.00    -0.171 NA
ATOM      3  C   UNL     1      33.966 -15.591 -24.660  0.00  0.00    +0.090 C 
ATOM      4  C   UNL     1      33.904 -14.745 -23.580  0.00  0.00    +0.122 C 
ATOM      5  C   UNL     1      33.154 -14.981 -25.633  0.00  0.00    +0.124 C 
ENDROOT
BRANCH   1   8
ATOM      6  N   UNL     1      32.972  -8.917 -22.861  0.00  0.00    -0.318 N 
ATOM      7  N   UNL     1      31.754  -9.206 -21.023  0.00  0.00    -0.318 N 
ATOM      8  C   UNL     1      32.729 -12.611 -23.187  0.00  0.00    +0.077 C 
ATOM      9  C   UNL     1      32.751 -10.268 -22.776  0.00  0.00    +0.060 C 
ATOM     10  C   UNL     1      33.141 -11.335 -23.585  0.00  0.00    +0.032 C 
ATOM     11  C   UNL     1      31.990 -10.422 -21.621  0.00  0.00    +0.059 C 
ATOM     12  C   UNL     1      31.964 -12.797 -22.033  0.00  0.00    +0.018 C 
ATOM     13  C   UNL     1      31.584 -11.711 -21.236  0.00  0.00    +0.017 C 
ATOM     14  C   UNL     1      32.356  -8.326 -21.792  0.00  0.00    +0.144 C 
ATOM     15  C   UNL     1      32.406  -6.866 -21.592  0.00  0.00    +0.044 C 
ATOM     16  H   UNL     1      33.480  -8.455 -23.566  0.00  0.00    +0.148 HD
ATOM     17  H   UNL     1      31.246  -9.031 -20.199  0.00  0.00    +0.148 HD
ENDBRANCH   1   8
BRANCH   4  18
ATOM     18  N   UNL     1      34.473 -14.797 -22.355  0.00  0.00    -0.344 N 
ATOM     19  H   UNL     1      35.412 -14.527 -22.236  0.00  0.00    +0.144 HD
ATOM     20  H   UNL     1      33.948 -15.105 -21.582  0.00  0.00    +0.144 HD
ENDBRANCH   4  18
BRANCH   3  22
ATOM     21  O   UNL     1      35.206 -17.159 -25.875  0.00  0.00    -0.285 OA
ATOM     22  C   UNL     1      34.744 -16.881 -24.744  0.00  0.00    +0.213 C 
BRANCH  22  24
ATOM     23  N   UNL     1      36.145 -17.858 -22.964  0.00  0.00    -0.310 N 
ATOM     24  C   UNL     1      34.951 -17.744 -23.625  0.00  0.00    +0.088 C 
ATOM     25  C   UNL     1      36.032 -18.766 -21.934  0.00  0.00    +0.048 C 
ATOM     26  C   UNL     1      34.719 -19.242 -21.947  0.00  0.00    +0.015 C 
ATOM     27  C   UNL     1      34.049 -18.589 -23.020  0.00  0.00    +0.019 C 
ATOM     28  C   UNL     1      36.982 -19.198 -21.002  0.00  0.00    +0.015 C 
ATOM     29  C   UNL     1      34.334 -20.195 -20.985  0.00  0.00    +0.001 C 
ATOM     30  C   UNL     1      36.577 -20.144 -20.057  0.00  0.00    +0.001 C 
ATOM     31  C   UNL     1      35.273 -20.636 -20.046  0.00  0.00    +0.000 C 
ATOM     32  H   UNL     1      36.964 -17.363 -23.191  0.00  0.00    +0.152 HD
ENDBRANCH  22  24
ENDBRANCH   3  22
TORSDOF 4
ENDMDL
MODEL 8
REMARK VINA RESULT:     -11.5      5.907      9.975
REMARK  Name = 66555680
REMARK  4 active torsions:
REMARK  status: ('A' for Active; 'I' for Inactive)
REMARK    1  A    between atoms: N_1  and  C_8
REMARK    2  A    between atoms: C_3  and  C_22
REMARK    3  A    between atoms: C_4  and  N_18
REMARK    4  A    between atoms: C_22  and  C_24
REMARK                            x       y       z     vdW  Elec       q    Type
REMARK                         _______ _______ _______ _____ _____    ______ ____
ROOT
ATOM      1  N   UNL     1      32.241 -10.547 -22.431  0.00  0.00    -0.177 N 
ATOM      2  N   UNL     1      31.497 -11.415 -21.724  0.00  0.00    -0.171 NA
ATOM      3  C   UNL     1      32.828 -12.491 -23.237  0.00  0.00    +0.090 C 
ATOM      4  C   UNL     1      33.056 -11.141 -23.351  0.00  0.00    +0.122 C 
ATOM      5  C   UNL     1      31.860 -12.601 -22.221  0.00  0.00    +0.124 C 
ENDROOT
BRANCH   1   8
ATOM      6  N   UNL     1      31.314  -5.868 -23.659  0.00  0.00    -0.318 N 
ATOM      7  N   UNL     1      31.730  -5.085 -21.621  0.00  0.00    -0.318 N 
ATOM      8  C   UNL     1      32.125  -9.179 -22.179  0.00  0.00    +0.077 C 
ATOM      9  C   UNL     1      31.649  -6.964 -22.907  0.00  0.00    +0.060 C 
ATOM     10  C   UNL     1      31.748  -8.321 -23.217  0.00  0.00    +0.032 C 
ATOM     11  C   UNL     1      31.904  -6.450 -21.639  0.00  0.00    +0.059 C 
ATOM     12  C   UNL     1      32.388  -8.692 -20.897  0.00  0.00    +0.018 C 
ATOM     13  C   UNL     1      32.282  -7.326 -20.608  0.00  0.00    +0.017 C 
ATOM     14  C   UNL     1      31.376  -4.770 -22.847  0.00  0.00    +0.144 C 
ATOM     15  C   UNL     1      31.068  -3.421 -23.357  0.00  0.00    +0.044 C 
ATOM     16  H   UNL     1      31.070  -5.871 -24.613  0.00  0.00    +0.148 HD
ATOM     17  H   UNL     1      31.845  -4.476 -20.855  0.00  0.00    +0.148 HD
ENDBRANCH   1   8
BRANCH   4  18
ATOM     18  N   UNL     1      33.875 -10.426 -24.152  0.00  0.00    -0.344 N 
ATOM     19  H   UNL     1      33.512  -9.695 -24.702  0.00  0.00    +0.144 HD
ATOM     20  H   UNL     1      34.836 -10.636 -24.185  0.00  0.00    +0.144 HD
ENDBRANCH   4  18
BRANCH   3  22
ATOM     21  O   UNL     1      33.616 -13.348 -25.266  0.00  0.00    -0.285 OA
ATOM     22  C   UNL     1      33.489 -13.582 -24.041  0.00  0.00    +0.213 C 
BRANCH  22  24
ATOM     23  N   UNL     1      34.088 -15.972 -24.177  0.00  0.00    -0.310 N 
ATOM     24  C   UNL     1      33.947 -14.809 -23.469  0.00  0.00    +0.088 C 
ATOM     25  C   UNL     1      34.544 -16.977 -23.353  0.00  0.00    +0.048 C 
ATOM     26  C   UNL     1      34.697 -16.426 -22.078  0.00  0.00    +0.015 C 
ATOM     27  C   UNL     1      34.315 -15.057 -22.167  0.00  0.00    +0.019 C 
ATOM     28  C   UNL     1      34.831 -18.316 -23.635  0.00  0.00    +0.015 C 
ATOM     29  C   UNL     1      35.158 -17.251 -21.034  0.00  0.00    +0.001 C 
ATOM     30  C   UNL     1      35.288 -19.116 -22.584  0.00  0.00    +0.001 C 
ATOM     31  C   UNL     1      35.449 -18.593 -21.302  0.00  0.00    +0.000 C 
ATOM     32  H   UNL     1      33.891 -16.075 -25.136  0.00  0.00    +0.152 HD
ENDBRANCH  22  24
ENDBRANCH   3  22
TORSDOF 4
ENDMDL
MODEL 9
REMARK VINA RESULT:     -11.3      5.195     11.631
REMARK  Name = 66555680
REMARK  4 active torsions:
REMARK  status: ('A' for Active; 'I' for Inactive)
REMARK    1  A    between atoms: N_1  and  C_8
REMARK    2  A    between atoms: C_3  and  C_22
REMARK    3  A    between atoms: C_4  and  N_18
REMARK    4  A    between atoms: C_22  and  C_24
REMARK                            x       y       z     vdW  Elec       q    Type
REMARK                         _______ _______ _______ _____ _____    ______ ____
ROOT
ATOM      1  N   UNL     1      33.595 -13.816 -22.938  0.00  0.00    -0.177 N 
ATOM      2  N   UNL     1      33.993 -12.959 -23.894  0.00  0.00    -0.171 NA
ATOM      3  C   UNL     1      32.434 -12.014 -22.517  0.00  0.00    +0.090 C 
ATOM      4  C   UNL     1      32.662 -13.299 -22.087  0.00  0.00    +0.122 C 
ATOM      5  C   UNL     1      33.280 -11.860 -23.631  0.00  0.00    +0.124 C 
ENDROOT
BRANCH   1   8
ATOM      6  N   UNL     1      35.513 -17.757 -20.689  0.00  0.00    -0.318 N 
ATOM      7  N   UNL     1      35.781 -18.900 -22.576  0.00  0.00    -0.318 N 
ATOM      8  C   UNL     1      34.141 -15.101 -22.897  0.00  0.00    +0.077 C 
ATOM      9  C   UNL     1      35.053 -16.934 -21.684  0.00  0.00    +0.060 C 
ATOM     10  C   UNL     1      34.512 -15.648 -21.664  0.00  0.00    +0.032 C 
ATOM     11  C   UNL     1      35.231 -17.670 -22.852  0.00  0.00    +0.059 C 
ATOM     12  C   UNL     1      34.308 -15.815 -24.085  0.00  0.00    +0.018 C 
ATOM     13  C   UNL     1      34.852 -17.104 -24.082  0.00  0.00    +0.017 C 
ATOM     14  C   UNL     1      35.938 -18.919 -21.272  0.00  0.00    +0.144 C 
ATOM     15  C   UNL     1      36.494 -20.020 -20.465  0.00  0.00    +0.044 C 
ATOM     16  H   UNL     1      35.534 -17.548 -19.727  0.00  0.00    +0.148 HD
ATOM     17  H   UNL     1      36.009 -19.612 -23.217  0.00  0.00    +0.148 HD
ENDBRANCH   1   8
BRANCH   4  18
ATOM     18  N   UNL     1      32.146 -14.016 -21.065  0.00  0.00    -0.344 N 
ATOM     19  H   UNL     1      32.745 -14.438 -20.408  0.00  0.00    +0.144 HD
ATOM     20  H   UNL     1      31.171 -14.117 -20.978  0.00  0.00    +0.144 HD
ENDBRANCH   4  18
BRANCH   3  22
ATOM     21  O   UNL     1      30.618 -11.504 -21.134  0.00  0.00    -0.285 OA
ATOM     22  C   UNL     1      31.481 -11.020 -21.903  0.00  0.00    +0.213 C 
BRANCH  22  24
ATOM     23  N   UNL     1      31.202  -9.055 -23.369  0.00  0.00    -0.310 N 
ATOM     24  C   UNL     1      31.537  -9.617 -22.166  0.00  0.00    +0.088 C 
ATOM     25  C   UNL     1      31.359  -7.688 -23.314  0.00  0.00    +0.048 C 
ATOM     26  C   UNL     1      31.808  -7.376 -22.029  0.00  0.00    +0.015 C 
ATOM     27  C   UNL     1      31.916  -8.604 -21.316  0.00  0.00    +0.019 C 
ATOM     28  C   UNL     1      31.139  -6.713 -24.294  0.00  0.00    +0.015 C 
ATOM     29  C   UNL     1      32.050  -6.028 -21.704  0.00  0.00    +0.001 C 
ATOM     30  C   UNL     1      31.386  -5.382 -23.948  0.00  0.00    +0.001 C 
ATOM     31  C   UNL     1      31.835  -5.042 -22.673  0.00  0.00    +0.000 C 
ATOM     32  H   UNL     1      30.895  -9.555 -24.159  0.00  0.00    +0.152 HD
ENDBRANCH  22  24
ENDBRANCH   3  22
TORSDOF 4
ENDMDL
