MODEL 1
REMARK VINA RESULT:      -7.4      0.000      0.000
REMARK  Name = 89105
REMARK  4 active torsions:
REMARK  status: ('A' for Active; 'I' for Inactive)
REMARK    1  A    between atoms: C_1  and  N_18
REMARK    2  A    between atoms: C_2  and  N_14
REMARK    3  A    between atoms: C_4  and  C_9
REMARK    4  A    between atoms: C_6  and  N_17
REMARK                            x       y       z     vdW  Elec       q    Type
REMARK                         _______ _______ _______ _____ _____    ______ ____
ROOT
ATOM      1  C   UNL     1      31.202 -23.182 -15.649  0.00  0.00    +0.071 C 
ATOM      2  C   UNL     1      32.021 -23.507 -14.568  0.00  0.00    +0.158 C 
ATOM      3  C   UNL     1      31.755 -23.018 -16.919  0.00  0.00    +0.022 C 
ATOM      4  C   UNL     1      33.129 -23.178 -17.108  0.00  0.00    +0.077 C 
ATOM      5  C   UNL     1      33.395 -23.667 -14.757  0.00  0.00    +0.050 C 
ATOM      6  C   UNL     1      33.948 -23.502 -16.027  0.00  0.00    +0.149 C 
ENDROOT
BRANCH   4   9
ATOM      7  O   UNL     1      33.866 -23.968 -19.201  0.00  0.00    -0.270 OA
ATOM      8  N   UNL     1      33.945 -21.701 -18.865  0.00  0.00    -0.325 N 
ATOM      9  C   UNL     1      33.671 -22.999 -18.449  0.00  0.00    +0.244 C 
ATOM     10  H   UNL     1      34.312 -21.539 -19.764  0.00  0.00    +0.145 HD
ATOM     11  H   UNL     1      33.772 -20.943 -18.260  0.00  0.00    +0.145 HD
ENDBRANCH   4   9
BRANCH   2  14
ATOM     12  O   UNL     1      31.615 -22.755 -12.426  0.00  0.00    -0.126 OA
ATOM     13  O   UNL     1      30.891 -24.750 -12.989  0.00  0.00    -0.126 OA
ATOM     14  N   UNL     1      31.482 -23.679 -13.263  0.00  0.00    +0.059 N 
ENDBRANCH   2  14
BRANCH   6  17
ATOM     15  O   UNL     1      36.019 -22.733 -16.687  0.00  0.00    -0.126 OA
ATOM     16  O   UNL     1      35.876 -24.753 -15.840  0.00  0.00    -0.126 OA
ATOM     17  N   UNL     1      35.351 -23.671 -16.193  0.00  0.00    +0.058 N 
ENDBRANCH   6  17
BRANCH   1  18
ATOM     18  N   UNL     1      29.805 -23.014 -15.484  0.00  0.00    -0.303 N 
ATOM     19  C   UNL     1      28.868 -24.074 -15.877  0.00  0.00    +0.112 C 
ATOM     20  C   UNL     1      28.931 -22.805 -16.646  0.00  0.00    +0.112 C 
ENDBRANCH   1  18
TORSDOF 4
ENDMDL
MODEL 2
REMARK VINA RESULT:      -7.4      3.492      5.911
REMARK  Name = 89105
REMARK  4 active torsions:
REMARK  status: ('A' for Active; 'I' for Inactive)
REMARK    1  A    between atoms: C_1  and  N_18
REMARK    2  A    between atoms: C_2  and  N_14
REMARK    3  A    between atoms: C_4  and  C_9
REMARK    4  A    between atoms: C_6  and  N_17
REMARK                            x       y       z     vdW  Elec       q    Type
REMARK                         _______ _______ _______ _____ _____    ______ ____
ROOT
ATOM      1  C   UNL     1      35.758 -23.319 -15.365  0.00  0.00    +0.071 C 
ATOM      2  C   UNL     1      36.884 -22.911 -16.079  0.00  0.00    +0.158 C 
ATOM      3  C   UNL     1      35.872 -24.309 -14.388  0.00  0.00    +0.022 C 
ATOM      4  C   UNL     1      37.113 -24.891 -14.127  0.00  0.00    +0.077 C 
ATOM      5  C   UNL     1      38.125 -23.494 -15.818  0.00  0.00    +0.050 C 
ATOM      6  C   UNL     1      38.239 -24.484 -14.843  0.00  0.00    +0.149 C 
ENDROOT
BRANCH   4   9
ATOM      7  O   UNL     1      37.419 -25.635 -11.913  0.00  0.00    -0.270 OA
ATOM      8  N   UNL     1      36.990 -27.241 -13.493  0.00  0.00    -0.325 N 
ATOM      9  C   UNL     1      37.194 -25.923 -13.100  0.00  0.00    +0.244 C 
ATOM     10  H   UNL     1      37.036 -27.966 -12.829  0.00  0.00    +0.145 HD
ATOM     11  H   UNL     1      36.799 -27.449 -14.436  0.00  0.00    +0.145 HD
ENDBRANCH   4   9
BRANCH   2  14
ATOM     12  O   UNL     1      37.298 -20.779 -16.852  0.00  0.00    -0.126 OA
ATOM     13  O   UNL     1      36.216 -22.172 -18.158  0.00  0.00    -0.126 OA
ATOM     14  N   UNL     1      36.795 -21.904 -17.080  0.00  0.00    +0.059 N 
ENDBRANCH   2  14
BRANCH   6  17
ATOM     15  O   UNL     1      40.202 -24.627 -13.641  0.00  0.00    -0.126 OA
ATOM     16  O   UNL     1      39.914 -25.988 -15.339  0.00  0.00    -0.126 OA
ATOM     17  N   UNL     1      39.515 -25.062 -14.595  0.00  0.00    +0.058 N 
ENDBRANCH   6  17
BRANCH   1  18
ATOM     18  N   UNL     1      34.487 -22.743 -15.610  0.00  0.00    -0.303 N 
ATOM     19  C   UNL     1      33.276 -23.301 -14.995  0.00  0.00    +0.112 C 
ATOM     20  C   UNL     1      33.503 -23.428 -16.457  0.00  0.00    +0.112 C 
ENDBRANCH   1  18
TORSDOF 4
ENDMDL
MODEL 3
REMARK VINA RESULT:      -7.4      1.741      5.758
REMARK  Name = 89105
REMARK  4 active torsions:
REMARK  status: ('A' for Active; 'I' for Inactive)
REMARK    1  A    between atoms: C_1  and  N_18
REMARK    2  A    between atoms: C_2  and  N_14
REMARK    3  A    between atoms: C_4  and  C_9
REMARK    4  A    between atoms: C_6  and  N_17
REMARK                            x       y       z     vdW  Elec       q    Type
REMARK                         _______ _______ _______ _____ _____    ______ ____
ROOT
ATOM      1  C   UNL     1      33.674 -23.449 -16.039  0.00  0.00    +0.071 C 
ATOM      2  C   UNL     1      32.905 -23.122 -17.156  0.00  0.00    +0.158 C 
ATOM      3  C   UNL     1      33.053 -23.699 -14.815  0.00  0.00    +0.022 C 
ATOM      4  C   UNL     1      31.664 -23.619 -14.708  0.00  0.00    +0.077 C 
ATOM      5  C   UNL     1      31.516 -23.042 -17.049  0.00  0.00    +0.050 C 
ATOM      6  C   UNL     1      30.896 -23.291 -15.824  0.00  0.00    +0.149 C 
ENDROOT
BRANCH   4   9
ATOM      7  O   UNL     1      31.165 -23.086 -12.468  0.00  0.00    -0.270 OA
ATOM      8  N   UNL     1      30.319 -25.059 -13.275  0.00  0.00    -0.325 N 
ATOM      9  C   UNL     1      31.052 -23.886 -13.412  0.00  0.00    +0.244 C 
ATOM     10  H   UNL     1      29.890 -25.275 -12.415  0.00  0.00    +0.145 HD
ATOM     11  H   UNL     1      30.229 -25.675 -14.038  0.00  0.00    +0.145 HD
ENDBRANCH   4   9
BRANCH   2  14
ATOM     12  O   UNL     1      33.848 -23.833 -19.137  0.00  0.00    -0.126 OA
ATOM     13  O   UNL     1      33.696 -21.674 -18.767  0.00  0.00    -0.126 OA
ATOM     14  N   UNL     1      33.513 -22.863 -18.417  0.00  0.00    +0.059 N 
ENDBRANCH   2  14
BRANCH   6  17
ATOM     15  O   UNL     1      28.797 -24.242 -15.907  0.00  0.00    -0.126 OA
ATOM     16  O   UNL     1      28.954 -22.090 -15.505  0.00  0.00    -0.126 OA
ATOM     17  N   UNL     1      29.479 -23.203 -15.741  0.00  0.00    +0.058 N 
ENDBRANCH   6  17
BRANCH   1  18
ATOM     18  N   UNL     1      35.086 -23.538 -16.122  0.00  0.00    -0.303 N 
ATOM     19  C   UNL     1      35.847 -24.345 -15.160  0.00  0.00    +0.112 C 
ATOM     20  C   UNL     1      35.939 -22.862 -15.136  0.00  0.00    +0.112 C 
ENDBRANCH   1  18
TORSDOF 4
ENDMDL
MODEL 4
REMARK VINA RESULT:      -7.3      9.096     11.763
REMARK  Name = 89105
REMARK  4 active torsions:
REMARK  status: ('A' for Active; 'I' for Inactive)
REMARK    1  A    between atoms: C_1  and  N_18
REMARK    2  A    between atoms: C_2  and  N_14
REMARK    3  A    between atoms: C_4  and  C_9
REMARK    4  A    between atoms: C_6  and  N_17
REMARK                            x       y       z     vdW  Elec       q    Type
REMARK                         _______ _______ _______ _____ _____    ______ ____
ROOT
ATOM      1  C   UNL     1      33.518 -14.656 -23.939  0.00  0.00    +0.071 C 
ATOM      2  C   UNL     1      33.710 -15.585 -24.961  0.00  0.00    +0.158 C 
ATOM      3  C   UNL     1      33.926 -14.957 -22.639  0.00  0.00    +0.022 C 
ATOM      4  C   UNL     1      34.525 -16.186 -22.362  0.00  0.00    +0.077 C 
ATOM      5  C   UNL     1      34.308 -16.815 -24.685  0.00  0.00    +0.050 C 
ATOM      6  C   UNL     1      34.716 -17.115 -23.385  0.00  0.00    +0.149 C 
ENDROOT
BRANCH   4   9
ATOM      7  O   UNL     1      34.934 -15.577 -20.124  0.00  0.00    -0.270 OA
ATOM      8  N   UNL     1      35.317 -17.766 -20.686  0.00  0.00    -0.325 N 
ATOM      9  C   UNL     1      34.937 -16.465 -20.992  0.00  0.00    +0.244 C 
ATOM     10  H   UNL     1      35.602 -17.994 -19.771  0.00  0.00    +0.145 HD
ATOM     11  H   UNL     1      35.301 -18.461 -21.383  0.00  0.00    +0.145 HD
ENDBRANCH   4   9
BRANCH   2  14
ATOM     12  O   UNL     1      32.392 -15.996 -26.809  0.00  0.00    -0.126 OA
ATOM     13  O   UNL     1      33.867 -14.373 -26.917  0.00  0.00    -0.126 OA
ATOM     14  N   UNL     1      33.303 -15.304 -26.296  0.00  0.00    +0.059 N 
ENDBRANCH   2  14
BRANCH   6  17
ATOM     15  O   UNL     1      34.591 -19.375 -22.942  0.00  0.00    -0.126 OA
ATOM     16  O   UNL     1      36.574 -18.448 -23.096  0.00  0.00    -0.126 OA
ATOM     17  N   UNL     1      35.324 -18.376 -23.129  0.00  0.00    +0.058 N 
ENDBRANCH   6  17
BRANCH   1  18
ATOM     18  N   UNL     1      32.913 -13.401 -24.193  0.00  0.00    -0.303 N 
ATOM     19  C   UNL     1      33.704 -12.164 -24.162  0.00  0.00    +0.112 C 
ATOM     20  C   UNL     1      32.695 -12.438 -23.106  0.00  0.00    +0.112 C 
ENDBRANCH   1  18
TORSDOF 4
ENDMDL
MODEL 5
REMARK VINA RESULT:      -7.2      1.994      4.321
REMARK  Name = 89105
REMARK  4 active torsions:
REMARK  status: ('A' for Active; 'I' for Inactive)
REMARK    1  A    between atoms: C_1  and  N_18
REMARK    2  A    between atoms: C_2  and  N_14
REMARK    3  A    between atoms: C_4  and  C_9
REMARK    4  A    between atoms: C_6  and  N_17
REMARK                            x       y       z     vdW  Elec       q    Type
REMARK                         _______ _______ _______ _____ _____    ______ ____
ROOT
ATOM      1  C   UNL     1      32.844 -23.562 -15.865  0.00  0.00    +0.071 C 
ATOM      2  C   UNL     1      33.777 -23.259 -16.857  0.00  0.00    +0.158 C 
ATOM      3  C   UNL     1      33.276 -23.892 -14.580  0.00  0.00    +0.022 C 
ATOM      4  C   UNL     1      34.640 -23.921 -14.288  0.00  0.00    +0.077 C 
ATOM      5  C   UNL     1      35.141 -23.288 -16.565  0.00  0.00    +0.050 C 
ATOM      6  C   UNL     1      35.573 -23.619 -15.280  0.00  0.00    +0.149 C 
ENDROOT
BRANCH   4   9
ATOM      7  O   UNL     1      34.651 -23.629 -11.951  0.00  0.00    -0.270 OA
ATOM      8  N   UNL     1      35.899 -25.364 -12.782  0.00  0.00    -0.325 N 
ATOM      9  C   UNL     1      35.053 -24.271 -12.934  0.00  0.00    +0.244 C 
ATOM     10  H   UNL     1      36.200 -25.632 -11.883  0.00  0.00    +0.145 HD
ATOM     11  H   UNL     1      36.197 -25.870 -13.571  0.00  0.00    +0.145 HD
ENDBRANCH   4   9
BRANCH   2  14
ATOM     12  O   UNL     1      33.790 -23.599 -19.138  0.00  0.00    -0.126 OA
ATOM     13  O   UNL     1      32.586 -21.949 -18.334  0.00  0.00    -0.126 OA
ATOM     14  N   UNL     1      33.363 -22.918 -18.176  0.00  0.00    +0.059 N 
ENDBRANCH   2  14
BRANCH   6  17
ATOM     15  O   UNL     1      37.592 -24.722 -15.128  0.00  0.00    -0.126 OA
ATOM     16  O   UNL     1      37.533 -22.579 -14.654  0.00  0.00    -0.126 OA
ATOM     17  N   UNL     1      36.968 -23.641 -15.008  0.00  0.00    +0.058 N 
ENDBRANCH   6  17
BRANCH   1  18
ATOM     18  N   UNL     1      31.454 -23.539 -16.136  0.00  0.00    -0.303 N 
ATOM     19  C   UNL     1      30.511 -22.947 -15.179  0.00  0.00    +0.112 C 
ATOM     20  C   UNL     1      30.532 -24.415 -15.402  0.00  0.00    +0.112 C 
ENDBRANCH   1  18
TORSDOF 4
ENDMDL
MODEL 6
REMARK VINA RESULT:      -7.2      3.718      5.915
REMARK  Name = 89105
REMARK  4 active torsions:
REMARK  status: ('A' for Active; 'I' for Inactive)
REMARK    1  A    between atoms: C_1  and  N_18
REMARK    2  A    between atoms: C_2  and  N_14
REMARK    3  A    between atoms: C_4  and  C_9
REMARK    4  A    between atoms: C_6  and  N_17
REMARK                            x       y       z     vdW  Elec       q    Type
REMARK                         _______ _______ _______ _____ _____    ______ ____
ROOT
ATOM      1  C   UNL     1      36.509 -23.041 -15.917  0.00  0.00    +0.071 C 
ATOM      2  C   UNL     1      35.455 -23.902 -15.611  0.00  0.00    +0.158 C 
ATOM      3  C   UNL     1      37.814 -23.382 -15.561  0.00  0.00    +0.022 C 
ATOM      4  C   UNL     1      38.065 -24.583 -14.898  0.00  0.00    +0.077 C 
ATOM      5  C   UNL     1      35.706 -25.103 -14.947  0.00  0.00    +0.050 C 
ATOM      6  C   UNL     1      37.011 -25.444 -14.591  0.00  0.00    +0.149 C 
ENDROOT
BRANCH   4   9
ATOM      7  O   UNL     1      39.919 -24.570 -13.445  0.00  0.00    -0.270 OA
ATOM      8  N   UNL     1      40.196 -25.618 -15.466  0.00  0.00    -0.325 N 
ATOM      9  C   UNL     1      39.441 -24.905 -14.541  0.00  0.00    +0.244 C 
ATOM     10  H   UNL     1      41.130 -25.855 -15.262  0.00  0.00    +0.145 HD
ATOM     11  H   UNL     1      39.797 -25.888 -16.324  0.00  0.00    +0.145 HD
ENDBRANCH   4   9
BRANCH   2  14
ATOM     12  O   UNL     1      33.734 -23.777 -17.141  0.00  0.00    -0.126 OA
ATOM     13  O   UNL     1      33.357 -23.104 -15.085  0.00  0.00    -0.126 OA
ATOM     14  N   UNL     1      34.115 -23.578 -15.963  0.00  0.00    +0.059 N 
ENDBRANCH   2  14
BRANCH   6  17
ATOM     15  O   UNL     1      37.714 -27.640 -14.560  0.00  0.00    -0.126 OA
ATOM     16  O   UNL     1      36.962 -26.757 -12.697  0.00  0.00    -0.126 OA
ATOM     17  N   UNL     1      37.241 -26.675 -13.916  0.00  0.00    +0.058 N 
ENDBRANCH   6  17
BRANCH   1  18
ATOM     18  N   UNL     1      36.281 -21.815 -16.591  0.00  0.00    -0.303 N 
ATOM     19  C   UNL     1      36.492 -21.702 -18.039  0.00  0.00    +0.112 C 
ATOM     20  C   UNL     1      37.404 -21.013 -17.091  0.00  0.00    +0.112 C 
ENDBRANCH   1  18
TORSDOF 4
ENDMDL
MODEL 7
REMARK VINA RESULT:      -7.0      2.755      4.146
REMARK  Name = 89105
REMARK  4 active torsions:
REMARK  status: ('A' for Active; 'I' for Inactive)
REMARK    1  A    between atoms: C_1  and  N_18
REMARK    2  A    between atoms: C_2  and  N_14
REMARK    3  A    between atoms: C_4  and  C_9
REMARK    4  A    between atoms: C_6  and  N_17
REMARK                            x       y       z     vdW  Elec       q    Type
REMARK                         _______ _______ _______ _____ _____    ______ ____
ROOT
ATOM      1  C   UNL     1      34.019 -23.638 -14.866  0.00  0.00    +0.071 C 
ATOM      2  C   UNL     1      33.625 -24.029 -13.586  0.00  0.00    +0.158 C 
ATOM      3  C   UNL     1      35.346 -23.796 -15.266  0.00  0.00    +0.022 C 
ATOM      4  C   UNL     1      36.280 -24.343 -14.385  0.00  0.00    +0.077 C 
ATOM      5  C   UNL     1      34.559 -24.576 -12.706  0.00  0.00    +0.050 C 
ATOM      6  C   UNL     1      35.886 -24.733 -13.105  0.00  0.00    +0.149 C 
ENDROOT
BRANCH   4   9
ATOM      7  O   UNL     1      38.432 -23.522 -14.877  0.00  0.00    -0.270 OA
ATOM      8  N   UNL     1      38.081 -25.764 -15.208  0.00  0.00    -0.325 N 
ATOM      9  C   UNL     1      37.658 -24.492 -14.838  0.00  0.00    +0.244 C 
ATOM     10  H   UNL     1      39.004 -25.904 -15.519  0.00  0.00    +0.145 HD
ATOM     11  H   UNL     1      37.457 -26.524 -15.158  0.00  0.00    +0.145 HD
ENDBRANCH   4   9
BRANCH   2  14
ATOM     12  O   UNL     1      31.514 -24.872 -13.202  0.00  0.00    -0.126 OA
ATOM     13  O   UNL     1      31.897 -22.761 -12.739  0.00  0.00    -0.126 OA
ATOM     14  N   UNL     1      32.278 -23.880 -13.154  0.00  0.00    +0.059 N 
ENDBRANCH   2  14
BRANCH   6  17
ATOM     15  O   UNL     1      37.408 -24.535 -11.383  0.00  0.00    -0.126 OA
ATOM     16  O   UNL     1      37.024 -26.530 -12.214  0.00  0.00    -0.126 OA
ATOM     17  N   UNL     1      36.819 -25.294 -12.188  0.00  0.00    +0.058 N 
ENDBRANCH   6  17
BRANCH   1  18
ATOM     18  N   UNL     1      33.091 -23.081 -15.780  0.00  0.00    -0.303 N 
ATOM     19  C   UNL     1      32.142 -23.936 -16.504  0.00  0.00    +0.112 C 
ATOM     20  C   UNL     1      33.256 -23.269 -17.227  0.00  0.00    +0.112 C 
ENDBRANCH   1  18
TORSDOF 4
ENDMDL
MODEL 8
REMARK VINA RESULT:      -7.0      1.341      4.696
REMARK  Name = 89105
REMARK  4 active torsions:
REMARK  status: ('A' for Active; 'I' for Inactive)
REMARK    1  A    between atoms: C_1  and  N_18
REMARK    2  A    between atoms: C_2  and  N_14
REMARK    3  A    between atoms: C_4  and  C_9
REMARK    4  A    between atoms: C_6  and  N_17
REMARK                            x       y       z     vdW  Elec       q    Type
REMARK                         _______ _______ _______ _____ _____    ______ ____
ROOT
ATOM      1  C   UNL     1      33.667 -23.018 -16.974  0.00  0.00    +0.071 C 
ATOM      2  C   UNL     1      34.382 -23.301 -15.810  0.00  0.00    +0.158 C 
ATOM      3  C   UNL     1      32.276 -23.117 -16.979  0.00  0.00    +0.022 C 
ATOM      4  C   UNL     1      31.600 -23.501 -15.820  0.00  0.00    +0.077 C 
ATOM      5  C   UNL     1      33.706 -23.686 -14.652  0.00  0.00    +0.050 C 
ATOM      6  C   UNL     1      32.315 -23.786 -14.657  0.00  0.00    +0.149 C 
ENDROOT
BRANCH   4   9
ATOM      7  O   UNL     1      29.577 -24.629 -16.250  0.00  0.00    -0.270 OA
ATOM      8  N   UNL     1      29.416 -22.490 -15.440  0.00  0.00    -0.325 N 
ATOM      9  C   UNL     1      30.146 -23.595 -15.864  0.00  0.00    +0.244 C 
ATOM     10  H   UNL     1      28.432 -22.514 -15.455  0.00  0.00    +0.145 HD
ATOM     11  H   UNL     1      29.884 -21.683 -15.125  0.00  0.00    +0.145 HD
ENDBRANCH   4   9
BRANCH   2  14
ATOM     12  O   UNL     1      36.333 -22.072 -15.769  0.00  0.00    -0.126 OA
ATOM     13  O   UNL     1      36.478 -24.262 -15.761  0.00  0.00    -0.126 OA
ATOM     14  N   UNL     1      35.802 -23.207 -15.779  0.00  0.00    +0.059 N 
ENDBRANCH   2  14
BRANCH   6  17
ATOM     15  O   UNL     1      31.619 -25.395 -13.159  0.00  0.00    -0.126 OA
ATOM     16  O   UNL     1      31.112 -23.298 -12.752  0.00  0.00    -0.126 OA
ATOM     17  N   UNL     1      31.649 -24.179 -13.463  0.00  0.00    +0.058 N 
ENDBRANCH   6  17
BRANCH   1  18
ATOM     18  N   UNL     1      34.330 -22.625 -18.163  0.00  0.00    -0.303 N 
ATOM     19  C   UNL     1      33.658 -21.774 -19.153  0.00  0.00    +0.112 C 
ATOM     20  C   UNL     1      33.948 -23.198 -19.460  0.00  0.00    +0.112 C 
ENDBRANCH   1  18
TORSDOF 4
ENDMDL
MODEL 9
REMARK VINA RESULT:      -7.0      2.672      5.210
REMARK  Name = 89105
REMARK  4 active torsions:
REMARK  status: ('A' for Active; 'I' for Inactive)
REMARK    1  A    between atoms: C_1  and  N_18
REMARK    2  A    between atoms: C_2  and  N_14
REMARK    3  A    between atoms: C_4  and  C_9
REMARK    4  A    between atoms: C_6  and  N_17
REMARK                            x       y       z     vdW  Elec       q    Type
REMARK                         _______ _______ _______ _____ _____    ______ ____
ROOT
ATOM      1  C   UNL     1      35.661 -23.547 -14.196  0.00  0.00    +0.071 C 
ATOM      2  C   UNL     1      35.226 -24.150 -13.016  0.00  0.00    +0.158 C 
ATOM      3  C   UNL     1      34.749 -23.268 -15.214  0.00  0.00    +0.022 C 
ATOM      4  C   UNL     1      33.402 -23.594 -15.053  0.00  0.00    +0.077 C 
ATOM      5  C   UNL     1      33.879 -24.476 -12.855  0.00  0.00    +0.050 C 
ATOM      6  C   UNL     1      32.967 -24.198 -13.873  0.00  0.00    +0.149 C 
ENDROOT
BRANCH   4   9
ATOM      7  O   UNL     1      32.800 -23.462 -17.326  0.00  0.00    -0.270 OA
ATOM      8  N   UNL     1      31.218 -22.814 -15.798  0.00  0.00    -0.325 N 
ATOM      9  C   UNL     1      32.479 -23.289 -16.139  0.00  0.00    +0.244 C 
ATOM     10  H   UNL     1      30.566 -22.596 -16.503  0.00  0.00    +0.145 HD
ATOM     11  H   UNL     1      30.976 -22.695 -14.851  0.00  0.00    +0.145 HD
ENDBRANCH   4   9
BRANCH   2  14
ATOM     12  O   UNL     1      36.535 -25.624 -11.820  0.00  0.00    -0.126 OA
ATOM     13  O   UNL     1      36.509 -23.516 -11.208  0.00  0.00    -0.126 OA
ATOM     14  N   UNL     1      36.136 -24.445 -11.962  0.00  0.00    +0.059 N 
ENDBRANCH   2  14
BRANCH   6  17
ATOM     15  O   UNL     1      30.889 -23.813 -12.951  0.00  0.00    -0.126 OA
ATOM     16  O   UNL     1      31.146 -25.559 -14.256  0.00  0.00    -0.126 OA
ATOM     17  N   UNL     1      31.600 -24.540 -13.684  0.00  0.00    +0.058 N 
ENDBRANCH   6  17
BRANCH   1  18
ATOM     18  N   UNL     1      37.024 -23.205 -14.385  0.00  0.00    -0.303 N 
ATOM     19  C   UNL     1      37.536 -22.864 -15.717  0.00  0.00    +0.112 C 
ATOM     20  C   UNL     1      37.944 -24.131 -15.057  0.00  0.00    +0.112 C 
ENDBRANCH   1  18
TORSDOF 4
ENDMDL
