MODEL 1
REMARK VINA RESULT:     -11.4      0.000      0.000
REMARK  Name = 122077
REMARK  5 active torsions:
REMARK  status: ('A' for Active; 'I' for Inactive)
REMARK    1  A    between atoms: C_5  and  C_13
REMARK    2  A    between atoms: C_7  and  C_25
REMARK    3  A    between atoms: N_10  and  C_19
REMARK    4  A    between atoms: C_19  and  C_21
REMARK    5  A    between atoms: C_21  and  O_22
REMARK                            x       y       z     vdW  Elec       q    Type
REMARK                         _______ _______ _______ _____ _____    ______ ____
ROOT
ATOM      1  S   UNL     1      35.246  -9.267 -24.561  0.00  0.00    -0.059 S 
ATOM      2  O   UNL     1      32.199 -12.241 -22.808  0.00  0.00    -0.268 OA
ATOM      3  N   UNL     1      34.134 -11.549 -23.906  0.00  0.00    -0.250 N 
ATOM      4  N   UNL     1      33.006  -9.510 -23.293  0.00  0.00    -0.384 NA
ATOM      5  C   UNL     1      33.260 -12.538 -23.402  0.00  0.00    +0.265 C 
ATOM      6  C   UNL     1      33.988 -10.159 -23.838  0.00  0.00    +0.213 C 
ATOM      7  C   UNL     1      33.253  -8.159 -23.450  0.00  0.00    +0.123 C 
ATOM      8  C   UNL     1      34.419  -7.834 -24.112  0.00  0.00    +0.125 C 
ATOM      9  H   UNL     1      34.944 -11.878 -24.358  0.00  0.00    +0.158 HD
ENDROOT
BRANCH   5  13
ATOM     10  N   UNL     1      33.394 -14.666 -24.667  0.00  0.00    -0.273 N 
ATOM     11  C   UNL     1      33.954 -15.916 -24.527  0.00  0.00    +0.052 C 
ATOM     12  C   UNL     1      34.627 -15.930 -23.304  0.00  0.00    +0.015 C 
ATOM     13  C   UNL     1      33.689 -13.892 -23.577  0.00  0.00    +0.107 C 
ATOM     14  C   UNL     1      34.450 -14.646 -22.715  0.00  0.00    +0.021 C 
ATOM     15  C   UNL     1      33.917 -17.024 -25.381  0.00  0.00    +0.015 C 
ATOM     16  C   UNL     1      35.297 -17.106 -22.911  0.00  0.00    +0.001 C 
ATOM     17  C   UNL     1      34.588 -18.180 -24.970  0.00  0.00    +0.001 C 
ATOM     18  C   UNL     1      35.268 -18.222 -23.755  0.00  0.00    +0.000 C 
BRANCH  10  19
ATOM     19  C   UNL     1      32.606 -14.234 -25.803  0.00  0.00    +0.206 C 
BRANCH  19  21
ATOM     20  O   UNL     1      33.680 -12.227 -26.669  0.00  0.00    -0.248 OA
ATOM     21  C   UNL     1      33.407 -13.412 -26.775  0.00  0.00    +0.335 C 
BRANCH  21  22
ATOM     22  O   UNL     1      33.796 -14.185 -27.822  0.00  0.00    -0.479 OA
ATOM     23  H   UNL     1      34.374 -14.909 -27.681  0.00  0.00    +0.295 HD
ENDBRANCH  21  22
ENDBRANCH  19  21
ENDBRANCH  10  19
ENDBRANCH   5  13
BRANCH   7  25
ATOM     24 CL   UNL     1      32.912  -7.967 -20.395  0.00  0.00    -0.082 Cl
ATOM     25  C   UNL     1      32.347  -7.167 -22.951  0.00  0.00    +0.037 C 
ATOM     26  C   UNL     1      32.117  -6.994 -21.583  0.00  0.00    +0.060 C 
ATOM     27  C   UNL     1      31.681  -6.353 -23.872  0.00  0.00    +0.003 C 
ATOM     28  C   UNL     1      31.226  -6.016 -21.140  0.00  0.00    +0.011 C 
ATOM     29  C   UNL     1      30.791  -5.375 -23.428  0.00  0.00    +0.000 C 
ATOM     30  C   UNL     1      30.563  -5.207 -22.062  0.00  0.00    +0.001 C 
ENDBRANCH   7  25
TORSDOF 5
ENDMDL
MODEL 2
REMARK VINA RESULT:     -11.2      1.501      2.771
REMARK  Name = 122077
REMARK  5 active torsions:
REMARK  status: ('A' for Active; 'I' for Inactive)
REMARK    1  A    between atoms: C_5  and  C_13
REMARK    2  A    between atoms: C_7  and  C_25
REMARK    3  A    between atoms: N_10  and  C_19
REMARK    4  A    between atoms: C_19  and  C_21
REMARK    5  A    between atoms: C_21  and  O_22
REMARK                            x       y       z     vdW  Elec       q    Type
REMARK                         _______ _______ _______ _____ _____    ______ ____
ROOT
ATOM      1  S   UNL     1      35.312  -9.646 -24.693  0.00  0.00    -0.059 S 
ATOM      2  O   UNL     1      32.127 -12.516 -23.013  0.00  0.00    -0.268 OA
ATOM      3  N   UNL     1      34.112 -11.889 -24.060  0.00  0.00    -0.250 N 
ATOM      4  N   UNL     1      33.032  -9.813 -23.485  0.00  0.00    -0.384 NA
ATOM      5  C   UNL     1      33.194 -12.848 -23.577  0.00  0.00    +0.265 C 
ATOM      6  C   UNL     1      34.007 -10.494 -24.002  0.00  0.00    +0.213 C 
ATOM      7  C   UNL     1      33.325  -8.472 -23.640  0.00  0.00    +0.123 C 
ATOM      8  C   UNL     1      34.518  -8.186 -24.272  0.00  0.00    +0.125 C 
ATOM      9  H   UNL     1      34.924 -12.245 -24.489  0.00  0.00    +0.158 HD
ENDROOT
BRANCH   5  13
ATOM     10  N   UNL     1      34.037 -15.018 -22.724  0.00  0.00    -0.273 N 
ATOM     11  C   UNL     1      34.329 -16.273 -23.207  0.00  0.00    +0.052 C 
ATOM     12  C   UNL     1      34.052 -16.262 -24.575  0.00  0.00    +0.015 C 
ATOM     13  C   UNL     1      33.586 -14.215 -23.736  0.00  0.00    +0.107 C 
ATOM     14  C   UNL     1      33.584 -14.956 -24.895  0.00  0.00    +0.021 C 
ATOM     15  C   UNL     1      34.813 -17.408 -22.544  0.00  0.00    +0.015 C 
ATOM     16  C   UNL     1      34.267 -17.438 -25.322  0.00  0.00    +0.001 C 
ATOM     17  C   UNL     1      35.019 -18.563 -23.305  0.00  0.00    +0.001 C 
ATOM     18  C   UNL     1      34.750 -18.580 -24.672  0.00  0.00    +0.000 C 
BRANCH  10  19
ATOM     19  C   UNL     1      34.186 -14.607 -21.343  0.00  0.00    +0.206 C 
BRANCH  19  21
ATOM     20  O   UNL     1      32.327 -15.772 -20.285  0.00  0.00    -0.248 OA
ATOM     21  C   UNL     1      32.904 -14.733 -20.566  0.00  0.00    +0.335 C 
BRANCH  21  22
ATOM     22  O   UNL     1      32.456 -13.502 -20.210  0.00  0.00    -0.479 OA
ATOM     23  H   UNL     1      32.053 -12.947 -20.848  0.00  0.00    +0.295 HD
ENDBRANCH  21  22
ENDBRANCH  19  21
ENDBRANCH  10  19
ENDBRANCH   5  13
BRANCH   7  25
ATOM     24 CL   UNL     1      32.932  -8.236 -20.594  0.00  0.00    -0.082 Cl
ATOM     25  C   UNL     1      32.437  -7.449 -23.169  0.00  0.00    +0.037 C 
ATOM     26  C   UNL     1      32.186  -7.255 -21.807  0.00  0.00    +0.060 C 
ATOM     27  C   UNL     1      31.811  -6.629 -24.111  0.00  0.00    +0.003 C 
ATOM     28  C   UNL     1      31.314  -6.248 -21.392  0.00  0.00    +0.011 C 
ATOM     29  C   UNL     1      30.939  -5.623 -23.695  0.00  0.00    +0.000 C 
ATOM     30  C   UNL     1      30.691  -5.432 -22.336  0.00  0.00    +0.001 C 
ENDBRANCH   7  25
TORSDOF 5
ENDMDL
MODEL 3
REMARK VINA RESULT:     -10.8      2.149      3.463
REMARK  Name = 122077
REMARK  5 active torsions:
REMARK  status: ('A' for Active; 'I' for Inactive)
REMARK    1  A    between atoms: C_5  and  C_13
REMARK    2  A    between atoms: C_7  and  C_25
REMARK    3  A    between atoms: N_10  and  C_19
REMARK    4  A    between atoms: C_19  and  C_21
REMARK    5  A    between atoms: C_21  and  O_22
REMARK                            x       y       z     vdW  Elec       q    Type
REMARK                         _______ _______ _______ _____ _____    ______ ____
ROOT
ATOM      1  S   UNL     1      31.575 -11.247 -21.359  0.00  0.00    -0.059 S 
ATOM      2  O   UNL     1      34.069 -12.483 -25.027  0.00  0.00    -0.268 OA
ATOM      3  N   UNL     1      32.930 -12.763 -23.013  0.00  0.00    -0.250 N 
ATOM      4  N   UNL     1      32.682 -10.426 -23.546  0.00  0.00    -0.384 NA
ATOM      5  C   UNL     1      33.697 -13.238 -24.101  0.00  0.00    +0.265 C 
ATOM      6  C   UNL     1      32.477 -11.458 -22.787  0.00  0.00    +0.213 C 
ATOM      7  C   UNL     1      32.067  -9.339 -22.955  0.00  0.00    +0.123 C 
ATOM      8  C   UNL     1      31.416  -9.589 -21.765  0.00  0.00    +0.125 C 
ATOM      9  H   UNL     1      32.684 -13.430 -22.333  0.00  0.00    +0.158 HD
ENDROOT
BRANCH   5  13
ATOM     10  N   UNL     1      34.560 -15.312 -23.051  0.00  0.00    -0.273 N 
ATOM     11  C   UNL     1      34.694 -16.646 -23.360  0.00  0.00    +0.052 C 
ATOM     12  C   UNL     1      34.179 -16.824 -24.646  0.00  0.00    +0.015 C 
ATOM     13  C   UNL     1      33.980 -14.641 -24.093  0.00  0.00    +0.107 C 
ATOM     14  C   UNL     1      33.733 -15.549 -25.096  0.00  0.00    +0.021 C 
ATOM     15  C   UNL     1      35.226 -17.700 -22.608  0.00  0.00    +0.015 C 
ATOM     16  C   UNL     1      34.195 -18.114 -25.211  0.00  0.00    +0.001 C 
ATOM     17  C   UNL     1      35.232 -18.971 -23.190  0.00  0.00    +0.001 C 
ATOM     18  C   UNL     1      34.725 -19.178 -24.471  0.00  0.00    +0.000 C 
BRANCH  10  19
ATOM     19  C   UNL     1      34.973 -14.705 -21.802  0.00  0.00    +0.206 C 
BRANCH  19  21
ATOM     20  O   UNL     1      32.939 -14.851 -20.469  0.00  0.00    -0.248 OA
ATOM     21  C   UNL     1      34.114 -15.136 -20.645  0.00  0.00    +0.335 C 
BRANCH  21  22
ATOM     22  O   UNL     1      34.839 -15.904 -19.791  0.00  0.00    -0.479 OA
ATOM     23  H   UNL     1      35.079 -16.776 -20.035  0.00  0.00    +0.295 HD
ENDBRANCH  21  22
ENDBRANCH  19  21
ENDBRANCH  10  19
ENDBRANCH   5  13
BRANCH   7  25
ATOM     24 CL   UNL     1      34.843  -8.149 -23.560  0.00  0.00    -0.082 Cl
ATOM     25  C   UNL     1      32.108  -8.036 -23.553  0.00  0.00    +0.037 C 
ATOM     26  C   UNL     1      33.314  -7.403 -23.869  0.00  0.00    +0.060 C 
ATOM     27  C   UNL     1      30.898  -7.391 -23.824  0.00  0.00    +0.003 C 
ATOM     28  C   UNL     1      33.309  -6.134 -24.449  0.00  0.00    +0.011 C 
ATOM     29  C   UNL     1      30.893  -6.123 -24.404  0.00  0.00    +0.000 C 
ATOM     30  C   UNL     1      32.098  -5.495 -24.716  0.00  0.00    +0.001 C 
ENDBRANCH   7  25
TORSDOF 5
ENDMDL
MODEL 4
REMARK VINA RESULT:     -10.5      2.019      2.458
REMARK  Name = 122077
REMARK  5 active torsions:
REMARK  status: ('A' for Active; 'I' for Inactive)
REMARK    1  A    between atoms: C_5  and  C_13
REMARK    2  A    between atoms: C_7  and  C_25
REMARK    3  A    between atoms: N_10  and  C_19
REMARK    4  A    between atoms: C_19  and  C_21
REMARK    5  A    between atoms: C_21  and  O_22
REMARK                            x       y       z     vdW  Elec       q    Type
REMARK                         _______ _______ _______ _____ _____    ______ ____
ROOT
ATOM      1  S   UNL     1      31.544 -10.942 -21.068  0.00  0.00    -0.059 S 
ATOM      2  O   UNL     1      34.140 -12.576 -24.503  0.00  0.00    -0.268 OA
ATOM      3  N   UNL     1      32.938 -12.633 -22.507  0.00  0.00    -0.250 N 
ATOM      4  N   UNL     1      32.724 -10.366 -23.295  0.00  0.00    -0.384 NA
ATOM      5  C   UNL     1      33.734 -13.226 -23.513  0.00  0.00    +0.265 C 
ATOM      6  C   UNL     1      32.488 -11.309 -22.437  0.00  0.00    +0.213 C 
ATOM      7  C   UNL     1      32.099  -9.219 -22.845  0.00  0.00    +0.123 C 
ATOM      8  C   UNL     1      31.411  -9.337 -21.655  0.00  0.00    +0.125 C 
ATOM      9  H   UNL     1      32.666 -13.222 -21.767  0.00  0.00    +0.158 HD
ENDROOT
BRANCH   5  13
ATOM     10  N   UNL     1      34.197 -15.505 -24.373  0.00  0.00    -0.273 N 
ATOM     11  C   UNL     1      34.437 -16.766 -23.876  0.00  0.00    +0.052 C 
ATOM     12  C   UNL     1      34.397 -16.674 -22.483  0.00  0.00    +0.015 C 
ATOM     13  C   UNL     1      34.006 -14.620 -23.345  0.00  0.00    +0.107 C 
ATOM     14  C   UNL     1      34.123 -15.314 -22.163  0.00  0.00    +0.021 C 
ATOM     15  C   UNL     1      34.684 -17.970 -24.546  0.00  0.00    +0.015 C 
ATOM     16  C   UNL     1      34.613 -17.837 -21.719  0.00  0.00    +0.001 C 
ATOM     17  C   UNL     1      34.896 -19.111 -23.767  0.00  0.00    +0.001 C 
ATOM     18  C   UNL     1      34.862 -19.049 -22.376  0.00  0.00    +0.000 C 
BRANCH  10  19
ATOM     19  C   UNL     1      34.152 -15.163 -25.780  0.00  0.00    +0.206 C 
BRANCH  19  21
ATOM     20  O   UNL     1      32.324 -16.430 -26.774  0.00  0.00    -0.248 OA
ATOM     21  C   UNL     1      32.787 -15.372 -26.376  0.00  0.00    +0.335 C 
BRANCH  21  22
ATOM     22  O   UNL     1      32.116 -14.193 -26.419  0.00  0.00    -0.479 OA
ATOM     23  H   UNL     1      32.468 -13.436 -25.993  0.00  0.00    +0.295 HD
ENDBRANCH  21  22
ENDBRANCH  19  21
ENDBRANCH  10  19
ENDBRANCH   5  13
BRANCH   7  25
ATOM     24 CL   UNL     1      34.901  -8.138 -23.529  0.00  0.00    -0.082 Cl
ATOM     25  C   UNL     1      32.168  -7.988 -23.577  0.00  0.00    +0.037 C 
ATOM     26  C   UNL     1      33.388  -7.408 -23.939  0.00  0.00    +0.060 C 
ATOM     27  C   UNL     1      30.972  -7.360 -23.934  0.00  0.00    +0.003 C 
ATOM     28  C   UNL     1      33.410  -6.209 -24.652  0.00  0.00    +0.011 C 
ATOM     29  C   UNL     1      30.995  -6.161 -24.646  0.00  0.00    +0.000 C 
ATOM     30  C   UNL     1      32.213  -5.586 -25.005  0.00  0.00    +0.001 C 
ENDBRANCH   7  25
TORSDOF 5
ENDMDL
MODEL 5
REMARK VINA RESULT:     -10.3      4.088      9.336
REMARK  Name = 122077
REMARK  5 active torsions:
REMARK  status: ('A' for Active; 'I' for Inactive)
REMARK    1  A    between atoms: C_5  and  C_13
REMARK    2  A    between atoms: C_7  and  C_25
REMARK    3  A    between atoms: N_10  and  C_19
REMARK    4  A    between atoms: C_19  and  C_21
REMARK    5  A    between atoms: C_21  and  O_22
REMARK                            x       y       z     vdW  Elec       q    Type
REMARK                         _______ _______ _______ _____ _____    ______ ____
ROOT
ATOM      1  S   UNL     1      34.930 -17.241 -23.728  0.00  0.00    -0.059 S 
ATOM      2  O   UNL     1      32.674 -15.085 -20.343  0.00  0.00    -0.268 OA
ATOM      3  N   UNL     1      33.700 -15.331 -22.420  0.00  0.00    -0.250 N 
ATOM      4  N   UNL     1      33.928 -17.482 -21.358  0.00  0.00    -0.384 NA
ATOM      5  C   UNL     1      33.007 -14.585 -21.441  0.00  0.00    +0.265 C 
ATOM      6  C   UNL     1      34.110 -16.668 -22.351  0.00  0.00    +0.213 C 
ATOM      7  C   UNL     1      34.488 -18.698 -21.700  0.00  0.00    +0.123 C 
ATOM      8  C   UNL     1      35.078 -18.759 -22.946  0.00  0.00    +0.125 C 
ATOM      9  H   UNL     1      33.920 -14.853 -23.252  0.00  0.00    +0.158 HD
ENDROOT
BRANCH   5  13
ATOM     10  N   UNL     1      33.161 -12.593 -22.908  0.00  0.00    -0.273 N 
ATOM     11  C   UNL     1      32.652 -11.315 -22.970  0.00  0.00    +0.052 C 
ATOM     12  C   UNL     1      31.815 -11.152 -21.864  0.00  0.00    +0.015 C 
ATOM     13  C   UNL     1      32.677 -13.241 -21.804  0.00  0.00    +0.107 C 
ATOM     14  C   UNL     1      31.841 -12.376 -21.137  0.00  0.00    +0.021 C 
ATOM     15  C   UNL     1      32.866 -10.301 -23.912  0.00  0.00    +0.015 C 
ATOM     16  C   UNL     1      31.158  -9.918 -21.686  0.00  0.00    +0.001 C 
ATOM     17  C   UNL     1      32.203  -9.086 -23.714  0.00  0.00    +0.001 C 
ATOM     18  C   UNL     1      31.362  -8.895 -22.620  0.00  0.00    +0.000 C 
BRANCH  10  19
ATOM     19  C   UNL     1      34.078 -13.167 -23.872  0.00  0.00    +0.206 C 
BRANCH  19  21
ATOM     20  O   UNL     1      33.480 -12.730 -26.192  0.00  0.00    -0.248 OA
ATOM     21  C   UNL     1      33.420 -13.436 -25.197  0.00  0.00    +0.335 C 
BRANCH  21  22
ATOM     22  O   UNL     1      32.726 -14.602 -25.141  0.00  0.00    -0.479 OA
ATOM     23  H   UNL     1      33.000 -15.283 -24.559  0.00  0.00    +0.295 HD
ENDBRANCH  21  22
ENDBRANCH  19  21
ENDBRANCH  10  19
ENDBRANCH   5  13
BRANCH   7  25
ATOM     24 CL   UNL     1      37.178 -19.696 -20.578  0.00  0.00    -0.082 Cl
ATOM     25  C   UNL     1      34.453 -19.819 -20.807  0.00  0.00    +0.037 C 
ATOM     26  C   UNL     1      35.614 -20.353 -20.240  0.00  0.00    +0.060 C 
ATOM     27  C   UNL     1      33.212 -20.385 -20.502  0.00  0.00    +0.003 C 
ATOM     28  C   UNL     1      35.534 -21.446 -19.377  0.00  0.00    +0.011 C 
ATOM     29  C   UNL     1      33.133 -21.478 -19.639  0.00  0.00    +0.000 C 
ATOM     30  C   UNL     1      34.294 -22.008 -19.076  0.00  0.00    +0.001 C 
ENDBRANCH   7  25
TORSDOF 5
ENDMDL
MODEL 6
REMARK VINA RESULT:     -10.2      2.032      2.439
REMARK  Name = 122077
REMARK  5 active torsions:
REMARK  status: ('A' for Active; 'I' for Inactive)
REMARK    1  A    between atoms: C_5  and  C_13
REMARK    2  A    between atoms: C_7  and  C_25
REMARK    3  A    between atoms: N_10  and  C_19
REMARK    4  A    between atoms: C_19  and  C_21
REMARK    5  A    between atoms: C_21  and  O_22
REMARK                            x       y       z     vdW  Elec       q    Type
REMARK                         _______ _______ _______ _____ _____    ______ ____
ROOT
ATOM      1  S   UNL     1      31.411 -11.673 -20.285  0.00  0.00    -0.059 S 
ATOM      2  O   UNL     1      33.786 -12.783 -24.070  0.00  0.00    -0.268 OA
ATOM      3  N   UNL     1      32.755 -13.120 -22.008  0.00  0.00    -0.250 N 
ATOM      4  N   UNL     1      32.379 -10.795 -22.516  0.00  0.00    -0.384 NA
ATOM      5  C   UNL     1      33.491 -13.557 -23.132  0.00  0.00    +0.265 C 
ATOM      6  C   UNL     1      32.255 -11.838 -21.754  0.00  0.00    +0.213 C 
ATOM      7  C   UNL     1      31.743  -9.739 -21.892  0.00  0.00    +0.123 C 
ATOM      8  C   UNL     1      31.160 -10.022 -20.674  0.00  0.00    +0.125 C 
ATOM      9  H   UNL     1      32.571 -13.801 -21.321  0.00  0.00    +0.158 HD
ENDROOT
BRANCH   5  13
ATOM     10  N   UNL     1      34.125 -15.665 -24.273  0.00  0.00    -0.273 N 
ATOM     11  C   UNL     1      34.415 -16.970 -23.943  0.00  0.00    +0.052 C 
ATOM     12  C   UNL     1      34.307 -17.077 -22.555  0.00  0.00    +0.015 C 
ATOM     13  C   UNL     1      33.837 -14.946 -23.145  0.00  0.00    +0.107 C 
ATOM     14  C   UNL     1      33.941 -15.792 -22.065  0.00  0.00    +0.021 C 
ATOM     15  C   UNL     1      34.763 -18.053 -24.760  0.00  0.00    +0.015 C 
ATOM     16  C   UNL     1      34.556 -18.324 -21.949  0.00  0.00    +0.001 C 
ATOM     17  C   UNL     1      35.006 -19.281 -24.136  0.00  0.00    +0.001 C 
ATOM     18  C   UNL     1      34.905 -19.416 -22.753  0.00  0.00    +0.000 C 
BRANCH  10  19
ATOM     19  C   UNL     1      34.124 -15.132 -25.620  0.00  0.00    +0.206 C 
BRANCH  19  21
ATOM     20  O   UNL     1      32.374 -16.401 -26.743  0.00  0.00    -0.248 OA
ATOM     21  C   UNL     1      32.808 -15.341 -26.317  0.00  0.00    +0.335 C 
BRANCH  21  22
ATOM     22  O   UNL     1      32.145 -14.160 -26.419  0.00  0.00    -0.479 OA
ATOM     23  H   UNL     1      31.225 -14.123 -26.246  0.00  0.00    +0.295 HD
ENDBRANCH  21  22
ENDBRANCH  19  21
ENDBRANCH  10  19
ENDBRANCH   5  13
BRANCH   7  25
ATOM     24 CL   UNL     1      32.918  -7.407 -20.258  0.00  0.00    -0.082 Cl
ATOM     25  C   UNL     1      31.699  -8.433 -22.484  0.00  0.00    +0.037 C 
ATOM     26  C   UNL     1      32.204  -7.305 -21.830  0.00  0.00    +0.060 C 
ATOM     27  C   UNL     1      31.132  -8.300 -23.754  0.00  0.00    +0.003 C 
ATOM     28  C   UNL     1      32.140  -6.053 -22.441  0.00  0.00    +0.011 C 
ATOM     29  C   UNL     1      31.069  -7.048 -24.365  0.00  0.00    +0.000 C 
ATOM     30  C   UNL     1      31.573  -5.925 -23.709  0.00  0.00    +0.001 C 
ENDBRANCH   7  25
TORSDOF 5
ENDMDL
MODEL 7
REMARK VINA RESULT:      -9.6      2.775      9.172
REMARK  Name = 122077
REMARK  5 active torsions:
REMARK  status: ('A' for Active; 'I' for Inactive)
REMARK    1  A    between atoms: C_5  and  C_13
REMARK    2  A    between atoms: C_7  and  C_25
REMARK    3  A    between atoms: N_10  and  C_19
REMARK    4  A    between atoms: C_19  and  C_21
REMARK    5  A    between atoms: C_21  and  O_22
REMARK                            x       y       z     vdW  Elec       q    Type
REMARK                         _______ _______ _______ _____ _____    ______ ____
ROOT
ATOM      1  S   UNL     1      31.649 -12.575 -21.016  0.00  0.00    -0.059 S 
ATOM      2  O   UNL     1      33.389 -10.286 -24.612  0.00  0.00    -0.268 OA
ATOM      3  N   UNL     1      32.161 -10.596 -22.656  0.00  0.00    -0.250 N 
ATOM      4  N   UNL     1      33.132 -12.750 -23.126  0.00  0.00    -0.384 NA
ATOM      5  C   UNL     1      32.646  -9.809 -23.725  0.00  0.00    +0.265 C 
ATOM      6  C   UNL     1      32.405 -11.951 -22.408  0.00  0.00    +0.213 C 
ATOM      7  C   UNL     1      33.104 -13.997 -22.530  0.00  0.00    +0.123 C 
ATOM      8  C   UNL     1      32.353 -14.096 -21.378  0.00  0.00    +0.125 C 
ATOM      9  H   UNL     1      31.583 -10.134 -22.007  0.00  0.00    +0.158 HD
ENDROOT
BRANCH   5  13
ATOM     10  N   UNL     1      32.639  -7.537 -22.732  0.00  0.00    -0.273 N 
ATOM     11  C   UNL     1      32.108  -6.296 -23.001  0.00  0.00    +0.052 C 
ATOM     12  C   UNL     1      31.375  -6.409 -24.183  0.00  0.00    +0.015 C 
ATOM     13  C   UNL     1      32.266  -8.430 -23.701  0.00  0.00    +0.107 C 
ATOM     14  C   UNL     1      31.483  -7.762 -24.613  0.00  0.00    +0.021 C 
ATOM     15  C   UNL     1      32.221  -5.092 -22.294  0.00  0.00    +0.015 C 
ATOM     16  C   UNL     1      30.720  -5.268 -24.688  0.00  0.00    +0.001 C 
ATOM     17  C   UNL     1      31.563  -3.973 -22.814  0.00  0.00    +0.001 C 
ATOM     18  C   UNL     1      30.824  -4.057 -23.992  0.00  0.00    +0.000 C 
BRANCH  10  19
ATOM     19  C   UNL     1      33.470  -7.854 -21.589  0.00  0.00    +0.206 C 
BRANCH  19  21
ATOM     20  O   UNL     1      31.834  -8.941 -20.148  0.00  0.00    -0.248 OA
ATOM     21  C   UNL     1      32.664  -8.065 -20.336  0.00  0.00    +0.335 C 
BRANCH  21  22
ATOM     22  O   UNL     1      32.988  -7.122 -19.414  0.00  0.00    -0.479 OA
ATOM     23  H   UNL     1      32.904  -7.312 -18.500  0.00  0.00    +0.295 HD
ENDBRANCH  21  22
ENDBRANCH  19  21
ENDBRANCH  10  19
ENDBRANCH   5  13
BRANCH   7  25
ATOM     24 CL   UNL     1      32.789 -14.513 -25.551  0.00  0.00    -0.082 Cl
ATOM     25  C   UNL     1      33.817 -15.111 -23.085  0.00  0.00    +0.037 C 
ATOM     26  C   UNL     1      33.745 -15.435 -24.443  0.00  0.00    +0.060 C 
ATOM     27  C   UNL     1      34.605 -15.886 -22.230  0.00  0.00    +0.003 C 
ATOM     28  C   UNL     1      34.455 -16.528 -24.941  0.00  0.00    +0.011 C 
ATOM     29  C   UNL     1      35.314 -16.979 -22.728  0.00  0.00    +0.000 C 
ATOM     30  C   UNL     1      35.239 -17.300 -24.084  0.00  0.00    +0.001 C 
ENDBRANCH   7  25
TORSDOF 5
ENDMDL
MODEL 8
REMARK VINA RESULT:      -9.6      3.580      9.258
REMARK  Name = 122077
REMARK  5 active torsions:
REMARK  status: ('A' for Active; 'I' for Inactive)
REMARK    1  A    between atoms: C_5  and  C_13
REMARK    2  A    between atoms: C_7  and  C_25
REMARK    3  A    between atoms: N_10  and  C_19
REMARK    4  A    between atoms: C_19  and  C_21
REMARK    5  A    between atoms: C_21  and  O_22
REMARK                            x       y       z     vdW  Elec       q    Type
REMARK                         _______ _______ _______ _____ _____    ______ ____
ROOT
ATOM      1  S   UNL     1      34.543 -16.553 -24.949  0.00  0.00    -0.059 S 
ATOM      2  O   UNL     1      33.499 -13.907 -21.327  0.00  0.00    -0.268 OA
ATOM      3  N   UNL     1      33.943 -14.413 -23.558  0.00  0.00    -0.250 N 
ATOM      4  N   UNL     1      34.127 -16.517 -22.397  0.00  0.00    -0.384 NA
ATOM      5  C   UNL     1      33.619 -13.521 -22.511  0.00  0.00    +0.265 C 
ATOM      6  C   UNL     1      34.170 -15.792 -23.472  0.00  0.00    +0.213 C 
ATOM      7  C   UNL     1      34.416 -17.820 -22.755  0.00  0.00    +0.123 C 
ATOM      8  C   UNL     1      34.668 -18.034 -24.094  0.00  0.00    +0.125 C 
ATOM      9  H   UNL     1      34.015 -14.018 -24.457  0.00  0.00    +0.158 HD
ENDROOT
BRANCH   5  13
ATOM     10  N   UNL     1      32.302 -11.421 -22.549  0.00  0.00    -0.273 N 
ATOM     11  C   UNL     1      32.391 -10.156 -23.086  0.00  0.00    +0.052 C 
ATOM     12  C   UNL     1      33.587 -10.098 -23.804  0.00  0.00    +0.015 C 
ATOM     13  C   UNL     1      33.396 -12.162 -22.902  0.00  0.00    +0.107 C 
ATOM     14  C   UNL     1      34.210 -11.372 -23.679  0.00  0.00    +0.021 C 
ATOM     15  C   UNL     1      31.513  -9.069 -22.991  0.00  0.00    +0.015 C 
ATOM     16  C   UNL     1      33.927  -8.899 -24.461  0.00  0.00    +0.001 C 
ATOM     17  C   UNL     1      31.871  -7.890 -23.652  0.00  0.00    +0.001 C 
ATOM     18  C   UNL     1      33.059  -7.804 -24.376  0.00  0.00    +0.000 C 
BRANCH  10  19
ATOM     19  C   UNL     1      31.206 -11.897 -21.729  0.00  0.00    +0.206 C 
BRANCH  19  21
ATOM     20  O   UNL     1      30.867 -10.404 -19.835  0.00  0.00    -0.248 OA
ATOM     21  C   UNL     1      31.319 -11.439 -20.301  0.00  0.00    +0.335 C 
BRANCH  21  22
ATOM     22  O   UNL     1      32.013 -12.352 -19.576  0.00  0.00    -0.479 OA
ATOM     23  H   UNL     1      32.637 -12.068 -18.937  0.00  0.00    +0.295 HD
ENDBRANCH  21  22
ENDBRANCH  19  21
ENDBRANCH  10  19
ENDBRANCH   5  13
BRANCH   7  25
ATOM     24 CL   UNL     1      37.181 -18.746 -21.765  0.00  0.00    -0.082 Cl
ATOM     25  C   UNL     1      34.447 -18.876 -21.786  0.00  0.00    +0.037 C 
ATOM     26  C   UNL     1      35.647 -19.373 -21.269  0.00  0.00    +0.060 C 
ATOM     27  C   UNL     1      33.232 -19.414 -21.352  0.00  0.00    +0.003 C 
ATOM     28  C   UNL     1      35.632 -20.402 -20.328  0.00  0.00    +0.011 C 
ATOM     29  C   UNL     1      33.218 -20.443 -20.410  0.00  0.00    +0.000 C 
ATOM     30  C   UNL     1      34.418 -20.937 -19.898  0.00  0.00    +0.001 C 
ENDBRANCH   7  25
TORSDOF 5
ENDMDL
MODEL 9
REMARK VINA RESULT:      -9.6      2.595      8.823
REMARK  Name = 122077
REMARK  5 active torsions:
REMARK  status: ('A' for Active; 'I' for Inactive)
REMARK    1  A    between atoms: C_5  and  C_13
REMARK    2  A    between atoms: C_7  and  C_25
REMARK    3  A    between atoms: N_10  and  C_19
REMARK    4  A    between atoms: C_19  and  C_21
REMARK    5  A    between atoms: C_21  and  O_22
REMARK                            x       y       z     vdW  Elec       q    Type
REMARK                         _______ _______ _______ _____ _____    ______ ____
ROOT
ATOM      1  S   UNL     1      33.076 -14.323 -26.444  0.00  0.00    -0.059 S 
ATOM      2  O   UNL     1      33.964 -12.229 -22.441  0.00  0.00    -0.268 OA
ATOM      3  N   UNL     1      33.290 -12.411 -24.664  0.00  0.00    -0.250 N 
ATOM      4  N   UNL     1      33.904 -14.650 -24.017  0.00  0.00    -0.384 NA
ATOM      5  C   UNL     1      33.532 -11.680 -23.480  0.00  0.00    +0.265 C 
ATOM      6  C   UNL     1      33.471 -13.782 -24.879  0.00  0.00    +0.213 C 
ATOM      7  C   UNL     1      33.934 -15.883 -24.639  0.00  0.00    +0.123 C 
ATOM      8  C   UNL     1      33.521 -15.905 -25.954  0.00  0.00    +0.125 C 
ATOM      9  H   UNL     1      32.951 -11.894 -25.430  0.00  0.00    +0.158 HD
ENDROOT
BRANCH   5  13
ATOM     10  N   UNL     1      32.095  -9.722 -22.983  0.00  0.00    -0.273 N 
ATOM     11  C   UNL     1      32.085  -8.365 -23.213  0.00  0.00    +0.052 C 
ATOM     12  C   UNL     1      33.239  -8.062 -23.938  0.00  0.00    +0.015 C 
ATOM     13  C   UNL     1      33.213 -10.286 -23.535  0.00  0.00    +0.107 C 
ATOM     14  C   UNL     1      33.941  -9.285 -24.134  0.00  0.00    +0.021 C 
ATOM     15  C   UNL     1      31.151  -7.391 -22.839  0.00  0.00    +0.015 C 
ATOM     16  C   UNL     1      33.476  -6.724 -24.309  0.00  0.00    +0.001 C 
ATOM     17  C   UNL     1      31.407  -6.070 -23.218  0.00  0.00    +0.001 C 
ATOM     18  C   UNL     1      32.551  -5.739 -23.941  0.00  0.00    +0.000 C 
BRANCH  10  19
ATOM     19  C   UNL     1      31.070 -10.448 -22.261  0.00  0.00    +0.206 C 
BRANCH  19  21
ATOM     20  O   UNL     1      31.483  -9.696 -19.981  0.00  0.00    -0.248 OA
ATOM     21  C   UNL     1      31.397 -10.597 -20.800  0.00  0.00    +0.335 C 
BRANCH  21  22
ATOM     22  O   UNL     1      31.593 -11.908 -20.502  0.00  0.00    -0.479 OA
ATOM     23  H   UNL     1      32.160 -12.430 -21.035  0.00  0.00    +0.295 HD
ENDBRANCH  21  22
ENDBRANCH  19  21
ENDBRANCH  10  19
ENDBRANCH   5  13
BRANCH   7  25
ATOM     24 CL   UNL     1      34.528 -15.618 -21.628  0.00  0.00    -0.082 Cl
ATOM     25  C   UNL     1      34.370 -17.062 -23.947  0.00  0.00    +0.037 C 
ATOM     26  C   UNL     1      34.666 -17.054 -22.581  0.00  0.00    +0.060 C 
ATOM     27  C   UNL     1      34.495 -18.249 -24.675  0.00  0.00    +0.003 C 
ATOM     28  C   UNL     1      35.087 -18.223 -21.948  0.00  0.00    +0.011 C 
ATOM     29  C   UNL     1      34.916 -19.418 -24.041  0.00  0.00    +0.000 C 
ATOM     30  C   UNL     1      35.212 -19.405 -22.678  0.00  0.00    +0.001 C 
ENDBRANCH   7  25
TORSDOF 5
ENDMDL
