MODEL 1
REMARK VINA RESULT:     -10.8      0.000      0.000
REMARK  Name = 4621
REMARK  13 active torsions:
REMARK  status: ('A' for Active; 'I' for Inactive)
REMARK    1  A    between atoms: N_1  and  C_3
REMARK    2  A    between atoms: N_1  and  C_18
REMARK    3  A    between atoms: N_1  and  C_33
REMARK    4  A    between atoms: C_3  and  C_6
REMARK    5  A    between atoms: N_5  and  C_8
REMARK    6  A    between atoms: C_8  and  C_11
REMARK    7  A    between atoms: C_11  and  C_12
REMARK    8  A    between atoms: C_18  and  C_21
REMARK    9  A    between atoms: N_20  and  C_23
REMARK   10  A    between atoms: C_23  and  C_26
REMARK   11  A    between atoms: C_26  and  C_27
REMARK   12  A    between atoms: C_33  and  C_34
REMARK   13  A    between atoms: C_34  and  O_35
REMARK                            x       y       z     vdW  Elec       q    Type
REMARK                         _______ _______ _______ _____ _____    ______ ____
ROOT
ATOM      1  N   UNL     1      33.387 -13.728 -23.696  0.00  0.00    +0.400 N 
ATOM      2  H   UNL     1      32.776 -13.716 -22.881  0.00  0.00    -0.078 HD
ENDROOT
BRANCH   1   3
ATOM      3  C   UNL     1      33.732 -12.351 -24.028  0.00  0.00    +0.011 C 
BRANCH   3   6
ATOM      4  O   UNL     1      31.860 -11.822 -22.618  0.00  0.00    -0.277 OA
ATOM      5  N   UNL     1      33.204 -10.052 -23.279  0.00  0.00    -0.282 N 
ATOM      6  C   UNL     1      32.840 -11.404 -23.242  0.00  0.00    +0.205 C 
ATOM      7  C   UNL     1      34.367  -9.574 -24.022  0.00  0.00    +0.115 C 
BRANCH   5   8
ATOM      8  C   UNL     1      32.450  -9.020 -22.576  0.00  0.00    +0.064 C 
ATOM      9  C   UNL     1      32.210  -9.504 -21.136  0.00  0.00    +0.020 C 
ATOM     10  C   UNL     1      31.089  -8.833 -23.264  0.00  0.00    +0.020 C 
BRANCH   8  11
ATOM     11  C   UNL     1      33.255  -7.696 -22.521  0.00  0.00    +0.045 C 
BRANCH  11  12
ATOM     12  C   UNL     1      32.585  -6.488 -23.138  0.00  0.00    -0.021 C 
ATOM     13  C   UNL     1      31.777  -5.663 -22.355  0.00  0.00    -0.004 C 
ATOM     14  C   UNL     1      32.776  -6.200 -24.489  0.00  0.00    -0.004 C 
ATOM     15  C   UNL     1      31.159  -4.549 -22.924  0.00  0.00    -0.000 C 
ATOM     16  C   UNL     1      32.158  -5.085 -25.058  0.00  0.00    -0.000 C 
ATOM     17  C   UNL     1      31.351  -4.260 -24.275  0.00  0.00    -0.000 C 
ENDBRANCH  11  12
ENDBRANCH   8  11
ENDBRANCH   5   8
ENDBRANCH   3   6
ENDBRANCH   1   3
BRANCH   1  18
ATOM     18  C   UNL     1      34.590 -14.494 -23.366  0.00  0.00    +0.011 C 
BRANCH  18  21
ATOM     19  O   UNL     1      33.469 -15.907 -21.780  0.00  0.00    -0.277 OA
ATOM     20  N   UNL     1      34.685 -16.966 -23.446  0.00  0.00    -0.282 N 
ATOM     21  C   UNL     1      34.188 -15.838 -22.781  0.00  0.00    +0.205 C 
ATOM     22  C   UNL     1      34.958 -16.971 -24.881  0.00  0.00    +0.115 C 
BRANCH  20  23
ATOM     23  C   UNL     1      34.966 -18.219 -22.756  0.00  0.00    +0.064 C 
ATOM     24  C   UNL     1      34.616 -19.395 -23.681  0.00  0.00    +0.020 C 
ATOM     25  C   UNL     1      36.472 -18.267 -22.450  0.00  0.00    +0.020 C 
BRANCH  23  26
ATOM     26  C   UNL     1      34.190 -18.290 -21.414  0.00  0.00    +0.045 C 
BRANCH  26  27
ATOM     27  C   UNL     1      34.246 -19.616 -20.687  0.00  0.00    -0.021 C 
ATOM     28  C   UNL     1      33.064 -20.262 -20.325  0.00  0.00    -0.004 C 
ATOM     29  C   UNL     1      35.479 -20.191 -20.381  0.00  0.00    -0.004 C 
ATOM     30  C   UNL     1      33.115 -21.484 -19.655  0.00  0.00    -0.000 C 
ATOM     31  C   UNL     1      35.530 -21.414 -19.711  0.00  0.00    -0.000 C 
ATOM     32  C   UNL     1      34.348 -22.060 -19.348  0.00  0.00    -0.000 C 
ENDBRANCH  26  27
ENDBRANCH  23  26
ENDBRANCH  20  23
ENDBRANCH  18  21
ENDBRANCH   1  18
BRANCH   1  33
ATOM     33  C   UNL     1      32.671 -14.361 -24.806  0.00  0.00    -0.044 C 
BRANCH  33  34
ATOM     34  C   UNL     1      33.146 -13.805 -26.139  0.00  0.00    +0.115 C 
BRANCH  34  35
ATOM     35  O   UNL     1      33.456 -14.892 -27.002  0.00  0.00    -0.384 OA
ATOM     36  H   UNL     1      32.695 -15.493 -27.050  0.00  0.00    +0.210 HD
ENDBRANCH  34  35
ENDBRANCH  33  34
ENDBRANCH   1  33
TORSDOF 13
ENDMDL
MODEL 2
REMARK VINA RESULT:     -10.5      0.785      1.436
REMARK  Name = 4621
REMARK  13 active torsions:
REMARK  status: ('A' for Active; 'I' for Inactive)
REMARK    1  A    between atoms: N_1  and  C_3
REMARK    2  A    between atoms: N_1  and  C_18
REMARK    3  A    between atoms: N_1  and  C_33
REMARK    4  A    between atoms: C_3  and  C_6
REMARK    5  A    between atoms: N_5  and  C_8
REMARK    6  A    between atoms: C_8  and  C_11
REMARK    7  A    between atoms: C_11  and  C_12
REMARK    8  A    between atoms: C_18  and  C_21
REMARK    9  A    between atoms: N_20  and  C_23
REMARK   10  A    between atoms: C_23  and  C_26
REMARK   11  A    between atoms: C_26  and  C_27
REMARK   12  A    between atoms: C_33  and  C_34
REMARK   13  A    between atoms: C_34  and  O_35
REMARK                            x       y       z     vdW  Elec       q    Type
REMARK                         _______ _______ _______ _____ _____    ______ ____
ROOT
ATOM      1  N   UNL     1      33.361 -13.357 -24.205  0.00  0.00    +0.400 N 
ATOM      2  H   UNL     1      32.525 -13.367 -23.622  0.00  0.00    -0.078 HD
ENDROOT
BRANCH   1   3
ATOM      3  C   UNL     1      33.838 -11.982 -24.293  0.00  0.00    +0.011 C 
BRANCH   3   6
ATOM      4  O   UNL     1      31.944 -11.531 -22.886  0.00  0.00    -0.277 OA
ATOM      5  N   UNL     1      33.304  -9.730 -23.417  0.00  0.00    -0.282 N 
ATOM      6  C   UNL     1      32.936 -11.081 -23.467  0.00  0.00    +0.205 C 
ATOM      7  C   UNL     1      34.480  -9.213 -24.110  0.00  0.00    +0.115 C 
BRANCH   5   8
ATOM      8  C   UNL     1      32.540  -8.739 -22.667  0.00  0.00    +0.064 C 
ATOM      9  C   UNL     1      32.383  -9.252 -21.225  0.00  0.00    +0.020 C 
ATOM     10  C   UNL     1      31.144  -8.599 -23.292  0.00  0.00    +0.020 C 
BRANCH   8  11
ATOM     11  C   UNL     1      33.293  -7.383 -22.627  0.00  0.00    +0.045 C 
BRANCH  11  12
ATOM     12  C   UNL     1      32.579  -6.212 -23.264  0.00  0.00    -0.021 C 
ATOM     13  C   UNL     1      32.732  -5.959 -24.628  0.00  0.00    -0.004 C 
ATOM     14  C   UNL     1      31.768  -5.385 -22.488  0.00  0.00    -0.004 C 
ATOM     15  C   UNL     1      32.074  -4.879 -25.215  0.00  0.00    -0.000 C 
ATOM     16  C   UNL     1      31.108  -4.304 -23.077  0.00  0.00    -0.000 C 
ATOM     17  C   UNL     1      31.261  -4.052 -24.439  0.00  0.00    -0.000 C 
ENDBRANCH  11  12
ENDBRANCH   8  11
ENDBRANCH   5   8
ENDBRANCH   3   6
ENDBRANCH   1   3
BRANCH   1  18
ATOM     18  C   UNL     1      34.372 -14.214 -23.585  0.00  0.00    +0.011 C 
BRANCH  18  21
ATOM     19  O   UNL     1      32.746 -14.920 -21.965  0.00  0.00    -0.277 OA
ATOM     20  N   UNL     1      34.197 -16.542 -22.765  0.00  0.00    -0.282 N 
ATOM     21  C   UNL     1      33.689 -15.239 -22.696  0.00  0.00    +0.205 C 
ATOM     22  C   UNL     1      34.805 -17.081 -23.979  0.00  0.00    +0.115 C 
BRANCH  20  23
ATOM     23  C   UNL     1      34.156 -17.458 -21.631  0.00  0.00    +0.064 C 
ATOM     24  C   UNL     1      35.261 -17.076 -20.634  0.00  0.00    +0.020 C 
ATOM     25  C   UNL     1      32.793 -17.298 -20.938  0.00  0.00    +0.020 C 
BRANCH  23  26
ATOM     26  C   UNL     1      34.295 -18.927 -22.110  0.00  0.00    +0.045 C 
BRANCH  26  27
ATOM     27  C   UNL     1      34.416 -19.970 -21.020  0.00  0.00    -0.021 C 
ATOM     28  C   UNL     1      33.267 -20.499 -20.433  0.00  0.00    -0.004 C 
ATOM     29  C   UNL     1      35.675 -20.401 -20.604  0.00  0.00    -0.004 C 
ATOM     30  C   UNL     1      33.377 -21.461 -19.428  0.00  0.00    -0.000 C 
ATOM     31  C   UNL     1      35.786 -21.363 -19.600  0.00  0.00    -0.000 C 
ATOM     32  C   UNL     1      34.637 -21.892 -19.012  0.00  0.00    -0.000 C 
ENDBRANCH  26  27
ENDBRANCH  23  26
ENDBRANCH  20  23
ENDBRANCH  18  21
ENDBRANCH   1  18
BRANCH   1  33
ATOM     33  C   UNL     1      33.010 -13.865 -25.533  0.00  0.00    -0.044 C 
BRANCH  33  34
ATOM     34  C   UNL     1      33.423 -12.878 -26.613  0.00  0.00    +0.115 C 
BRANCH  34  35
ATOM     35  O   UNL     1      33.844 -13.605 -27.759  0.00  0.00    -0.384 OA
ATOM     36  H   UNL     1      34.186 -14.472 -27.485  0.00  0.00    +0.210 HD
ENDBRANCH  34  35
ENDBRANCH  33  34
ENDBRANCH   1  33
TORSDOF 13
ENDMDL
MODEL 3
REMARK VINA RESULT:      -9.7      1.764     11.014
REMARK  Name = 4621
REMARK  13 active torsions:
REMARK  status: ('A' for Active; 'I' for Inactive)
REMARK    1  A    between atoms: N_1  and  C_3
REMARK    2  A    between atoms: N_1  and  C_18
REMARK    3  A    between atoms: N_1  and  C_33
REMARK    4  A    between atoms: C_3  and  C_6
REMARK    5  A    between atoms: N_5  and  C_8
REMARK    6  A    between atoms: C_8  and  C_11
REMARK    7  A    between atoms: C_11  and  C_12
REMARK    8  A    between atoms: C_18  and  C_21
REMARK    9  A    between atoms: N_20  and  C_23
REMARK   10  A    between atoms: C_23  and  C_26
REMARK   11  A    between atoms: C_26  and  C_27
REMARK   12  A    between atoms: C_33  and  C_34
REMARK   13  A    between atoms: C_34  and  O_35
REMARK                            x       y       z     vdW  Elec       q    Type
REMARK                         _______ _______ _______ _____ _____    ______ ____
ROOT
ATOM      1  N   UNL     1      32.698 -11.573 -22.759  0.00  0.00    +0.400 N 
ATOM      2  H   UNL     1      33.319 -11.582 -21.950  0.00  0.00    -0.078 HD
ENDROOT
BRANCH   1   3
ATOM      3  C   UNL     1      32.615 -12.931 -23.283  0.00  0.00    +0.011 C 
BRANCH   3   6
ATOM      4  O   UNL     1      32.605 -13.653 -20.992  0.00  0.00    -0.277 OA
ATOM      5  N   UNL     1      33.468 -15.136 -22.552  0.00  0.00    -0.282 N 
ATOM      6  C   UNL     1      32.886 -13.922 -22.163  0.00  0.00    +0.205 C 
ATOM      7  C   UNL     1      33.794 -15.438 -23.943  0.00  0.00    +0.115 C 
BRANCH   5   8
ATOM      8  C   UNL     1      33.790 -16.189 -21.596  0.00  0.00    +0.064 C 
ATOM      9  C   UNL     1      32.490 -16.596 -20.880  0.00  0.00    +0.020 C 
ATOM     10  C   UNL     1      34.773 -15.639 -20.551  0.00  0.00    +0.020 C 
BRANCH   8  11
ATOM     11  C   UNL     1      34.360 -17.434 -22.325  0.00  0.00    +0.045 C 
BRANCH  11  12
ATOM     12  C   UNL     1      34.603 -18.652 -21.461  0.00  0.00    -0.021 C 
ATOM     13  C   UNL     1      33.526 -19.417 -21.014  0.00  0.00    -0.004 C 
ATOM     14  C   UNL     1      35.905 -19.009 -21.112  0.00  0.00    -0.004 C 
ATOM     15  C   UNL     1      33.750 -20.540 -20.218  0.00  0.00    -0.000 C 
ATOM     16  C   UNL     1      36.130 -20.134 -20.317  0.00  0.00    -0.000 C 
ATOM     17  C   UNL     1      35.052 -20.898 -19.870  0.00  0.00    -0.000 C 
ENDBRANCH  11  12
ENDBRANCH   8  11
ENDBRANCH   5   8
ENDBRANCH   3   6
ENDBRANCH   1   3
BRANCH   1  18
ATOM     18  C   UNL     1      31.379 -11.104 -22.330  0.00  0.00    +0.011 C 
BRANCH  18  21
ATOM     19  O   UNL     1      30.847  -9.016 -23.390  0.00  0.00    -0.277 OA
ATOM     20  N   UNL     1      31.869  -8.903 -21.312  0.00  0.00    -0.282 N 
ATOM     21  C   UNL     1      31.332  -9.588 -22.409  0.00  0.00    +0.205 C 
ATOM     22  C   UNL     1      31.849  -9.454 -19.959  0.00  0.00    +0.115 C 
BRANCH  20  23
ATOM     23  C   UNL     1      32.487  -7.588 -21.438  0.00  0.00    +0.064 C 
ATOM     24  C   UNL     1      31.428  -6.574 -21.897  0.00  0.00    +0.020 C 
ATOM     25  C   UNL     1      33.000  -7.168 -20.050  0.00  0.00    +0.020 C 
BRANCH  23  26
ATOM     26  C   UNL     1      33.693  -7.643 -22.412  0.00  0.00    +0.045 C 
BRANCH  26  27
ATOM     27  C   UNL     1      33.560  -6.823 -23.677  0.00  0.00    -0.021 C 
ATOM     28  C   UNL     1      34.593  -6.815 -24.614  0.00  0.00    -0.004 C 
ATOM     29  C   UNL     1      32.404  -6.077 -23.905  0.00  0.00    -0.004 C 
ATOM     30  C   UNL     1      34.470  -6.060 -25.780  0.00  0.00    -0.000 C 
ATOM     31  C   UNL     1      32.280  -5.322 -25.072  0.00  0.00    -0.000 C 
ATOM     32  C   UNL     1      33.314  -5.314 -26.009  0.00  0.00    -0.000 C 
ENDBRANCH  26  27
ENDBRANCH  23  26
ENDBRANCH  20  23
ENDBRANCH  18  21
ENDBRANCH   1  18
BRANCH   1  33
ATOM     33  C   UNL     1      33.257 -10.666 -23.764  0.00  0.00    -0.044 C 
BRANCH  33  34
ATOM     34  C   UNL     1      34.088 -11.436 -24.778  0.00  0.00    +0.115 C 
BRANCH  34  35
ATOM     35  O   UNL     1      35.261 -10.687 -25.069  0.00  0.00    -0.384 OA
ATOM     36  H   UNL     1      36.044 -11.196 -24.800  0.00  0.00    +0.210 HD
ENDBRANCH  34  35
ENDBRANCH  33  34
ENDBRANCH   1  33
TORSDOF 13
ENDMDL
MODEL 4
REMARK VINA RESULT:      -9.7      1.250     11.351
REMARK  Name = 4621
REMARK  13 active torsions:
REMARK  status: ('A' for Active; 'I' for Inactive)
REMARK    1  A    between atoms: N_1  and  C_3
REMARK    2  A    between atoms: N_1  and  C_18
REMARK    3  A    between atoms: N_1  and  C_33
REMARK    4  A    between atoms: C_3  and  C_6
REMARK    5  A    between atoms: N_5  and  C_8
REMARK    6  A    between atoms: C_8  and  C_11
REMARK    7  A    between atoms: C_11  and  C_12
REMARK    8  A    between atoms: C_18  and  C_21
REMARK    9  A    between atoms: N_20  and  C_23
REMARK   10  A    between atoms: C_23  and  C_26
REMARK   11  A    between atoms: C_26  and  C_27
REMARK   12  A    between atoms: C_33  and  C_34
REMARK   13  A    between atoms: C_34  and  O_35
REMARK                            x       y       z     vdW  Elec       q    Type
REMARK                         _______ _______ _______ _____ _____    ______ ____
ROOT
ATOM      1  N   UNL     1      33.168 -13.680 -23.480  0.00  0.00    +0.400 N 
ATOM      2  H   UNL     1      32.533 -13.346 -24.205  0.00  0.00    -0.078 HD
ENDROOT
BRANCH   1   3
ATOM      3  C   UNL     1      34.227 -14.448 -24.123  0.00  0.00    +0.011 C 
BRANCH   3   6
ATOM      4  O   UNL     1      35.016 -15.374 -22.052  0.00  0.00    -0.277 OA
ATOM      5  N   UNL     1      34.592 -16.871 -23.771  0.00  0.00    -0.282 N 
ATOM      6  C   UNL     1      34.648 -15.588 -23.210  0.00  0.00    +0.205 C 
ATOM      7  C   UNL     1      34.155 -17.106 -25.145  0.00  0.00    +0.115 C 
BRANCH   5   8
ATOM      8  C   UNL     1      34.964 -18.067 -23.025  0.00  0.00    +0.064 C 
ATOM      9  C   UNL     1      36.481 -18.017 -22.772  0.00  0.00    +0.020 C 
ATOM     10  C   UNL     1      34.648 -19.309 -23.871  0.00  0.00    +0.020 C 
BRANCH   8  11
ATOM     11  C   UNL     1      34.239 -18.104 -21.654  0.00  0.00    +0.045 C 
BRANCH  11  12
ATOM     12  C   UNL     1      34.343 -19.403 -20.885  0.00  0.00    -0.021 C 
ATOM     13  C   UNL     1      33.186 -20.069 -20.481  0.00  0.00    -0.004 C 
ATOM     14  C   UNL     1      35.596 -19.934 -20.582  0.00  0.00    -0.004 C 
ATOM     15  C   UNL     1      33.282 -21.267 -19.773  0.00  0.00    -0.000 C 
ATOM     16  C   UNL     1      35.692 -21.133 -19.874  0.00  0.00    -0.000 C 
ATOM     17  C   UNL     1      34.535 -21.798 -19.470  0.00  0.00    -0.000 C 
ENDBRANCH  11  12
ENDBRANCH   8  11
ENDBRANCH   5   8
ENDBRANCH   3   6
ENDBRANCH   1   3
BRANCH   1  18
ATOM     18  C   UNL     1      33.724 -12.523 -22.778  0.00  0.00    +0.011 C 
BRANCH  18  21
ATOM     19  O   UNL     1      33.699 -11.192 -24.777  0.00  0.00    -0.277 OA
ATOM     20  N   UNL     1      32.856 -10.207 -22.855  0.00  0.00    -0.282 N 
ATOM     21  C   UNL     1      33.434 -11.261 -23.573  0.00  0.00    +0.205 C 
ATOM     22  C   UNL     1      31.985 -10.428 -21.704  0.00  0.00    +0.115 C 
BRANCH  20  23
ATOM     23  C   UNL     1      33.082  -8.809 -23.203  0.00  0.00    +0.064 C 
ATOM     24  C   UNL     1      33.383  -8.012 -21.924  0.00  0.00    +0.020 C 
ATOM     25  C   UNL     1      34.311  -8.739 -24.124  0.00  0.00    +0.020 C 
BRANCH  23  26
ATOM     26  C   UNL     1      31.861  -8.232 -23.967  0.00  0.00    +0.045 C 
BRANCH  26  27
ATOM     27  C   UNL     1      31.647  -6.739 -23.841  0.00  0.00    -0.021 C 
ATOM     28  C   UNL     1      30.986  -6.222 -22.727  0.00  0.00    -0.004 C 
ATOM     29  C   UNL     1      32.111  -5.882 -24.838  0.00  0.00    -0.004 C 
ATOM     30  C   UNL     1      30.789  -4.846 -22.610  0.00  0.00    -0.000 C 
ATOM     31  C   UNL     1      31.915  -4.506 -24.721  0.00  0.00    -0.000 C 
ATOM     32  C   UNL     1      31.253  -3.988 -23.607  0.00  0.00    -0.000 C 
ENDBRANCH  26  27
ENDBRANCH  23  26
ENDBRANCH  20  23
ENDBRANCH  18  21
ENDBRANCH   1  18
BRANCH   1  33
ATOM     33  C   UNL     1      32.411 -14.522 -22.551  0.00  0.00    -0.044 C 
BRANCH  33  34
ATOM     34  C   UNL     1      32.335 -13.873 -21.178  0.00  0.00    +0.115 C 
BRANCH  34  35
ATOM     35  O   UNL     1      32.748 -14.820 -20.202  0.00  0.00    -0.384 OA
ATOM     36  H   UNL     1      31.966 -15.216 -19.785  0.00  0.00    +0.210 HD
ENDBRANCH  34  35
ENDBRANCH  33  34
ENDBRANCH   1  33
TORSDOF 13
ENDMDL
MODEL 5
REMARK VINA RESULT:      -9.7      1.480      2.416
REMARK  Name = 4621
REMARK  13 active torsions:
REMARK  status: ('A' for Active; 'I' for Inactive)
REMARK    1  A    between atoms: N_1  and  C_3
REMARK    2  A    between atoms: N_1  and  C_18
REMARK    3  A    between atoms: N_1  and  C_33
REMARK    4  A    between atoms: C_3  and  C_6
REMARK    5  A    between atoms: N_5  and  C_8
REMARK    6  A    between atoms: C_8  and  C_11
REMARK    7  A    between atoms: C_11  and  C_12
REMARK    8  A    between atoms: C_18  and  C_21
REMARK    9  A    between atoms: N_20  and  C_23
REMARK   10  A    between atoms: C_23  and  C_26
REMARK   11  A    between atoms: C_26  and  C_27
REMARK   12  A    between atoms: C_33  and  C_34
REMARK   13  A    between atoms: C_34  and  O_35
REMARK                            x       y       z     vdW  Elec       q    Type
REMARK                         _______ _______ _______ _____ _____    ______ ____
ROOT
ATOM      1  N   UNL     1      33.048 -12.434 -24.796  0.00  0.00    +0.400 N 
ATOM      2  H   UNL     1      32.214 -11.859 -24.906  0.00  0.00    -0.078 HD
ENDROOT
BRANCH   1   3
ATOM      3  C   UNL     1      33.827 -11.900 -23.685  0.00  0.00    +0.011 C 
BRANCH   3   6
ATOM      4  O   UNL     1      32.197 -10.483 -22.634  0.00  0.00    -0.277 OA
ATOM      5  N   UNL     1      33.997  -9.432 -23.649  0.00  0.00    -0.282 N 
ATOM      6  C   UNL     1      33.253 -10.556 -23.267  0.00  0.00    +0.205 C 
ATOM      7  C   UNL     1      35.246  -9.536 -24.399  0.00  0.00    +0.115 C 
BRANCH   5   8
ATOM      8  C   UNL     1      33.580  -8.073 -23.324  0.00  0.00    +0.064 C 
ATOM      9  C   UNL     1      34.683  -7.110 -23.796  0.00  0.00    +0.020 C 
ATOM     10  C   UNL     1      33.433  -7.940 -21.801  0.00  0.00    +0.020 C 
BRANCH   8  11
ATOM     11  C   UNL     1      32.265  -7.712 -24.064  0.00  0.00    +0.045 C 
BRANCH  11  12
ATOM     12  C   UNL     1      31.948  -6.237 -24.168  0.00  0.00    -0.021 C 
ATOM     13  C   UNL     1      31.357  -5.572 -23.093  0.00  0.00    -0.004 C 
ATOM     14  C   UNL     1      32.247  -5.541 -25.339  0.00  0.00    -0.004 C 
ATOM     15  C   UNL     1      31.065  -4.212 -23.190  0.00  0.00    -0.000 C 
ATOM     16  C   UNL     1      31.956  -4.180 -25.435  0.00  0.00    -0.000 C 
ATOM     17  C   UNL     1      31.365  -3.516 -24.360  0.00  0.00    -0.000 C 
ENDBRANCH  11  12
ENDBRANCH   8  11
ENDBRANCH   5   8
ENDBRANCH   3   6
ENDBRANCH   1   3
BRANCH   1  18
ATOM     18  C   UNL     1      32.632 -13.810 -24.519  0.00  0.00    +0.011 C 
BRANCH  18  21
ATOM     19  O   UNL     1      34.764 -14.715 -23.882  0.00  0.00    -0.277 OA
ATOM     20  N   UNL     1      33.108 -14.697 -22.259  0.00  0.00    -0.282 N 
ATOM     21  C   UNL     1      33.608 -14.445 -23.543  0.00  0.00    +0.205 C 
ATOM     22  C   UNL     1      32.068 -13.874 -21.648  0.00  0.00    +0.115 C 
BRANCH  20  23
ATOM     23  C   UNL     1      33.590 -15.800 -21.436  0.00  0.00    +0.064 C 
ATOM     24  C   UNL     1      34.689 -15.285 -20.493  0.00  0.00    +0.020 C 
ATOM     25  C   UNL     1      32.415 -16.309 -20.585  0.00  0.00    +0.020 C 
BRANCH  23  26
ATOM     26  C   UNL     1      34.095 -16.967 -22.326  0.00  0.00    +0.045 C 
BRANCH  26  27
ATOM     27  C   UNL     1      34.600 -18.189 -21.591  0.00  0.00    -0.021 C 
ATOM     28  C   UNL     1      33.698 -19.151 -21.137  0.00  0.00    -0.004 C 
ATOM     29  C   UNL     1      35.967 -18.353 -21.368  0.00  0.00    -0.004 C 
ATOM     30  C   UNL     1      34.163 -20.279 -20.460  0.00  0.00    -0.000 C 
ATOM     31  C   UNL     1      36.432 -19.481 -20.691  0.00  0.00    -0.000 C 
ATOM     32  C   UNL     1      35.530 -20.443 -20.237  0.00  0.00    -0.000 C 
ENDBRANCH  26  27
ENDBRANCH  23  26
ENDBRANCH  20  23
ENDBRANCH  18  21
ENDBRANCH   1  18
BRANCH   1  33
ATOM     33  C   UNL     1      33.820 -12.378 -26.040  0.00  0.00    -0.044 C 
BRANCH  33  34
ATOM     34  C   UNL     1      33.236 -13.324 -27.077  0.00  0.00    +0.115 C 
BRANCH  34  35
ATOM     35  O   UNL     1      34.193 -13.514 -28.111  0.00  0.00    -0.384 OA
ATOM     36  H   UNL     1      33.734 -13.645 -28.956  0.00  0.00    +0.210 HD
ENDBRANCH  34  35
ENDBRANCH  33  34
ENDBRANCH   1  33
TORSDOF 13
ENDMDL
MODEL 6
REMARK VINA RESULT:      -9.6      1.809     11.457
REMARK  Name = 4621
REMARK  13 active torsions:
REMARK  status: ('A' for Active; 'I' for Inactive)
REMARK    1  A    between atoms: N_1  and  C_3
REMARK    2  A    between atoms: N_1  and  C_18
REMARK    3  A    between atoms: N_1  and  C_33
REMARK    4  A    between atoms: C_3  and  C_6
REMARK    5  A    between atoms: N_5  and  C_8
REMARK    6  A    between atoms: C_8  and  C_11
REMARK    7  A    between atoms: C_11  and  C_12
REMARK    8  A    between atoms: C_18  and  C_21
REMARK    9  A    between atoms: N_20  and  C_23
REMARK   10  A    between atoms: C_23  and  C_26
REMARK   11  A    between atoms: C_26  and  C_27
REMARK   12  A    between atoms: C_33  and  C_34
REMARK   13  A    between atoms: C_34  and  O_35
REMARK                            x       y       z     vdW  Elec       q    Type
REMARK                         _______ _______ _______ _____ _____    ______ ____
ROOT
ATOM      1  N   UNL     1      32.922 -11.657 -22.842  0.00  0.00    +0.400 N 
ATOM      2  H   UNL     1      33.819 -11.702 -22.359  0.00  0.00    -0.078 HD
ENDROOT
BRANCH   1   3
ATOM      3  C   UNL     1      32.601 -12.993 -23.332  0.00  0.00    +0.011 C 
BRANCH   3   6
ATOM      4  O   UNL     1      32.357 -13.802 -21.083  0.00  0.00    -0.277 OA
ATOM      5  N   UNL     1      33.531 -15.152 -22.558  0.00  0.00    -0.282 N 
ATOM      6  C   UNL     1      32.807 -14.003 -22.215  0.00  0.00    +0.205 C 
ATOM      7  C   UNL     1      34.056 -15.374 -23.902  0.00  0.00    +0.115 C 
BRANCH   5   8
ATOM      8  C   UNL     1      33.812 -16.213 -21.598  0.00  0.00    +0.064 C 
ATOM      9  C   UNL     1      32.490 -16.598 -20.913  0.00  0.00    +0.020 C 
ATOM     10  C   UNL     1      34.781 -15.684 -20.530  0.00  0.00    +0.020 C 
BRANCH   8  11
ATOM     11  C   UNL     1      34.376 -17.467 -22.318  0.00  0.00    +0.045 C 
BRANCH  11  12
ATOM     12  C   UNL     1      34.586 -18.688 -21.451  0.00  0.00    -0.021 C 
ATOM     13  C   UNL     1      35.879 -19.080 -21.100  0.00  0.00    -0.004 C 
ATOM     14  C   UNL     1      33.489 -19.422 -21.002  0.00  0.00    -0.004 C 
ATOM     15  C   UNL     1      36.073 -20.206 -20.301  0.00  0.00    -0.000 C 
ATOM     16  C   UNL     1      33.684 -20.548 -20.201  0.00  0.00    -0.000 C 
ATOM     17  C   UNL     1      34.976 -20.939 -19.851  0.00  0.00    -0.000 C 
ENDBRANCH  11  12
ENDBRANCH   8  11
ENDBRANCH   5   8
ENDBRANCH   3   6
ENDBRANCH   1   3
BRANCH   1  18
ATOM     18  C   UNL     1      31.905 -11.198 -21.896  0.00  0.00    +0.011 C 
BRANCH  18  21
ATOM     19  O   UNL     1      30.811  -9.541 -23.248  0.00  0.00    -0.277 OA
ATOM     20  N   UNL     1      31.940  -8.780 -21.371  0.00  0.00    -0.282 N 
ATOM     21  C   UNL     1      31.494  -9.778 -22.247  0.00  0.00    +0.205 C 
ATOM     22  C   UNL     1      32.159  -9.028 -19.949  0.00  0.00    +0.115 C 
BRANCH  20  23
ATOM     23  C   UNL     1      32.217  -7.419 -21.814  0.00  0.00    +0.064 C 
ATOM     24  C   UNL     1      32.307  -6.497 -20.588  0.00  0.00    +0.020 C 
ATOM     25  C   UNL     1      33.579  -7.418 -22.528  0.00  0.00    +0.020 C 
BRANCH  23  26
ATOM     26  C   UNL     1      31.135  -6.939 -22.818  0.00  0.00    +0.045 C 
BRANCH  26  27
ATOM     27  C   UNL     1      31.431  -5.642 -23.539  0.00  0.00    -0.021 C 
ATOM     28  C   UNL     1      31.955  -5.668 -24.831  0.00  0.00    -0.004 C 
ATOM     29  C   UNL     1      31.177  -4.422 -22.912  0.00  0.00    -0.004 C 
ATOM     30  C   UNL     1      32.227  -4.472 -25.497  0.00  0.00    -0.000 C 
ATOM     31  C   UNL     1      31.449  -3.227 -23.578  0.00  0.00    -0.000 C 
ATOM     32  C   UNL     1      31.973  -3.252 -24.870  0.00  0.00    -0.000 C 
ENDBRANCH  26  27
ENDBRANCH  23  26
ENDBRANCH  20  23
ENDBRANCH  18  21
ENDBRANCH   1  18
BRANCH   1  33
ATOM     33  C   UNL     1      33.042 -10.715 -23.957  0.00  0.00    -0.044 C 
BRANCH  33  34
ATOM     34  C   UNL     1      34.353 -10.924 -24.698  0.00  0.00    +0.115 C 
BRANCH  34  35
ATOM     35  O   UNL     1      35.362 -10.146 -24.068  0.00  0.00    -0.384 OA
ATOM     36  H   UNL     1      35.167  -9.203 -24.192  0.00  0.00    +0.210 HD
ENDBRANCH  34  35
ENDBRANCH  33  34
ENDBRANCH   1  33
TORSDOF 13
ENDMDL
MODEL 7
REMARK VINA RESULT:      -9.5      0.973     11.187
REMARK  Name = 4621
REMARK  13 active torsions:
REMARK  status: ('A' for Active; 'I' for Inactive)
REMARK    1  A    between atoms: N_1  and  C_3
REMARK    2  A    between atoms: N_1  and  C_18
REMARK    3  A    between atoms: N_1  and  C_33
REMARK    4  A    between atoms: C_3  and  C_6
REMARK    5  A    between atoms: N_5  and  C_8
REMARK    6  A    between atoms: C_8  and  C_11
REMARK    7  A    between atoms: C_11  and  C_12
REMARK    8  A    between atoms: C_18  and  C_21
REMARK    9  A    between atoms: N_20  and  C_23
REMARK   10  A    between atoms: C_23  and  C_26
REMARK   11  A    between atoms: C_26  and  C_27
REMARK   12  A    between atoms: C_33  and  C_34
REMARK   13  A    between atoms: C_34  and  O_35
REMARK                            x       y       z     vdW  Elec       q    Type
REMARK                         _______ _______ _______ _____ _____    ______ ____
ROOT
ATOM      1  N   UNL     1      33.922 -13.537 -24.295  0.00  0.00    +0.400 N 
ATOM      2  H   UNL     1      34.896 -13.837 -24.317  0.00  0.00    -0.078 HD
ENDROOT
BRANCH   1   3
ATOM      3  C   UNL     1      33.082 -14.724 -24.188  0.00  0.00    +0.011 C 
BRANCH   3   6
ATOM      4  O   UNL     1      33.765 -15.448 -22.001  0.00  0.00    -0.277 OA
ATOM      5  N   UNL     1      34.218 -16.882 -23.766  0.00  0.00    -0.282 N 
ATOM      6  C   UNL     1      33.712 -15.700 -23.208  0.00  0.00    +0.205 C 
ATOM      7  C   UNL     1      34.147 -17.165 -25.197  0.00  0.00    +0.115 C 
BRANCH   5   8
ATOM      8  C   UNL     1      34.852 -17.918 -22.959  0.00  0.00    +0.064 C 
ATOM      9  C   UNL     1      36.322 -17.518 -22.741  0.00  0.00    +0.020 C 
ATOM     10  C   UNL     1      34.815 -19.249 -23.725  0.00  0.00    +0.020 C 
BRANCH   8  11
ATOM     11  C   UNL     1      34.164 -18.030 -21.573  0.00  0.00    +0.045 C 
BRANCH  11  12
ATOM     12  C   UNL     1      34.336 -19.350 -20.855  0.00  0.00    -0.021 C 
ATOM     13  C   UNL     1      35.616 -19.823 -20.562  0.00  0.00    -0.004 C 
ATOM     14  C   UNL     1      33.216 -20.093 -20.484  0.00  0.00    -0.004 C 
ATOM     15  C   UNL     1      35.775 -21.040 -19.899  0.00  0.00    -0.000 C 
ATOM     16  C   UNL     1      33.375 -21.310 -19.820  0.00  0.00    -0.000 C 
ATOM     17  C   UNL     1      34.654 -21.783 -19.528  0.00  0.00    -0.000 C 
ENDBRANCH  11  12
ENDBRANCH   8  11
ENDBRANCH   5   8
ENDBRANCH   3   6
ENDBRANCH   1   3
BRANCH   1  18
ATOM     18  C   UNL     1      33.729 -12.664 -23.136  0.00  0.00    +0.011 C 
BRANCH  18  21
ATOM     19  O   UNL     1      34.050 -10.774 -24.583  0.00  0.00    -0.277 OA
ATOM     20  N   UNL     1      32.495 -10.534 -22.880  0.00  0.00    -0.282 N 
ATOM     21  C   UNL     1      33.453 -11.247 -23.611  0.00  0.00    +0.205 C 
ATOM     22  C   UNL     1      31.378 -11.191 -22.206  0.00  0.00    +0.115 C 
BRANCH  20  23
ATOM     23  C   UNL     1      32.540  -9.084 -22.738  0.00  0.00    +0.064 C 
ATOM     24  C   UNL     1      32.349  -8.715 -21.259  0.00  0.00    +0.020 C 
ATOM     25  C   UNL     1      33.930  -8.604 -23.187  0.00  0.00    +0.020 C 
BRANCH  23  26
ATOM     26  C   UNL     1      31.473  -8.413 -23.642  0.00  0.00    +0.045 C 
BRANCH  26  27
ATOM     27  C   UNL     1      31.444  -6.900 -23.621  0.00  0.00    -0.021 C 
ATOM     28  C   UNL     1      32.001  -6.178 -24.677  0.00  0.00    -0.004 C 
ATOM     29  C   UNL     1      30.862  -6.229 -22.546  0.00  0.00    -0.004 C 
ATOM     30  C   UNL     1      31.974  -4.784 -24.658  0.00  0.00    -0.000 C 
ATOM     31  C   UNL     1      30.835  -4.834 -22.527  0.00  0.00    -0.000 C 
ATOM     32  C   UNL     1      31.391  -4.112 -23.583  0.00  0.00    -0.000 C 
ENDBRANCH  26  27
ENDBRANCH  23  26
ENDBRANCH  20  23
ENDBRANCH  18  21
ENDBRANCH   1  18
BRANCH   1  33
ATOM     33  C   UNL     1      33.630 -12.810 -25.532  0.00  0.00    -0.044 C 
BRANCH  33  34
ATOM     34  C   UNL     1      33.086 -13.753 -26.593  0.00  0.00    +0.115 C 
BRANCH  34  35
ATOM     35  O   UNL     1      33.882 -13.630 -27.764  0.00  0.00    -0.384 OA
ATOM     36  H   UNL     1      33.343 -13.267 -28.485  0.00  0.00    +0.210 HD
ENDBRANCH  34  35
ENDBRANCH  33  34
ENDBRANCH   1  33
TORSDOF 13
ENDMDL
MODEL 8
REMARK VINA RESULT:      -9.4      1.459     10.849
REMARK  Name = 4621
REMARK  13 active torsions:
REMARK  status: ('A' for Active; 'I' for Inactive)
REMARK    1  A    between atoms: N_1  and  C_3
REMARK    2  A    between atoms: N_1  and  C_18
REMARK    3  A    between atoms: N_1  and  C_33
REMARK    4  A    between atoms: C_3  and  C_6
REMARK    5  A    between atoms: N_5  and  C_8
REMARK    6  A    between atoms: C_8  and  C_11
REMARK    7  A    between atoms: C_11  and  C_12
REMARK    8  A    between atoms: C_18  and  C_21
REMARK    9  A    between atoms: N_20  and  C_23
REMARK   10  A    between atoms: C_23  and  C_26
REMARK   11  A    between atoms: C_26  and  C_27
REMARK   12  A    between atoms: C_33  and  C_34
REMARK   13  A    between atoms: C_34  and  O_35
REMARK                            x       y       z     vdW  Elec       q    Type
REMARK                         _______ _______ _______ _____ _____    ______ ____
ROOT
ATOM      1  N   UNL     1      33.816 -12.980 -24.834  0.00  0.00    +0.400 N 
ATOM      2  H   UNL     1      34.649 -13.274 -25.343  0.00  0.00    -0.078 HD
ENDROOT
BRANCH   1   3
ATOM      3  C   UNL     1      34.152 -12.897 -23.417  0.00  0.00    +0.011 C 
BRANCH   3   6
ATOM      4  O   UNL     1      35.118 -15.095 -23.368  0.00  0.00    -0.277 OA
ATOM      5  N   UNL     1      33.537 -14.611 -21.743  0.00  0.00    -0.282 N 
ATOM      6  C   UNL     1      34.326 -14.298 -22.857  0.00  0.00    +0.205 C 
ATOM      7  C   UNL     1      32.605 -13.656 -21.150  0.00  0.00    +0.115 C 
BRANCH   5   8
ATOM      8  C   UNL     1      33.588 -15.914 -21.090  0.00  0.00    +0.064 C 
ATOM      9  C   UNL     1      32.166 -16.268 -20.622  0.00  0.00    +0.020 C 
ATOM     10  C   UNL     1      34.502 -15.827 -19.859  0.00  0.00    +0.020 C 
BRANCH   8  11
ATOM     11  C   UNL     1      34.063 -17.006 -22.085  0.00  0.00    +0.045 C 
BRANCH  11  12
ATOM     12  C   UNL     1      34.624 -18.267 -21.465  0.00  0.00    -0.021 C 
ATOM     13  C   UNL     1      33.760 -19.262 -21.005  0.00  0.00    -0.004 C 
ATOM     14  C   UNL     1      36.003 -18.434 -21.353  0.00  0.00    -0.004 C 
ATOM     15  C   UNL     1      34.277 -20.425 -20.434  0.00  0.00    -0.000 C 
ATOM     16  C   UNL     1      36.520 -19.598 -20.782  0.00  0.00    -0.000 C 
ATOM     17  C   UNL     1      35.657 -20.593 -20.323  0.00  0.00    -0.000 C 
ENDBRANCH  11  12
ENDBRANCH   8  11
ENDBRANCH   5   8
ENDBRANCH   3   6
ENDBRANCH   1   3
BRANCH   1  18
ATOM     18  C   UNL     1      33.397 -11.672 -25.341  0.00  0.00    +0.011 C 
BRANCH  18  21
ATOM     19  O   UNL     1      32.229 -11.001 -23.353  0.00  0.00    -0.277 OA
ATOM     20  N   UNL     1      33.920  -9.599 -24.096  0.00  0.00    -0.282 N 
ATOM     21  C   UNL     1      33.117 -10.743 -24.172  0.00  0.00    +0.205 C 
ATOM     22  C   UNL     1      35.293  -9.572 -24.593  0.00  0.00    +0.115 C 
BRANCH  20  23
ATOM     23  C   UNL     1      33.446  -8.349 -23.514  0.00  0.00    +0.064 C 
ATOM     24  C   UNL     1      33.097  -8.580 -22.035  0.00  0.00    +0.020 C 
ATOM     25  C   UNL     1      34.588  -7.322 -23.594  0.00  0.00    +0.020 C 
BRANCH  23  26
ATOM     26  C   UNL     1      32.234  -7.799 -24.313  0.00  0.00    +0.045 C 
BRANCH  26  27
ATOM     27  C   UNL     1      31.983  -6.312 -24.193  0.00  0.00    -0.021 C 
ATOM     28  C   UNL     1      31.410  -5.794 -23.032  0.00  0.00    -0.004 C 
ATOM     29  C   UNL     1      32.325  -5.460 -25.243  0.00  0.00    -0.004 C 
ATOM     30  C   UNL     1      31.179  -4.422 -22.920  0.00  0.00    -0.000 C 
ATOM     31  C   UNL     1      32.094  -4.089 -25.132  0.00  0.00    -0.000 C 
ATOM     32  C   UNL     1      31.521  -3.571 -23.970  0.00  0.00    -0.000 C 
ENDBRANCH  26  27
ENDBRANCH  23  26
ENDBRANCH  20  23
ENDBRANCH  18  21
ENDBRANCH   1  18
BRANCH   1  33
ATOM     33  C   UNL     1      32.761 -13.971 -25.055  0.00  0.00    -0.044 C 
BRANCH  33  34
ATOM     34  C   UNL     1      32.991 -14.719 -26.359  0.00  0.00    +0.115 C 
BRANCH  34  35
ATOM     35  O   UNL     1      33.885 -15.797 -26.115  0.00  0.00    -0.384 OA
ATOM     36  H   UNL     1      34.411 -15.607 -25.321  0.00  0.00    +0.210 HD
ENDBRANCH  34  35
ENDBRANCH  33  34
ENDBRANCH   1  33
TORSDOF 13
ENDMDL
MODEL 9
REMARK VINA RESULT:      -9.2      1.349      2.010
REMARK  Name = 4621
REMARK  13 active torsions:
REMARK  status: ('A' for Active; 'I' for Inactive)
REMARK    1  A    between atoms: N_1  and  C_3
REMARK    2  A    between atoms: N_1  and  C_18
REMARK    3  A    between atoms: N_1  and  C_33
REMARK    4  A    between atoms: C_3  and  C_6
REMARK    5  A    between atoms: N_5  and  C_8
REMARK    6  A    between atoms: C_8  and  C_11
REMARK    7  A    between atoms: C_11  and  C_12
REMARK    8  A    between atoms: C_18  and  C_21
REMARK    9  A    between atoms: N_20  and  C_23
REMARK   10  A    between atoms: C_23  and  C_26
REMARK   11  A    between atoms: C_26  and  C_27
REMARK   12  A    between atoms: C_33  and  C_34
REMARK   13  A    between atoms: C_34  and  O_35
REMARK                            x       y       z     vdW  Elec       q    Type
REMARK                         _______ _______ _______ _____ _____    ______ ____
ROOT
ATOM      1  N   UNL     1      33.728 -13.223 -23.044  0.00  0.00    +0.400 N 
ATOM      2  H   UNL     1      34.125 -12.723 -22.249  0.00  0.00    -0.078 HD
ENDROOT
BRANCH   1   3
ATOM      3  C   UNL     1      33.510 -12.264 -24.122  0.00  0.00    +0.011 C 
BRANCH   3   6
ATOM      4  O   UNL     1      31.929 -10.934 -22.897  0.00  0.00    -0.277 OA
ATOM      5  N   UNL     1      33.761  -9.825 -23.786  0.00  0.00    -0.282 N 
ATOM      6  C   UNL     1      32.981 -10.964 -23.541  0.00  0.00    +0.205 C 
ATOM      7  C   UNL     1      35.005  -9.878 -24.550  0.00  0.00    +0.115 C 
BRANCH   5   8
ATOM      8  C   UNL     1      33.388  -8.503 -23.296  0.00  0.00    +0.064 C 
ATOM      9  C   UNL     1      34.561  -7.546 -23.573  0.00  0.00    +0.020 C 
ATOM     10  C   UNL     1      33.160  -8.572 -21.779  0.00  0.00    +0.020 C 
BRANCH   8  11
ATOM     11  C   UNL     1      32.137  -7.975 -24.044  0.00  0.00    +0.045 C 
BRANCH  11  12
ATOM     12  C   UNL     1      31.866  -6.492 -23.916  0.00  0.00    -0.021 C 
ATOM     13  C   UNL     1      32.206  -5.628 -24.958  0.00  0.00    -0.004 C 
ATOM     14  C   UNL     1      31.277  -5.989 -22.757  0.00  0.00    -0.004 C 
ATOM     15  C   UNL     1      31.956  -4.261 -24.840  0.00  0.00    -0.000 C 
ATOM     16  C   UNL     1      31.027  -4.621 -22.639  0.00  0.00    -0.000 C 
ATOM     17  C   UNL     1      31.366  -3.758 -23.680  0.00  0.00    -0.000 C 
ENDBRANCH  11  12
ENDBRANCH   8  11
ENDBRANCH   5   8
ENDBRANCH   3   6
ENDBRANCH   1   3
BRANCH   1  18
ATOM     18  C   UNL     1      34.673 -14.260 -23.461  0.00  0.00    +0.011 C 
BRANCH  18  21
ATOM     19  O   UNL     1      34.319 -15.417 -21.387  0.00  0.00    -0.277 OA
ATOM     20  N   UNL     1      34.464 -16.720 -23.299  0.00  0.00    -0.282 N 
ATOM     21  C   UNL     1      34.469 -15.501 -22.609  0.00  0.00    +0.205 C 
ATOM     22  C   UNL     1      34.009 -16.836 -24.681  0.00  0.00    +0.115 C 
BRANCH  20  23
ATOM     23  C   UNL     1      34.914 -17.965 -22.687  0.00  0.00    +0.064 C 
ATOM     24  C   UNL     1      34.668 -19.125 -23.664  0.00  0.00    +0.020 C 
ATOM     25  C   UNL     1      36.426 -17.851 -22.431  0.00  0.00    +0.020 C 
BRANCH  23  26
ATOM     26  C   UNL     1      34.201 -18.195 -21.328  0.00  0.00    +0.045 C 
BRANCH  26  27
ATOM     27  C   UNL     1      34.390 -19.561 -20.705  0.00  0.00    -0.021 C 
ATOM     28  C   UNL     1      33.278 -20.326 -20.355  0.00  0.00    -0.004 C 
ATOM     29  C   UNL     1      35.676 -20.053 -20.482  0.00  0.00    -0.004 C 
ATOM     30  C   UNL     1      33.452 -21.586 -19.781  0.00  0.00    -0.000 C 
ATOM     31  C   UNL     1      35.850 -21.313 -19.908  0.00  0.00    -0.000 C 
ATOM     32  C   UNL     1      34.738 -22.079 -19.558  0.00  0.00    -0.000 C 
ENDBRANCH  26  27
ENDBRANCH  23  26
ENDBRANCH  20  23
ENDBRANCH  18  21
ENDBRANCH   1  18
BRANCH   1  33
ATOM     33  C   UNL     1      32.461 -13.827 -22.629  0.00  0.00    -0.044 C 
BRANCH  33  34
ATOM     34  C   UNL     1      31.932 -13.155 -21.372  0.00  0.00    +0.115 C 
BRANCH  34  35
ATOM     35  O   UNL     1      32.441 -13.843 -20.237  0.00  0.00    -0.384 OA
ATOM     36  H   UNL     1      33.176 -14.417 -20.510  0.00  0.00    +0.210 HD
ENDBRANCH  34  35
ENDBRANCH  33  34
ENDBRANCH   1  33
TORSDOF 13
ENDMDL
