MODEL 1
REMARK VINA RESULT:     -12.4      0.000      0.000
REMARK  Name = 11978813
REMARK  7 active torsions:
REMARK  status: ('A' for Active; 'I' for Inactive)
REMARK    1  A    between atoms: C_1  and  N_2
REMARK    2  A    between atoms: C_1  and  C_18
REMARK    3  A    between atoms: N_3  and  C_10
REMARK    4  A    between atoms: C_18  and  C_19
REMARK    5  A    between atoms: C_19  and  C_20
REMARK    6  A    between atoms: C_20  and  O_21
REMARK    7  A    between atoms: O_21  and  C_24
REMARK                            x       y       z     vdW  Elec       q    Type
REMARK                         _______ _______ _______ _____ _____    ______ ____
ROOT
ATOM      1  C   UNL     1      36.451 -21.725 -18.633  0.00  0.00    -0.077 C 
ENDROOT
BRANCH   1   2
ATOM      2  N   UNL     1      35.993 -20.560 -19.388  0.00  0.00    +0.389 N 
ATOM      3  N   UNL     1      35.278 -19.083 -21.727  0.00  0.00    -0.312 N 
ATOM      4  C   UNL     1      37.027 -20.118 -20.332  0.00  0.00    -0.055 C 
ATOM      5  C   UNL     1      34.755 -20.870 -20.113  0.00  0.00    -0.055 C 
ATOM      6  C   UNL     1      36.581 -18.864 -21.087  0.00  0.00    +0.068 C 
ATOM      7  C   UNL     1      34.233 -19.642 -20.863  0.00  0.00    +0.068 C 
ATOM      8  H   UNL     1      35.806 -19.806 -18.727  0.00  0.00    -0.080 HD
BRANCH   3  10
ATOM      9  S   UNL     1      34.087 -14.435 -23.326  0.00  0.00    -0.086 S 
ATOM     10  C   UNL     1      34.924 -18.257 -22.799  0.00  0.00    +0.048 C 
ATOM     11  C   UNL     1      34.681 -16.854 -22.636  0.00  0.00    +0.020 C 
ATOM     12  C   UNL     1      34.797 -18.812 -24.092  0.00  0.00    +0.015 C 
ATOM     13  C   UNL     1      34.330 -16.087 -23.752  0.00  0.00    +0.031 C 
ATOM     14  C   UNL     1      34.740 -16.049 -21.451  0.00  0.00    +0.009 C 
ATOM     15  C   UNL     1      34.447 -18.030 -25.184  0.00  0.00    +0.002 C 
ATOM     16  C   UNL     1      34.209 -16.662 -25.033  0.00  0.00    +0.007 C 
ATOM     17  C   UNL     1      34.441 -14.728 -21.686  0.00  0.00    +0.035 C 
ENDBRANCH   3  10
ENDBRANCH   1   2
BRANCH   1  18
ATOM     18  C   UNL     1      36.891 -21.309 -17.230  0.00  0.00    -0.019 C 
BRANCH  18  19
ATOM     19  C   UNL     1      37.631 -22.444 -16.524  0.00  0.00    +0.045 C 
BRANCH  19  20
ATOM     20  C   UNL     1      36.761 -23.109 -15.465  0.00  0.00    +0.205 C 
BRANCH  20  21
ATOM     21  O   UNL     1      35.770 -23.913 -16.091  0.00  0.00    -0.475 OA
BRANCH  21  24
ATOM     22  O   UNL     1      28.920 -22.351 -17.212  0.00  0.00    -0.270 OA
ATOM     23  N   UNL     1      31.141 -22.851 -16.866  0.00  0.00    -0.280 N 
ATOM     24  C   UNL     1      34.487 -23.789 -15.624  0.00  0.00    +0.140 C 
ATOM     25  C   UNL     1      33.479 -23.383 -16.489  0.00  0.00    +0.052 C 
ATOM     26  C   UNL     1      32.174 -23.261 -16.004  0.00  0.00    +0.054 C 
ATOM     27  C   UNL     1      34.213 -24.072 -14.291  0.00  0.00    +0.037 C 
ATOM     28  C   UNL     1      31.881 -23.541 -14.665  0.00  0.00    +0.014 C 
ATOM     29  C   UNL     1      32.907 -23.950 -13.807  0.00  0.00    +0.004 C 
ATOM     30  C   UNL     1      30.504 -23.402 -14.198  0.00  0.00    +0.006 C 
ATOM     31  C   UNL     1      29.828 -22.707 -16.464  0.00  0.00    +0.250 C 
ATOM     32  C   UNL     1      29.537 -23.010 -15.036  0.00  0.00    +0.058 C 
ATOM     33  H   UNL     1      31.366 -22.657 -17.806  0.00  0.00    +0.155 HD
ENDBRANCH  21  24
ENDBRANCH  20  21
ENDBRANCH  19  20
ENDBRANCH  18  19
ENDBRANCH   1  18
TORSDOF 7
ENDMDL
MODEL 2
REMARK VINA RESULT:     -11.7      0.927      2.127
REMARK  Name = 11978813
REMARK  7 active torsions:
REMARK  status: ('A' for Active; 'I' for Inactive)
REMARK    1  A    between atoms: C_1  and  N_2
REMARK    2  A    between atoms: C_1  and  C_18
REMARK    3  A    between atoms: N_3  and  C_10
REMARK    4  A    between atoms: C_18  and  C_19
REMARK    5  A    between atoms: C_19  and  C_20
REMARK    6  A    between atoms: C_20  and  O_21
REMARK    7  A    between atoms: O_21  and  C_24
REMARK                            x       y       z     vdW  Elec       q    Type
REMARK                         _______ _______ _______ _____ _____    ______ ____
ROOT
ATOM      1  C   UNL     1      36.464 -21.675 -19.925  0.00  0.00    -0.077 C 
ENDROOT
BRANCH   1   2
ATOM      2  N   UNL     1      35.918 -20.594 -20.743  0.00  0.00    +0.389 N 
ATOM      3  N   UNL     1      34.865 -17.988 -21.258  0.00  0.00    -0.312 N 
ATOM      4  C   UNL     1      34.568 -20.236 -20.291  0.00  0.00    -0.055 C 
ATOM      5  C   UNL     1      36.792 -19.415 -20.690  0.00  0.00    -0.055 C 
ATOM      6  C   UNL     1      33.964 -19.144 -21.177  0.00  0.00    +0.068 C 
ATOM      7  C   UNL     1      36.261 -18.295 -21.588  0.00  0.00    +0.068 C 
ATOM      8  H   UNL     1      35.866 -20.921 -21.708  0.00  0.00    -0.080 HD
BRANCH   3  10
ATOM      9  S   UNL     1      33.500 -14.866 -24.996  0.00  0.00    -0.086 S 
ATOM     10  C   UNL     1      34.321 -16.753 -21.627  0.00  0.00    +0.048 C 
ATOM     11  C   UNL     1      34.156 -16.368 -22.997  0.00  0.00    +0.020 C 
ATOM     12  C   UNL     1      33.915 -15.846 -20.624  0.00  0.00    +0.015 C 
ATOM     13  C   UNL     1      33.605 -15.117 -23.294  0.00  0.00    +0.031 C 
ATOM     14  C   UNL     1      34.479 -17.090 -24.194  0.00  0.00    +0.009 C 
ATOM     15  C   UNL     1      33.371 -14.609 -20.943  0.00  0.00    +0.002 C 
ATOM     16  C   UNL     1      33.207 -14.227 -22.277  0.00  0.00    +0.007 C 
ATOM     17  C   UNL     1      34.176 -16.392 -25.338  0.00  0.00    +0.035 C 
ENDBRANCH   3  10
ENDBRANCH   1   2
BRANCH   1  18
ATOM     18  C   UNL     1      35.857 -21.639 -18.523  0.00  0.00    -0.019 C 
BRANCH  18  19
ATOM     19  C   UNL     1      36.902 -21.969 -17.460  0.00  0.00    +0.045 C 
BRANCH  19  20
ATOM     20  C   UNL     1      36.256 -22.451 -16.167  0.00  0.00    +0.205 C 
BRANCH  20  21
ATOM     21  O   UNL     1      35.486 -23.618 -16.419  0.00  0.00    -0.475 OA
BRANCH  21  24
ATOM     22  O   UNL     1      28.532 -22.328 -17.189  0.00  0.00    -0.270 OA
ATOM     23  N   UNL     1      30.786 -22.737 -16.956  0.00  0.00    -0.280 N 
ATOM     24  C   UNL     1      34.210 -23.638 -15.917  0.00  0.00    +0.140 C 
ATOM     25  C   UNL     1      33.158 -23.176 -16.698  0.00  0.00    +0.052 C 
ATOM     26  C   UNL     1      31.862 -23.201 -16.178  0.00  0.00    +0.054 C 
ATOM     27  C   UNL     1      33.986 -24.121 -14.632  0.00  0.00    +0.037 C 
ATOM     28  C   UNL     1      31.620 -23.683 -14.887  0.00  0.00    +0.014 C 
ATOM     29  C   UNL     1      32.689 -24.145 -14.114  0.00  0.00    +0.004 C 
ATOM     30  C   UNL     1      30.250 -23.693 -14.381  0.00  0.00    +0.006 C 
ATOM     31  C   UNL     1      29.477 -22.730 -16.514  0.00  0.00    +0.250 C 
ATOM     32  C   UNL     1      29.240 -23.247 -15.139  0.00  0.00    +0.058 C 
ATOM     33  H   UNL     1      30.975 -22.400 -17.863  0.00  0.00    +0.155 HD
ENDBRANCH  21  24
ENDBRANCH  20  21
ENDBRANCH  19  20
ENDBRANCH  18  19
ENDBRANCH   1  18
TORSDOF 7
ENDMDL
MODEL 3
REMARK VINA RESULT:     -11.7      5.525      9.010
REMARK  Name = 11978813
REMARK  7 active torsions:
REMARK  status: ('A' for Active; 'I' for Inactive)
REMARK    1  A    between atoms: C_1  and  N_2
REMARK    2  A    between atoms: C_1  and  C_18
REMARK    3  A    between atoms: N_3  and  C_10
REMARK    4  A    between atoms: C_18  and  C_19
REMARK    5  A    between atoms: C_19  and  C_20
REMARK    6  A    between atoms: C_20  and  O_21
REMARK    7  A    between atoms: O_21  and  C_24
REMARK                            x       y       z     vdW  Elec       q    Type
REMARK                         _______ _______ _______ _____ _____    ______ ____
ROOT
ATOM      1  C   UNL     1      32.796 -14.171 -23.465  0.00  0.00    -0.077 C 
ENDROOT
BRANCH   1   2
ATOM      2  N   UNL     1      32.363 -12.779 -23.350  0.00  0.00    +0.389 N 
ATOM      3  N   UNL     1      32.329 -10.139 -22.260  0.00  0.00    -0.312 N 
ATOM      4  C   UNL     1      31.776 -12.530 -22.029  0.00  0.00    -0.055 C 
ATOM      5  C   UNL     1      33.490 -11.868 -23.577  0.00  0.00    -0.055 C 
ATOM      6  C   UNL     1      31.266 -11.091 -21.917  0.00  0.00    +0.068 C 
ATOM      7  C   UNL     1      33.039 -10.407 -23.515  0.00  0.00    +0.068 C 
ATOM      8  H   UNL     1      31.653 -12.608 -24.063  0.00  0.00    -0.080 HD
BRANCH   3  10
ATOM      9  S   UNL     1      31.092  -5.343 -23.288  0.00  0.00    -0.086 S 
ATOM     10  C   UNL     1      32.210  -8.824 -21.797  0.00  0.00    +0.048 C 
ATOM     11  C   UNL     1      31.754  -7.756 -22.636  0.00  0.00    +0.020 C 
ATOM     12  C   UNL     1      32.548  -8.525 -20.459  0.00  0.00    +0.015 C 
ATOM     13  C   UNL     1      31.660  -6.464 -22.108  0.00  0.00    +0.031 C 
ATOM     14  C   UNL     1      31.352  -7.783 -24.013  0.00  0.00    +0.009 C 
ATOM     15  C   UNL     1      32.446  -7.235 -19.957  0.00  0.00    +0.002 C 
ATOM     16  C   UNL     1      32.002  -6.189 -20.769  0.00  0.00    +0.007 C 
ATOM     17  C   UNL     1      30.972  -6.550 -24.485  0.00  0.00    +0.035 C 
ENDBRANCH   3  10
ENDBRANCH   1   2
BRANCH   1  18
ATOM     18  C   UNL     1      32.914 -14.807 -22.081  0.00  0.00    -0.019 C 
BRANCH  18  19
ATOM     19  C   UNL     1      34.362 -15.174 -21.763  0.00  0.00    +0.045 C 
BRANCH  19  20
ATOM     20  C   UNL     1      34.987 -16.007 -22.875  0.00  0.00    +0.205 C 
BRANCH  20  21
ATOM     21  O   UNL     1      34.313 -17.254 -22.980  0.00  0.00    -0.475 OA
BRANCH  21  24
ATOM     22  O   UNL     1      32.637 -22.581 -18.572  0.00  0.00    -0.270 OA
ATOM     23  N   UNL     1      33.161 -20.853 -20.000  0.00  0.00    -0.280 N 
ATOM     24  C   UNL     1      34.695 -18.238 -22.105  0.00  0.00    +0.140 C 
ATOM     25  C   UNL     1      33.728 -19.036 -21.505  0.00  0.00    +0.052 C 
ATOM     26  C   UNL     1      34.127 -20.037 -20.616  0.00  0.00    +0.054 C 
ATOM     27  C   UNL     1      36.045 -18.426 -21.831  0.00  0.00    +0.037 C 
ATOM     28  C   UNL     1      35.482 -20.238 -20.329  0.00  0.00    +0.014 C 
ATOM     29  C   UNL     1      36.443 -19.428 -20.942  0.00  0.00    +0.004 C 
ATOM     30  C   UNL     1      35.857 -21.296 -19.395  0.00  0.00    +0.006 C 
ATOM     31  C   UNL     1      33.476 -21.863 -19.112  0.00  0.00    +0.250 C 
ATOM     32  C   UNL     1      34.921 -22.062 -18.820  0.00  0.00    +0.058 C 
ATOM     33  H   UNL     1      32.212 -20.697 -20.213  0.00  0.00    +0.155 HD
ENDBRANCH  21  24
ENDBRANCH  20  21
ENDBRANCH  19  20
ENDBRANCH  18  19
ENDBRANCH   1  18
TORSDOF 7
ENDMDL
MODEL 4
REMARK VINA RESULT:     -11.7      2.341      4.591
REMARK  Name = 11978813
REMARK  7 active torsions:
REMARK  status: ('A' for Active; 'I' for Inactive)
REMARK    1  A    between atoms: C_1  and  N_2
REMARK    2  A    between atoms: C_1  and  C_18
REMARK    3  A    between atoms: N_3  and  C_10
REMARK    4  A    between atoms: C_18  and  C_19
REMARK    5  A    between atoms: C_19  and  C_20
REMARK    6  A    between atoms: C_20  and  O_21
REMARK    7  A    between atoms: O_21  and  C_24
REMARK                            x       y       z     vdW  Elec       q    Type
REMARK                         _______ _______ _______ _____ _____    ______ ____
ROOT
ATOM      1  C   UNL     1      34.855 -22.390 -18.588  0.00  0.00    -0.077 C 
ENDROOT
BRANCH   1   2
ATOM      2  N   UNL     1      34.789 -21.113 -19.297  0.00  0.00    +0.389 N 
ATOM      3  N   UNL     1      34.656 -19.402 -21.580  0.00  0.00    -0.312 N 
ATOM      4  C   UNL     1      35.958 -20.947 -20.169  0.00  0.00    -0.055 C 
ATOM      5  C   UNL     1      33.558 -21.028 -20.091  0.00  0.00    -0.055 C 
ATOM      6  C   UNL     1      35.929 -19.589 -20.873  0.00  0.00    +0.068 C 
ATOM      7  C   UNL     1      33.448 -19.673 -20.794  0.00  0.00    +0.068 C 
ATOM      8  H   UNL     1      34.786 -20.365 -18.604  0.00  0.00    -0.080 HD
BRANCH   3  10
ATOM      9  S   UNL     1      34.369 -14.538 -22.942  0.00  0.00    -0.086 S 
ATOM     10  C   UNL     1      34.612 -18.466 -22.620  0.00  0.00    +0.048 C 
ATOM     11  C   UNL     1      34.520 -17.057 -22.378  0.00  0.00    +0.020 C 
ATOM     12  C   UNL     1      34.659 -18.912 -23.959  0.00  0.00    +0.015 C 
ATOM     13  C   UNL     1      34.479 -16.177 -23.465  0.00  0.00    +0.031 C 
ATOM     14  C   UNL     1      34.457 -16.346 -21.133  0.00  0.00    +0.009 C 
ATOM     15  C   UNL     1      34.617 -18.020 -25.022  0.00  0.00    +0.002 C 
ATOM     16  C   UNL     1      34.527 -16.645 -24.793  0.00  0.00    +0.007 C 
ATOM     17  C   UNL     1      34.374 -14.985 -21.298  0.00  0.00    +0.035 C 
ENDBRANCH   3  10
ENDBRANCH   1   2
BRANCH   1  18
ATOM     18  C   UNL     1      33.506 -23.104 -18.652  0.00  0.00    -0.019 C 
BRANCH  18  19
ATOM     19  C   UNL     1      32.888 -23.245 -17.262  0.00  0.00    +0.045 C 
BRANCH  19  20
ATOM     20  C   UNL     1      33.891 -22.910 -16.166  0.00  0.00    +0.205 C 
BRANCH  20  21
ATOM     21  O   UNL     1      33.751 -23.827 -15.088  0.00  0.00    -0.475 OA
BRANCH  21  24
ATOM     22  O   UNL     1      40.554 -25.867 -15.513  0.00  0.00    -0.270 OA
ATOM     23  N   UNL     1      38.351 -25.206 -15.394  0.00  0.00    -0.280 N 
ATOM     24  C   UNL     1      34.906 -24.249 -14.482  0.00  0.00    +0.140 C 
ATOM     25  C   UNL     1      36.031 -24.510 -15.254  0.00  0.00    +0.052 C 
ATOM     26  C   UNL     1      37.203 -24.939 -14.627  0.00  0.00    +0.054 C 
ATOM     27  C   UNL     1      34.935 -24.411 -13.101  0.00  0.00    +0.037 C 
ATOM     28  C   UNL     1      37.249 -25.107 -13.239  0.00  0.00    +0.014 C 
ATOM     29  C   UNL     1      36.109 -24.840 -12.475  0.00  0.00    +0.004 C 
ATOM     30  C   UNL     1      38.495 -25.556 -12.622  0.00  0.00    +0.006 C 
ATOM     31  C   UNL     1      39.546 -25.632 -14.849  0.00  0.00    +0.250 C 
ATOM     32  C   UNL     1      39.576 -25.805 -13.371  0.00  0.00    +0.058 C 
ATOM     33  H   UNL     1      38.300 -25.084 -16.370  0.00  0.00    +0.155 HD
ENDBRANCH  21  24
ENDBRANCH  20  21
ENDBRANCH  19  20
ENDBRANCH  18  19
ENDBRANCH   1  18
TORSDOF 7
ENDMDL
MODEL 5
REMARK VINA RESULT:     -11.3      4.362     10.429
REMARK  Name = 11978813
REMARK  7 active torsions:
REMARK  status: ('A' for Active; 'I' for Inactive)
REMARK    1  A    between atoms: C_1  and  N_2
REMARK    2  A    between atoms: C_1  and  C_18
REMARK    3  A    between atoms: N_3  and  C_10
REMARK    4  A    between atoms: C_18  and  C_19
REMARK    5  A    between atoms: C_19  and  C_20
REMARK    6  A    between atoms: C_20  and  O_21
REMARK    7  A    between atoms: O_21  and  C_24
REMARK                            x       y       z     vdW  Elec       q    Type
REMARK                         _______ _______ _______ _____ _____    ______ ____
ROOT
ATOM      1  C   UNL     1      34.656 -21.695 -19.705  0.00  0.00    -0.077 C 
ENDROOT
BRANCH   1   2
ATOM      2  N   UNL     1      34.773 -21.877 -18.259  0.00  0.00    +0.389 N 
ATOM      3  N   UNL     1      35.496 -23.234 -15.852  0.00  0.00    -0.312 N 
ATOM      4  C   UNL     1      34.034 -23.069 -17.829  0.00  0.00    -0.055 C 
ATOM      5  C   UNL     1      36.183 -21.995 -17.868  0.00  0.00    -0.055 C 
ATOM      6  C   UNL     1      34.101 -23.239 -16.309  0.00  0.00    +0.068 C 
ATOM      7  C   UNL     1      36.323 -22.130 -16.349  0.00  0.00    +0.068 C 
ATOM      8  H   UNL     1      34.372 -21.058 -17.802  0.00  0.00    -0.080 HD
BRANCH   3  10
ATOM      9  S   UNL     1      38.852 -25.647 -12.935  0.00  0.00    -0.086 S 
ATOM     10  C   UNL     1      35.784 -23.811 -14.610  0.00  0.00    +0.048 C 
ATOM     11  C   UNL     1      37.049 -24.417 -14.322  0.00  0.00    +0.020 C 
ATOM     12  C   UNL     1      34.801 -23.802 -13.595  0.00  0.00    +0.015 C 
ATOM     13  C   UNL     1      37.269 -24.976 -13.059  0.00  0.00    +0.031 C 
ATOM     14  C   UNL     1      38.205 -24.561 -15.160  0.00  0.00    +0.009 C 
ATOM     15  C   UNL     1      35.042 -24.363 -12.349  0.00  0.00    +0.002 C 
ATOM     16  C   UNL     1      36.274 -24.956 -12.062  0.00  0.00    +0.007 C 
ATOM     17  C   UNL     1      39.244 -25.205 -14.533  0.00  0.00    +0.035 C 
ENDBRANCH   3  10
ENDBRANCH   1   2
BRANCH   1  18
ATOM     18  C   UNL     1      33.403 -20.885 -20.038  0.00  0.00    -0.019 C 
BRANCH  18  19
ATOM     19  C   UNL     1      33.753 -19.629 -20.834  0.00  0.00    +0.045 C 
BRANCH  19  20
ATOM     20  C   UNL     1      35.254 -19.508 -21.062  0.00  0.00    +0.205 C 
BRANCH  20  21
ATOM     21  O   UNL     1      35.688 -18.196 -20.728  0.00  0.00    -0.475 OA
BRANCH  21  24
ATOM     22  O   UNL     1      33.390 -15.314 -26.813  0.00  0.00    -0.270 OA
ATOM     23  N   UNL     1      34.141 -16.261 -24.853  0.00  0.00    -0.280 N 
ATOM     24  C   UNL     1      35.099 -17.160 -21.405  0.00  0.00    +0.140 C 
ATOM     25  C   UNL     1      34.926 -17.248 -22.781  0.00  0.00    +0.052 C 
ATOM     26  C   UNL     1      34.323 -16.187 -23.461  0.00  0.00    +0.054 C 
ATOM     27  C   UNL     1      34.682 -16.033 -20.704  0.00  0.00    +0.037 C 
ATOM     28  C   UNL     1      33.899 -15.046 -22.771  0.00  0.00    +0.014 C 
ATOM     29  C   UNL     1      34.080 -14.972 -21.387  0.00  0.00    +0.004 C 
ATOM     30  C   UNL     1      33.273 -13.959 -23.520  0.00  0.00    +0.006 C 
ATOM     31  C   UNL     1      33.554 -15.255 -25.596  0.00  0.00    +0.250 C 
ATOM     32  C   UNL     1      33.109 -14.050 -24.845  0.00  0.00    +0.058 C 
ATOM     33  H   UNL     1      34.447 -17.071 -25.323  0.00  0.00    +0.155 HD
ENDBRANCH  21  24
ENDBRANCH  20  21
ENDBRANCH  19  20
ENDBRANCH  18  19
ENDBRANCH   1  18
TORSDOF 7
ENDMDL
MODEL 6
REMARK VINA RESULT:     -11.2      2.442      4.980
REMARK  Name = 11978813
REMARK  7 active torsions:
REMARK  status: ('A' for Active; 'I' for Inactive)
REMARK    1  A    between atoms: C_1  and  N_2
REMARK    2  A    between atoms: C_1  and  C_18
REMARK    3  A    between atoms: N_3  and  C_10
REMARK    4  A    between atoms: C_18  and  C_19
REMARK    5  A    between atoms: C_19  and  C_20
REMARK    6  A    between atoms: C_20  and  O_21
REMARK    7  A    between atoms: O_21  and  C_24
REMARK                            x       y       z     vdW  Elec       q    Type
REMARK                         _______ _______ _______ _____ _____    ______ ____
ROOT
ATOM      1  C   UNL     1      34.215 -22.825 -18.691  0.00  0.00    -0.077 C 
ENDROOT
BRANCH   1   2
ATOM      2  N   UNL     1      34.307 -21.822 -19.751  0.00  0.00    +0.389 N 
ATOM      3  N   UNL     1      34.481 -19.187 -20.840  0.00  0.00    -0.312 N 
ATOM      4  C   UNL     1      33.146 -20.925 -19.712  0.00  0.00    -0.055 C 
ATOM      5  C   UNL     1      35.544 -21.044 -19.619  0.00  0.00    -0.055 C 
ATOM      6  C   UNL     1      33.201 -19.906 -20.853  0.00  0.00    +0.068 C 
ATOM      7  C   UNL     1      35.679 -20.028 -20.755  0.00  0.00    +0.068 C 
ATOM      8  H   UNL     1      34.318 -22.308 -20.648  0.00  0.00    -0.080 HD
BRANCH   3  10
ATOM      9  S   UNL     1      34.630 -16.658 -25.218  0.00  0.00    -0.086 S 
ATOM     10  C   UNL     1      34.546 -17.949 -21.488  0.00  0.00    +0.048 C 
ATOM     11  C   UNL     1      34.559 -17.832 -22.916  0.00  0.00    +0.020 C 
ATOM     12  C   UNL     1      34.603 -16.765 -20.720  0.00  0.00    +0.015 C 
ATOM     13  C   UNL     1      34.627 -16.561 -23.497  0.00  0.00    +0.031 C 
ATOM     14  C   UNL     1      34.512 -18.858 -23.917  0.00  0.00    +0.009 C 
ATOM     15  C   UNL     1      34.669 -15.515 -21.320  0.00  0.00    +0.002 C 
ATOM     16  C   UNL     1      34.682 -15.394 -22.711  0.00  0.00    +0.007 C 
ATOM     17  C   UNL     1      34.544 -18.360 -25.197  0.00  0.00    +0.035 C 
ENDBRANCH   3  10
ENDBRANCH   1   2
BRANCH   1  18
ATOM     18  C   UNL     1      33.200 -22.391 -17.634  0.00  0.00    -0.019 C 
BRANCH  18  19
ATOM     19  C   UNL     1      32.742 -23.578 -16.788  0.00  0.00    +0.045 C 
BRANCH  19  20
ATOM     20  C   UNL     1      32.918 -23.308 -15.300  0.00  0.00    +0.205 C 
BRANCH  20  21
ATOM     21  O   UNL     1      33.321 -24.501 -14.639  0.00  0.00    -0.475 OA
BRANCH  21  24
ATOM     22  O   UNL     1      40.197 -26.081 -15.556  0.00  0.00    -0.270 OA
ATOM     23  N   UNL     1      37.968 -25.577 -15.276  0.00  0.00    -0.280 N 
ATOM     24  C   UNL     1      34.606 -24.539 -14.162  0.00  0.00    +0.140 C 
ATOM     25  C   UNL     1      35.621 -25.040 -14.967  0.00  0.00    +0.052 C 
ATOM     26  C   UNL     1      36.928 -25.074 -14.473  0.00  0.00    +0.054 C 
ATOM     27  C   UNL     1      34.875 -24.077 -12.879  0.00  0.00    +0.037 C 
ATOM     28  C   UNL     1      37.215 -24.613 -13.184  0.00  0.00    +0.014 C 
ATOM     29  C   UNL     1      36.182 -24.112 -12.386  0.00  0.00    +0.004 C 
ATOM     30  C   UNL     1      38.595 -24.666 -12.705  0.00  0.00    +0.006 C 
ATOM     31  C   UNL     1      39.283 -25.644 -14.860  0.00  0.00    +0.250 C 
ATOM     32  C   UNL     1      39.569 -25.149 -13.486  0.00  0.00    +0.058 C 
ATOM     33  H   UNL     1      37.747 -25.899 -16.180  0.00  0.00    +0.155 HD
ENDBRANCH  21  24
ENDBRANCH  20  21
ENDBRANCH  19  20
ENDBRANCH  18  19
ENDBRANCH   1  18
TORSDOF 7
ENDMDL
MODEL 7
REMARK VINA RESULT:     -11.1      2.301      4.038
REMARK  Name = 11978813
REMARK  7 active torsions:
REMARK  status: ('A' for Active; 'I' for Inactive)
REMARK    1  A    between atoms: C_1  and  N_2
REMARK    2  A    between atoms: C_1  and  C_18
REMARK    3  A    between atoms: N_3  and  C_10
REMARK    4  A    between atoms: C_18  and  C_19
REMARK    5  A    between atoms: C_19  and  C_20
REMARK    6  A    between atoms: C_20  and  O_21
REMARK    7  A    between atoms: O_21  and  C_24
REMARK                            x       y       z     vdW  Elec       q    Type
REMARK                         _______ _______ _______ _____ _____    ______ ____
ROOT
ATOM      1  C   UNL     1      35.323 -21.292 -19.286  0.00  0.00    -0.077 C 
ENDROOT
BRANCH   1   2
ATOM      2  N   UNL     1      35.165 -20.533 -20.526  0.00  0.00    +0.389 N 
ATOM      3  N   UNL     1      34.655 -18.219 -22.120  0.00  0.00    -0.312 N 
ATOM      4  C   UNL     1      33.807 -19.985 -20.625  0.00  0.00    -0.055 C 
ATOM      5  C   UNL     1      36.149 -19.447 -20.594  0.00  0.00    -0.055 C 
ATOM      6  C   UNL     1      33.612 -19.237 -21.946  0.00  0.00    +0.068 C 
ATOM      7  C   UNL     1      36.032 -18.679 -21.913  0.00  0.00    +0.068 C 
ATOM      8  H   UNL     1      35.321 -21.169 -21.309  0.00  0.00    -0.080 HD
BRANCH   3  10
ATOM      9  S   UNL     1      33.003 -13.479 -22.747  0.00  0.00    -0.086 S 
ATOM     10  C   UNL     1      34.402 -17.162 -23.002  0.00  0.00    +0.048 C 
ATOM     11  C   UNL     1      33.870 -15.907 -22.560  0.00  0.00    +0.020 C 
ATOM     12  C   UNL     1      34.675 -17.325 -24.378  0.00  0.00    +0.015 C 
ATOM     13  C   UNL     1      33.641 -14.894 -23.497  0.00  0.00    +0.031 C 
ATOM     14  C   UNL     1      33.509 -15.483 -21.238  0.00  0.00    +0.009 C 
ATOM     15  C   UNL     1      34.439 -16.304 -25.289  0.00  0.00    +0.002 C 
ATOM     16  C   UNL     1      33.921 -15.078 -24.865  0.00  0.00    +0.007 C 
ATOM     17  C   UNL     1      33.028 -14.197 -21.202  0.00  0.00    +0.035 C 
ENDBRANCH   3  10
ENDBRANCH   1   2
BRANCH   1  18
ATOM     18  C   UNL     1      34.472 -22.561 -19.327  0.00  0.00    -0.019 C 
BRANCH  18  19
ATOM     19  C   UNL     1      33.181 -22.387 -18.528  0.00  0.00    +0.045 C 
BRANCH  19  20
ATOM     20  C   UNL     1      33.242 -23.123 -17.196  0.00  0.00    +0.205 C 
BRANCH  20  21
ATOM     21  O   UNL     1      34.468 -23.836 -17.096  0.00  0.00    -0.475 OA
BRANCH  21  24
ATOM     22  O   UNL     1      35.261 -25.031 -10.127  0.00  0.00    -0.270 OA
ATOM     23  N   UNL     1      34.988 -24.652 -12.382  0.00  0.00    -0.280 N 
ATOM     24  C   UNL     1      35.182 -23.678 -15.936  0.00  0.00    +0.140 C 
ATOM     25  C   UNL     1      34.713 -24.248 -14.759  0.00  0.00    +0.052 C 
ATOM     26  C   UNL     1      35.448 -24.082 -13.582  0.00  0.00    +0.054 C 
ATOM     27  C   UNL     1      36.367 -22.950 -15.954  0.00  0.00    +0.037 C 
ATOM     28  C   UNL     1      36.642 -23.352 -13.584  0.00  0.00    +0.014 C 
ATOM     29  C   UNL     1      37.101 -22.786 -14.777  0.00  0.00    +0.004 C 
ATOM     30  C   UNL     1      37.381 -23.203 -12.332  0.00  0.00    +0.006 C 
ATOM     31  C   UNL     1      35.657 -24.534 -11.180  0.00  0.00    +0.250 C 
ATOM     32  C   UNL     1      36.924 -23.755 -11.201  0.00  0.00    +0.058 C 
ATOM     33  H   UNL     1      34.145 -25.162 -12.399  0.00  0.00    +0.155 HD
ENDBRANCH  21  24
ENDBRANCH  20  21
ENDBRANCH  19  20
ENDBRANCH  18  19
ENDBRANCH   1  18
TORSDOF 7
ENDMDL
MODEL 8
REMARK VINA RESULT:     -11.1      7.150     12.702
REMARK  Name = 11978813
REMARK  7 active torsions:
REMARK  status: ('A' for Active; 'I' for Inactive)
REMARK    1  A    between atoms: C_1  and  N_2
REMARK    2  A    between atoms: C_1  and  C_18
REMARK    3  A    between atoms: N_3  and  C_10
REMARK    4  A    between atoms: C_18  and  C_19
REMARK    5  A    between atoms: C_19  and  C_20
REMARK    6  A    between atoms: C_20  and  O_21
REMARK    7  A    between atoms: O_21  and  C_24
REMARK                            x       y       z     vdW  Elec       q    Type
REMARK                         _______ _______ _______ _____ _____    ______ ____
ROOT
ATOM      1  C   UNL     1      33.446 -14.545 -24.102  0.00  0.00    -0.077 C 
ENDROOT
BRANCH   1   2
ATOM      2  N   UNL     1      34.327 -15.456 -23.373  0.00  0.00    +0.389 N 
ATOM      3  N   UNL     1      35.010 -17.817 -21.917  0.00  0.00    -0.312 N 
ATOM      4  C   UNL     1      33.852 -15.643 -21.997  0.00  0.00    -0.055 C 
ATOM      5  C   UNL     1      34.405 -16.753 -24.055  0.00  0.00    -0.055 C 
ATOM      6  C   UNL     1      34.799 -16.549 -21.207  0.00  0.00    +0.068 C 
ATOM      7  C   UNL     1      35.369 -17.698 -23.334  0.00  0.00    +0.068 C 
ATOM      8  H   UNL     1      35.259 -15.042 -23.347  0.00  0.00    -0.080 HD
BRANCH   3  10
ATOM      9  S   UNL     1      33.809 -21.974 -19.298  0.00  0.00    -0.086 S 
ATOM     10  C   UNL     1      35.457 -18.918 -21.178  0.00  0.00    +0.048 C 
ATOM     11  C   UNL     1      34.554 -19.876 -20.612  0.00  0.00    +0.020 C 
ATOM     12  C   UNL     1      36.842 -19.104 -20.976  0.00  0.00    +0.015 C 
ATOM     13  C   UNL     1      35.069 -20.953 -19.883  0.00  0.00    +0.031 C 
ATOM     14  C   UNL     1      33.121 -19.924 -20.665  0.00  0.00    +0.009 C 
ATOM     15  C   UNL     1      37.329 -20.182 -20.249  0.00  0.00    +0.002 C 
ATOM     16  C   UNL     1      36.455 -21.119 -19.694  0.00  0.00    +0.007 C 
ATOM     17  C   UNL     1      32.596 -21.004 -19.997  0.00  0.00    +0.035 C 
ENDBRANCH   3  10
ENDBRANCH   1   2
BRANCH   1  18
ATOM     18  C   UNL     1      33.558 -13.130 -23.535  0.00  0.00    -0.019 C 
BRANCH  18  19
ATOM     19  C   UNL     1      33.854 -12.115 -24.638  0.00  0.00    +0.045 C 
BRANCH  19  20
ATOM     20  C   UNL     1      33.782 -10.685 -24.119  0.00  0.00    +0.205 C 
BRANCH  20  21
ATOM     21  O   UNL     1      32.719 -10.566 -23.183  0.00  0.00    -0.475 OA
BRANCH  21  24
ATOM     22  O   UNL     1      30.567  -4.006 -24.903  0.00  0.00    -0.270 OA
ATOM     23  N   UNL     1      31.265  -6.133 -24.364  0.00  0.00    -0.280 N 
ATOM     24  C   UNL     1      32.363  -9.295 -22.810  0.00  0.00    +0.140 C 
ATOM     25  C   UNL     1      31.999  -8.372 -23.783  0.00  0.00    +0.052 C 
ATOM     26  C   UNL     1      31.637  -7.080 -23.393  0.00  0.00    +0.054 C 
ATOM     27  C   UNL     1      32.371  -8.948 -21.464  0.00  0.00    +0.037 C 
ATOM     28  C   UNL     1      31.641  -6.714 -22.042  0.00  0.00    +0.014 C 
ATOM     29  C   UNL     1      32.009  -7.655 -21.076  0.00  0.00    +0.004 C 
ATOM     30  C   UNL     1      31.255  -5.353 -21.677  0.00  0.00    +0.006 C 
ATOM     31  C   UNL     1      30.895  -4.838 -24.060  0.00  0.00    +0.250 C 
ATOM     32  C   UNL     1      30.905  -4.468 -22.618  0.00  0.00    +0.058 C 
ATOM     33  H   UNL     1      31.270  -6.407 -25.311  0.00  0.00    +0.155 HD
ENDBRANCH  21  24
ENDBRANCH  20  21
ENDBRANCH  19  20
ENDBRANCH  18  19
ENDBRANCH   1  18
TORSDOF 7
ENDMDL
MODEL 9
REMARK VINA RESULT:     -11.1      7.933     13.525
REMARK  Name = 11978813
REMARK  7 active torsions:
REMARK  status: ('A' for Active; 'I' for Inactive)
REMARK    1  A    between atoms: C_1  and  N_2
REMARK    2  A    between atoms: C_1  and  C_18
REMARK    3  A    between atoms: N_3  and  C_10
REMARK    4  A    between atoms: C_18  and  C_19
REMARK    5  A    between atoms: C_19  and  C_20
REMARK    6  A    between atoms: C_20  and  O_21
REMARK    7  A    between atoms: O_21  and  C_24
REMARK                            x       y       z     vdW  Elec       q    Type
REMARK                         _______ _______ _______ _____ _____    ______ ____
ROOT
ATOM      1  C   UNL     1      31.901 -10.710 -21.953  0.00  0.00    -0.077 C 
ENDROOT
BRANCH   1   2
ATOM      2  N   UNL     1      32.045 -12.033 -22.558  0.00  0.00    +0.389 N 
ATOM      3  N   UNL     1      33.387 -14.465 -23.225  0.00  0.00    -0.312 N 
ATOM      4  C   UNL     1      33.133 -12.034 -23.543  0.00  0.00    -0.055 C 
ATOM      5  C   UNL     1      32.302 -13.046 -21.528  0.00  0.00    -0.055 C 
ATOM      6  C   UNL     1      33.255 -13.399 -24.225  0.00  0.00    +0.068 C 
ATOM      7  C   UNL     1      32.397 -14.445 -22.142  0.00  0.00    +0.068 C 
ATOM      8  H   UNL     1      31.171 -12.261 -23.033  0.00  0.00    -0.080 HD
BRANCH   3  10
ATOM      9  S   UNL     1      35.802 -18.707 -21.899  0.00  0.00    -0.086 S 
ATOM     10  C   UNL     1      33.947 -15.681 -23.630  0.00  0.00    +0.048 C 
ATOM     11  C   UNL     1      34.568 -16.583 -22.705  0.00  0.00    +0.020 C 
ATOM     12  C   UNL     1      33.907 -16.046 -24.993  0.00  0.00    +0.015 C 
ATOM     13  C   UNL     1      35.110 -17.782 -23.179  0.00  0.00    +0.031 C 
ATOM     14  C   UNL     1      34.743 -16.460 -21.286  0.00  0.00    +0.009 C 
ATOM     15  C   UNL     1      34.451 -17.242 -25.440  0.00  0.00    +0.002 C 
ATOM     16  C   UNL     1      35.058 -18.125 -24.544  0.00  0.00    +0.007 C 
ATOM     17  C   UNL     1      35.392 -17.536 -20.731  0.00  0.00    +0.035 C 
ENDBRANCH   3  10
ENDBRANCH   1   2
BRANCH   1  18
ATOM     18  C   UNL     1      31.284 -10.826 -20.560  0.00  0.00    -0.019 C 
BRANCH  18  19
ATOM     19  C   UNL     1      32.039  -9.967 -19.547  0.00  0.00    +0.045 C 
BRANCH  19  20
ATOM     20  C   UNL     1      31.673  -8.494 -19.678  0.00  0.00    +0.205 C 
BRANCH  20  21
ATOM     21  O   UNL     1      32.818  -7.747 -20.066  0.00  0.00    -0.475 OA
BRANCH  21  24
ATOM     22  O   UNL     1      30.118  -3.223 -24.848  0.00  0.00    -0.270 OA
ATOM     23  N   UNL     1      30.979  -4.682 -23.289  0.00  0.00    -0.280 N 
ATOM     24  C   UNL     1      32.811  -7.218 -21.331  0.00  0.00    +0.140 C 
ATOM     25  C   UNL     1      31.896  -6.224 -21.654  0.00  0.00    +0.052 C 
ATOM     26  C   UNL     1      31.898  -5.690 -22.946  0.00  0.00    +0.054 C 
ATOM     27  C   UNL     1      33.721  -7.684 -22.274  0.00  0.00    +0.037 C 
ATOM     28  C   UNL     1      32.806  -6.148 -23.906  0.00  0.00    +0.014 C 
ATOM     29  C   UNL     1      33.721  -7.149 -23.565  0.00  0.00    +0.004 C 
ATOM     30  C   UNL     1      32.776  -5.564 -25.244  0.00  0.00    +0.006 C 
ATOM     31  C   UNL     1      30.918  -4.105 -24.542  0.00  0.00    +0.250 C 
ATOM     32  C   UNL     1      31.892  -4.606 -25.549  0.00  0.00    +0.058 C 
ATOM     33  H   UNL     1      30.346  -4.373 -22.600  0.00  0.00    +0.155 HD
ENDBRANCH  21  24
ENDBRANCH  20  21
ENDBRANCH  19  20
ENDBRANCH  18  19
ENDBRANCH   1  18
TORSDOF 7
ENDMDL
