MODEL 1
REMARK VINA RESULT:      -9.7      0.000      0.000
REMARK  Name = 44073
REMARK  6 active torsions:
REMARK  status: ('A' for Active; 'I' for Inactive)
REMARK    1  A    between atoms: C_1  and  O_14
REMARK    2  A    between atoms: C_2  and  C_11
REMARK    3  A    between atoms: C_4  and  N_9
REMARK    4  A    between atoms: C_11  and  O_12
REMARK    5  A    between atoms: O_14  and  C_16
REMARK    6  A    between atoms: C_17  and  C_25
REMARK                            x       y       z     vdW  Elec       q    Type
REMARK                         _______ _______ _______ _____ _____    ______ ____
ROOT
ATOM      1  C   UNL     1      35.176 -23.515 -14.725  0.00  0.00    +0.146 C 
ATOM      2  C   UNL     1      36.704 -23.954 -12.905  0.00  0.00    +0.101 C 
ATOM      3  C   UNL     1      35.811 -23.100 -13.554  0.00  0.00    +0.046 C 
ATOM      4  C   UNL     1      36.962 -25.221 -13.429  0.00  0.00    +0.149 C 
ATOM      5  C   UNL     1      35.434 -24.782 -15.248  0.00  0.00    +0.039 C 
ATOM      6  C   UNL     1      36.327 -25.635 -14.599  0.00  0.00    +0.027 C 
ENDROOT
BRANCH   4   9
ATOM      7  O   UNL     1      39.042 -26.194 -13.219  0.00  0.00    -0.126 OA
ATOM      8  O   UNL     1      37.465 -26.783 -11.808  0.00  0.00    -0.126 OA
ATOM      9  N   UNL     1      37.868 -26.110 -12.787  0.00  0.00    +0.058 N 
ENDBRANCH   4   9
BRANCH   2  11
ATOM     10  O   UNL     1      38.322 -22.732 -11.636  0.00  0.00    -0.245 OA
ATOM     11  C   UNL     1      37.348 -23.487 -11.684  0.00  0.00    +0.340 C 
BRANCH  11  12
ATOM     12  O   UNL     1      36.752 -23.979 -10.565  0.00  0.00    -0.477 OA
ATOM     13  H   UNL     1      36.607 -24.901 -10.478  0.00  0.00    +0.295 HD
ENDBRANCH  11  12
ENDBRANCH   2  11
BRANCH   1  14
ATOM     14  O   UNL     1      34.306 -22.681 -15.359  0.00  0.00    -0.453 OA
BRANCH  14  16
ATOM     15 CL   UNL     1      33.104 -22.737 -18.112  0.00  0.00    -0.079 Cl
ATOM     16  C   UNL     1      32.976 -23.060 -15.414  0.00  0.00    +0.156 C 
ATOM     17  C   UNL     1      30.317 -23.828 -15.467  0.00  0.00    +0.072 C 
ATOM     18  C   UNL     1      32.314 -23.124 -16.628  0.00  0.00    +0.092 C 
ATOM     19  C   UNL     1      32.338 -23.370 -14.225  0.00  0.00    +0.038 C 
ATOM     20  C   UNL     1      30.974 -23.511 -16.655  0.00  0.00    +0.018 C 
ATOM     21  C   UNL     1      30.998 -23.758 -14.251  0.00  0.00    +0.007 C 
BRANCH  17  25
ATOM     22  F   UNL     1      28.564 -25.171 -14.544  0.00  0.00    -0.166 F 
ATOM     23  F   UNL     1      28.012 -23.211 -15.290  0.00  0.00    -0.166 F 
ATOM     24  F   UNL     1      28.521 -24.798 -16.686  0.00  0.00    -0.166 F 
ATOM     25  C   UNL     1      28.885 -24.242 -15.493  0.00  0.00    +0.419 C 
ENDBRANCH  17  25
ENDBRANCH  14  16
ENDBRANCH   1  14
TORSDOF 6
ENDMDL
MODEL 2
REMARK VINA RESULT:      -9.4      8.985     10.616
REMARK  Name = 44073
REMARK  6 active torsions:
REMARK  status: ('A' for Active; 'I' for Inactive)
REMARK    1  A    between atoms: C_1  and  O_14
REMARK    2  A    between atoms: C_2  and  C_11
REMARK    3  A    between atoms: C_4  and  N_9
REMARK    4  A    between atoms: C_11  and  O_12
REMARK    5  A    between atoms: O_14  and  C_16
REMARK    6  A    between atoms: C_17  and  C_25
REMARK                            x       y       z     vdW  Elec       q    Type
REMARK                         _______ _______ _______ _____ _____    ______ ____
ROOT
ATOM      1  C   UNL     1      35.243 -18.721 -21.222  0.00  0.00    +0.146 C 
ATOM      2  C   UNL     1      35.435 -20.734 -19.900  0.00  0.00    +0.101 C 
ATOM      3  C   UNL     1      36.022 -19.612 -20.485  0.00  0.00    +0.046 C 
ATOM      4  C   UNL     1      34.067 -20.964 -20.053  0.00  0.00    +0.149 C 
ATOM      5  C   UNL     1      33.875 -18.951 -21.375  0.00  0.00    +0.039 C 
ATOM      6  C   UNL     1      33.287 -20.073 -20.790  0.00  0.00    +0.027 C 
ENDROOT
BRANCH   4   9
ATOM      7  O   UNL     1      32.517 -21.923 -18.641  0.00  0.00    -0.126 OA
ATOM      8  O   UNL     1      33.839 -23.244 -19.794  0.00  0.00    -0.126 OA
ATOM      9  N   UNL     1      33.444 -22.100 -19.467  0.00  0.00    +0.058 N 
ENDBRANCH   4   9
BRANCH   2  11
ATOM     10  O   UNL     1      36.055 -22.030 -17.988  0.00  0.00    -0.245 OA
ATOM     11  C   UNL     1      36.281 -21.642 -19.137  0.00  0.00    +0.340 C 
BRANCH  11  12
ATOM     12  O   UNL     1      37.380 -22.035 -19.835  0.00  0.00    -0.477 OA
ATOM     13  H   UNL     1      37.809 -21.433 -20.410  0.00  0.00    +0.295 HD
ENDBRANCH  11  12
ENDBRANCH   2  11
BRANCH   1  14
ATOM     14  O   UNL     1      35.817 -17.627 -21.795  0.00  0.00    -0.453 OA
BRANCH  14  16
ATOM     15 CL   UNL     1      34.509 -15.024 -21.056  0.00  0.00    -0.079 Cl
ATOM     16  C   UNL     1      35.127 -17.001 -22.820  0.00  0.00    +0.156 C 
ATOM     17  C   UNL     1      33.765 -15.793 -24.904  0.00  0.00    +0.072 C 
ATOM     18  C   UNL     1      34.484 -15.795 -22.599  0.00  0.00    +0.092 C 
ATOM     19  C   UNL     1      35.104 -17.617 -24.059  0.00  0.00    +0.038 C 
ATOM     20  C   UNL     1      33.797 -15.186 -23.649  0.00  0.00    +0.018 C 
ATOM     21  C   UNL     1      34.417 -17.008 -25.110  0.00  0.00    +0.007 C 
BRANCH  17  25
ATOM     22  F   UNL     1      32.195 -14.140 -25.631  0.00  0.00    -0.166 F 
ATOM     23  F   UNL     1      33.853 -14.572 -26.960  0.00  0.00    -0.166 F 
ATOM     24  F   UNL     1      32.248 -16.020 -26.722  0.00  0.00    -0.166 F 
ATOM     25  C   UNL     1      33.032 -15.143 -26.029  0.00  0.00    +0.419 C 
ENDBRANCH  17  25
ENDBRANCH  14  16
ENDBRANCH   1  14
TORSDOF 6
ENDMDL
MODEL 3
REMARK VINA RESULT:      -9.3      1.231      2.372
REMARK  Name = 44073
REMARK  6 active torsions:
REMARK  status: ('A' for Active; 'I' for Inactive)
REMARK    1  A    between atoms: C_1  and  O_14
REMARK    2  A    between atoms: C_2  and  C_11
REMARK    3  A    between atoms: C_4  and  N_9
REMARK    4  A    between atoms: C_11  and  O_12
REMARK    5  A    between atoms: O_14  and  C_16
REMARK    6  A    between atoms: C_17  and  C_25
REMARK                            x       y       z     vdW  Elec       q    Type
REMARK                         _______ _______ _______ _____ _____    ______ ____
ROOT
ATOM      1  C   UNL     1      35.521 -23.876 -15.539  0.00  0.00    +0.146 C 
ATOM      2  C   UNL     1      36.935 -25.230 -14.122  0.00  0.00    +0.101 C 
ATOM      3  C   UNL     1      36.104 -25.107 -15.237  0.00  0.00    +0.046 C 
ATOM      4  C   UNL     1      37.180 -24.122 -13.310  0.00  0.00    +0.149 C 
ATOM      5  C   UNL     1      35.766 -22.769 -14.727  0.00  0.00    +0.039 C 
ATOM      6  C   UNL     1      36.596 -22.892 -13.612  0.00  0.00    +0.027 C 
ENDROOT
BRANCH   4   9
ATOM      7  O   UNL     1      37.548 -24.688 -11.106  0.00  0.00    -0.126 OA
ATOM      8  O   UNL     1      39.213 -23.840 -12.259  0.00  0.00    -0.126 OA
ATOM      9  N   UNL     1      38.023 -24.221 -12.169  0.00  0.00    +0.058 N 
ENDBRANCH   4   9
BRANCH   2  11
ATOM     10  O   UNL     1      38.475 -27.030 -14.450  0.00  0.00    -0.245 OA
ATOM     11  C   UNL     1      37.527 -26.531 -13.839  0.00  0.00    +0.340 C 
BRANCH  11  12
ATOM     12  O   UNL     1      36.915 -27.163 -12.802  0.00  0.00    -0.477 OA
ATOM     13  H   UNL     1      36.641 -28.054 -12.893  0.00  0.00    +0.295 HD
ENDBRANCH  11  12
ENDBRANCH   2  11
BRANCH   1  14
ATOM     14  O   UNL     1      34.708 -23.757 -16.625  0.00  0.00    -0.453 OA
BRANCH  14  16
ATOM     15 CL   UNL     1      33.297 -22.239 -18.802  0.00  0.00    -0.079 Cl
ATOM     16  C   UNL     1      33.363 -23.515 -16.400  0.00  0.00    +0.156 C 
ATOM     17  C   UNL     1      30.680 -23.061 -15.898  0.00  0.00    +0.072 C 
ATOM     18  C   UNL     1      32.608 -22.825 -17.332  0.00  0.00    +0.092 C 
ATOM     19  C   UNL     1      32.808 -23.982 -15.221  0.00  0.00    +0.038 C 
ATOM     20  C   UNL     1      31.256 -22.596 -17.080  0.00  0.00    +0.018 C 
ATOM     21  C   UNL     1      31.455 -23.754 -14.968  0.00  0.00    +0.007 C 
BRANCH  17  25
ATOM     22  F   UNL     1      29.006 -21.858 -14.682  0.00  0.00    -0.166 F 
ATOM     23  F   UNL     1      28.531 -22.410 -16.725  0.00  0.00    -0.166 F 
ATOM     24  F   UNL     1      28.589 -23.934 -15.175  0.00  0.00    -0.166 F 
ATOM     25  C   UNL     1      29.233 -22.818 -15.626  0.00  0.00    +0.419 C 
ENDBRANCH  17  25
ENDBRANCH  14  16
ENDBRANCH   1  14
TORSDOF 6
ENDMDL
MODEL 4
REMARK VINA RESULT:      -9.2      9.608     12.009
REMARK  Name = 44073
REMARK  6 active torsions:
REMARK  status: ('A' for Active; 'I' for Inactive)
REMARK    1  A    between atoms: C_1  and  O_14
REMARK    2  A    between atoms: C_2  and  C_11
REMARK    3  A    between atoms: C_4  and  N_9
REMARK    4  A    between atoms: C_11  and  O_12
REMARK    5  A    between atoms: O_14  and  C_16
REMARK    6  A    between atoms: C_17  and  C_25
REMARK                            x       y       z     vdW  Elec       q    Type
REMARK                         _______ _______ _______ _____ _____    ______ ____
ROOT
ATOM      1  C   UNL     1      35.178 -17.045 -22.863  0.00  0.00    +0.146 C 
ATOM      2  C   UNL     1      33.932 -15.329 -24.020  0.00  0.00    +0.101 C 
ATOM      3  C   UNL     1      34.578 -15.786 -22.872  0.00  0.00    +0.046 C 
ATOM      4  C   UNL     1      33.885 -16.132 -25.160  0.00  0.00    +0.149 C 
ATOM      5  C   UNL     1      35.131 -17.849 -24.003  0.00  0.00    +0.039 C 
ATOM      6  C   UNL     1      34.485 -17.392 -25.152  0.00  0.00    +0.027 C 
ENDROOT
BRANCH   4   9
ATOM      7  O   UNL     1      33.707 -14.711 -26.967  0.00  0.00    -0.126 OA
ATOM      8  O   UNL     1      32.202 -16.291 -26.729  0.00  0.00    -0.126 OA
ATOM      9  N   UNL     1      33.232 -15.690 -26.344  0.00  0.00    +0.058 N 
ENDBRANCH   4   9
BRANCH   2  11
ATOM     10  O   UNL     1      32.164 -13.766 -23.627  0.00  0.00    -0.245 OA
ATOM     11  C   UNL     1      33.317 -14.008 -23.992  0.00  0.00    +0.340 C 
BRANCH  11  12
ATOM     12  O   UNL     1      34.165 -13.034 -24.420  0.00  0.00    -0.477 OA
ATOM     13  H   UNL     1      35.086 -13.116 -24.271  0.00  0.00    +0.295 HD
ENDBRANCH  11  12
ENDBRANCH   2  11
BRANCH   1  14
ATOM     14  O   UNL     1      35.807 -17.492 -21.741  0.00  0.00    -0.453 OA
BRANCH  14  16
ATOM     15 CL   UNL     1      37.871 -19.485 -20.848  0.00  0.00    -0.079 Cl
ATOM     16  C   UNL     1      35.304 -18.630 -21.132  0.00  0.00    +0.156 C 
ATOM     17  C   UNL     1      34.245 -20.882 -19.920  0.00  0.00    +0.072 C 
ATOM     18  C   UNL     1      36.160 -19.619 -20.678  0.00  0.00    +0.092 C 
ATOM     19  C   UNL     1      33.931 -18.741 -20.995  0.00  0.00    +0.038 C 
ATOM     20  C   UNL     1      35.626 -20.754 -20.067  0.00  0.00    +0.018 C 
ATOM     21  C   UNL     1      33.397 -19.876 -20.384  0.00  0.00    +0.007 C 
BRANCH  17  25
ATOM     22  F   UNL     1      32.413 -21.908 -18.772  0.00  0.00    -0.166 F 
ATOM     23  F   UNL     1      33.572 -23.171 -20.101  0.00  0.00    -0.166 F 
ATOM     24  F   UNL     1      34.422 -22.522 -18.208  0.00  0.00    -0.166 F 
ATOM     25  C   UNL     1      33.673 -22.094 -19.266  0.00  0.00    +0.419 C 
ENDBRANCH  17  25
ENDBRANCH  14  16
ENDBRANCH   1  14
TORSDOF 6
ENDMDL
MODEL 5
REMARK VINA RESULT:      -9.1      8.723     10.303
REMARK  Name = 44073
REMARK  6 active torsions:
REMARK  status: ('A' for Active; 'I' for Inactive)
REMARK    1  A    between atoms: C_1  and  O_14
REMARK    2  A    between atoms: C_2  and  C_11
REMARK    3  A    between atoms: C_4  and  N_9
REMARK    4  A    between atoms: C_11  and  O_12
REMARK    5  A    between atoms: O_14  and  C_16
REMARK    6  A    between atoms: C_17  and  C_25
REMARK                            x       y       z     vdW  Elec       q    Type
REMARK                         _______ _______ _______ _____ _____    ______ ____
ROOT
ATOM      1  C   UNL     1      35.207 -18.707 -21.494  0.00  0.00    +0.146 C 
ATOM      2  C   UNL     1      35.519 -20.564 -19.980  0.00  0.00    +0.101 C 
ATOM      3  C   UNL     1      36.035 -19.464 -20.666  0.00  0.00    +0.046 C 
ATOM      4  C   UNL     1      34.174 -20.906 -20.123  0.00  0.00    +0.149 C 
ATOM      5  C   UNL     1      33.861 -19.049 -21.637  0.00  0.00    +0.039 C 
ATOM      6  C   UNL     1      33.345 -20.149 -20.951  0.00  0.00    +0.027 C 
ENDROOT
BRANCH   4   9
ATOM      7  O   UNL     1      32.608 -21.851 -18.720  0.00  0.00    -0.126 OA
ATOM      8  O   UNL     1      34.170 -23.143 -19.564  0.00  0.00    -0.126 OA
ATOM      9  N   UNL     1      33.624 -22.022 -19.435  0.00  0.00    +0.058 N 
ENDBRANCH   4   9
BRANCH   2  11
ATOM     10  O   UNL     1      36.474 -21.242 -17.895  0.00  0.00    -0.245 OA
ATOM     11  C   UNL     1      36.415 -21.330 -19.124  0.00  0.00    +0.340 C 
BRANCH  11  12
ATOM     12  O   UNL     1      37.206 -22.180 -19.832  0.00  0.00    -0.477 OA
ATOM     13  H   UNL     1      38.016 -22.479 -19.468  0.00  0.00    +0.295 HD
ENDBRANCH  11  12
ENDBRANCH   2  11
BRANCH   1  14
ATOM     14  O   UNL     1      35.711 -17.634 -22.166  0.00  0.00    -0.453 OA
BRANCH  14  16
ATOM     15 CL   UNL     1      34.759 -16.972 -24.938  0.00  0.00    -0.079 Cl
ATOM     16  C   UNL     1      34.916 -16.504 -22.263  0.00  0.00    +0.156 C 
ATOM     17  C   UNL     1      33.331 -14.239 -22.398  0.00  0.00    +0.072 C 
ATOM     18  C   UNL     1      34.418 -16.100 -23.489  0.00  0.00    +0.092 C 
ATOM     19  C   UNL     1      34.641 -15.802 -21.102  0.00  0.00    +0.038 C 
ATOM     20  C   UNL     1      33.619 -14.959 -23.558  0.00  0.00    +0.018 C 
ATOM     21  C   UNL     1      33.842 -14.660 -21.170  0.00  0.00    +0.007 C 
BRANCH  17  25
ATOM     22  F   UNL     1      31.801 -12.754 -21.312  0.00  0.00    -0.166 F 
ATOM     23  F   UNL     1      33.174 -11.877 -22.744  0.00  0.00    -0.166 F 
ATOM     24  F   UNL     1      31.520 -13.105 -23.440  0.00  0.00    -0.166 F 
ATOM     25  C   UNL     1      32.476 -13.019 -22.469  0.00  0.00    +0.419 C 
ENDBRANCH  17  25
ENDBRANCH  14  16
ENDBRANCH   1  14
TORSDOF 6
ENDMDL
MODEL 6
REMARK VINA RESULT:      -9.1      5.389      7.315
REMARK  Name = 44073
REMARK  6 active torsions:
REMARK  status: ('A' for Active; 'I' for Inactive)
REMARK    1  A    between atoms: C_1  and  O_14
REMARK    2  A    between atoms: C_2  and  C_11
REMARK    3  A    between atoms: C_4  and  N_9
REMARK    4  A    between atoms: C_11  and  O_12
REMARK    5  A    between atoms: O_14  and  C_16
REMARK    6  A    between atoms: C_17  and  C_25
REMARK                            x       y       z     vdW  Elec       q    Type
REMARK                         _______ _______ _______ _____ _____    ______ ____
ROOT
ATOM      1  C   UNL     1      33.739 -23.128 -17.732  0.00  0.00    +0.146 C 
ATOM      2  C   UNL     1      31.799 -23.296 -16.302  0.00  0.00    +0.101 C 
ATOM      3  C   UNL     1      32.355 -23.201 -17.578  0.00  0.00    +0.046 C 
ATOM      4  C   UNL     1      32.628 -23.318 -15.180  0.00  0.00    +0.149 C 
ATOM      5  C   UNL     1      34.568 -23.150 -16.610  0.00  0.00    +0.039 C 
ATOM      6  C   UNL     1      34.012 -23.245 -15.334  0.00  0.00    +0.027 C 
ENDROOT
BRANCH   4   9
ATOM      7  O   UNL     1      32.136 -24.517 -13.274  0.00  0.00    -0.126 OA
ATOM      8  O   UNL     1      31.576 -22.395 -13.348  0.00  0.00    -0.126 OA
ATOM      9  N   UNL     1      32.086 -23.414 -13.869  0.00  0.00    +0.058 N 
ENDBRANCH   4   9
BRANCH   2  11
ATOM     10  O   UNL     1      29.730 -24.239 -15.561  0.00  0.00    -0.245 OA
ATOM     11  C   UNL     1      30.348 -23.371 -16.181  0.00  0.00    +0.340 C 
BRANCH  11  12
ATOM     12  O   UNL     1      29.721 -22.359 -16.839  0.00  0.00    -0.477 OA
ATOM     13  H   UNL     1      29.365 -21.638 -16.358  0.00  0.00    +0.295 HD
ENDBRANCH  11  12
ENDBRANCH   2  11
BRANCH   1  14
ATOM     14  O   UNL     1      34.282 -23.033 -18.978  0.00  0.00    -0.453 OA
BRANCH  14  16
ATOM     15 CL   UNL     1      37.002 -21.766 -19.143  0.00  0.00    -0.079 Cl
ATOM     16  C   UNL     1      34.315 -21.781 -19.571  0.00  0.00    +0.156 C 
ATOM     17  C   UNL     1      34.325 -19.285 -20.765  0.00  0.00    +0.072 C 
ATOM     18  C   UNL     1      35.513 -21.100 -19.703  0.00  0.00    +0.092 C 
ATOM     19  C   UNL     1      33.122 -21.243 -20.020  0.00  0.00    +0.038 C 
ATOM     20  C   UNL     1      35.518 -19.842 -20.305  0.00  0.00    +0.018 C 
ATOM     21  C   UNL     1      33.126 -19.984 -20.623  0.00  0.00    +0.007 C 
BRANCH  17  25
ATOM     22  F   UNL     1      35.409 -17.174 -21.076  0.00  0.00    -0.166 F 
ATOM     23  F   UNL     1      34.335 -17.988 -22.776  0.00  0.00    -0.166 F 
ATOM     24  F   UNL     1      33.235 -17.194 -21.076  0.00  0.00    -0.166 F 
ATOM     25  C   UNL     1      34.328 -17.940 -21.410  0.00  0.00    +0.419 C 
ENDBRANCH  17  25
ENDBRANCH  14  16
ENDBRANCH   1  14
TORSDOF 6
ENDMDL
MODEL 7
REMARK VINA RESULT:      -9.1      9.136     11.623
REMARK  Name = 44073
REMARK  6 active torsions:
REMARK  status: ('A' for Active; 'I' for Inactive)
REMARK    1  A    between atoms: C_1  and  O_14
REMARK    2  A    between atoms: C_2  and  C_11
REMARK    3  A    between atoms: C_4  and  N_9
REMARK    4  A    between atoms: C_11  and  O_12
REMARK    5  A    between atoms: O_14  and  C_16
REMARK    6  A    between atoms: C_17  and  C_25
REMARK                            x       y       z     vdW  Elec       q    Type
REMARK                         _______ _______ _______ _____ _____    ______ ____
ROOT
ATOM      1  C   UNL     1      34.391 -16.840 -22.163  0.00  0.00    +0.146 C 
ATOM      2  C   UNL     1      33.584 -14.724 -23.005  0.00  0.00    +0.101 C 
ATOM      3  C   UNL     1      34.281 -15.916 -23.202  0.00  0.00    +0.046 C 
ATOM      4  C   UNL     1      32.997 -14.457 -21.767  0.00  0.00    +0.149 C 
ATOM      5  C   UNL     1      33.804 -16.573 -20.926  0.00  0.00    +0.039 C 
ATOM      6  C   UNL     1      33.107 -15.381 -20.728  0.00  0.00    +0.027 C 
ENDROOT
BRANCH   4   9
ATOM      7  O   UNL     1      32.233 -12.784 -20.377  0.00  0.00    -0.126 OA
ATOM      8  O   UNL     1      31.719 -12.687 -22.509  0.00  0.00    -0.126 OA
ATOM      9  N   UNL     1      32.280 -13.250 -21.540  0.00  0.00    +0.058 N 
ENDBRANCH   4   9
BRANCH   2  11
ATOM     10  O   UNL     1      32.822 -13.954 -25.137  0.00  0.00    -0.245 OA
ATOM     11  C   UNL     1      33.489 -13.784 -24.113  0.00  0.00    +0.340 C 
BRANCH  11  12
ATOM     12  O   UNL     1      34.231 -12.663 -23.906  0.00  0.00    -0.477 OA
ATOM     13  H   UNL     1      34.636 -12.229 -24.631  0.00  0.00    +0.295 HD
ENDBRANCH  11  12
ENDBRANCH   2  11
BRANCH   1  14
ATOM     14  O   UNL     1      35.074 -18.003 -22.355  0.00  0.00    -0.453 OA
BRANCH  14  16
ATOM     15 CL   UNL     1      37.485 -19.220 -21.038  0.00  0.00    -0.079 Cl
ATOM     16  C   UNL     1      34.808 -19.055 -21.495  0.00  0.00    +0.156 C 
ATOM     17  C   UNL     1      34.219 -21.150 -19.785  0.00  0.00    +0.072 C 
ATOM     18  C   UNL     1      35.839 -19.694 -20.829  0.00  0.00    +0.092 C 
ATOM     19  C   UNL     1      33.489 -19.439 -21.326  0.00  0.00    +0.038 C 
ATOM     20  C   UNL     1      35.543 -20.750 -19.967  0.00  0.00    +0.018 C 
ATOM     21  C   UNL     1      33.192 -20.495 -20.463  0.00  0.00    +0.007 C 
BRANCH  17  25
ATOM     22  F   UNL     1      34.797 -22.422 -17.842  0.00  0.00    -0.166 F 
ATOM     23  F   UNL     1      32.684 -22.160 -18.253  0.00  0.00    -0.166 F 
ATOM     24  F   UNL     1      33.874 -23.485 -19.500  0.00  0.00    -0.166 F 
ATOM     25  C   UNL     1      33.901 -22.278 -18.863  0.00  0.00    +0.419 C 
ENDBRANCH  17  25
ENDBRANCH  14  16
ENDBRANCH   1  14
TORSDOF 6
ENDMDL
MODEL 8
REMARK VINA RESULT:      -9.0      8.870     10.618
REMARK  Name = 44073
REMARK  6 active torsions:
REMARK  status: ('A' for Active; 'I' for Inactive)
REMARK    1  A    between atoms: C_1  and  O_14
REMARK    2  A    between atoms: C_2  and  C_11
REMARK    3  A    between atoms: C_4  and  N_9
REMARK    4  A    between atoms: C_11  and  O_12
REMARK    5  A    between atoms: O_14  and  C_16
REMARK    6  A    between atoms: C_17  and  C_25
REMARK                            x       y       z     vdW  Elec       q    Type
REMARK                         _______ _______ _______ _____ _____    ______ ____
ROOT
ATOM      1  C   UNL     1      35.991 -18.819 -21.133  0.00  0.00    +0.146 C 
ATOM      2  C   UNL     1      34.203 -20.269 -20.400  0.00  0.00    +0.101 C 
ATOM      3  C   UNL     1      34.629 -19.094 -21.019  0.00  0.00    +0.046 C 
ATOM      4  C   UNL     1      35.142 -21.170 -19.894  0.00  0.00    +0.149 C 
ATOM      5  C   UNL     1      36.930 -19.719 -20.627  0.00  0.00    +0.039 C 
ATOM      6  C   UNL     1      36.505 -20.895 -20.008  0.00  0.00    +0.027 C 
ENDROOT
BRANCH   4   9
ATOM      7  O   UNL     1      34.247 -23.294 -19.960  0.00  0.00    -0.126 OA
ATOM      8  O   UNL     1      34.874 -22.483 -18.018  0.00  0.00    -0.126 OA
ATOM      9  N   UNL     1      34.734 -22.375 -19.259  0.00  0.00    +0.058 N 
ENDBRANCH   4   9
BRANCH   2  11
ATOM     10  O   UNL     1      31.951 -20.333 -21.202  0.00  0.00    -0.245 OA
ATOM     11  C   UNL     1      32.772 -20.523 -20.301  0.00  0.00    +0.340 C 
BRANCH  11  12
ATOM     12  O   UNL     1      32.415 -21.005 -19.080  0.00  0.00    -0.477 OA
ATOM     13  H   UNL     1      32.151 -20.414 -18.402  0.00  0.00    +0.295 HD
ENDBRANCH  11  12
ENDBRANCH   2  11
BRANCH   1  14
ATOM     14  O   UNL     1      36.407 -17.670 -21.735  0.00  0.00    -0.453 OA
BRANCH  14  16
ATOM     15 CL   UNL     1      34.831 -15.252 -20.899  0.00  0.00    -0.079 Cl
ATOM     16  C   UNL     1      35.593 -17.128 -22.716  0.00  0.00    +0.156 C 
ATOM     17  C   UNL     1      33.986 -16.085 -24.713  0.00  0.00    +0.072 C 
ATOM     18  C   UNL     1      34.820 -16.011 -22.448  0.00  0.00    +0.092 C 
ATOM     19  C   UNL     1      35.580 -17.736 -23.959  0.00  0.00    +0.038 C 
ATOM     20  C   UNL     1      34.010 -15.486 -23.454  0.00  0.00    +0.018 C 
ATOM     21  C   UNL     1      34.770 -17.209 -24.967  0.00  0.00    +0.007 C 
BRANCH  17  25
ATOM     22  F   UNL     1      33.820 -14.910 -26.791  0.00  0.00    -0.166 F 
ATOM     23  F   UNL     1      32.350 -16.460 -26.418  0.00  0.00    -0.166 F 
ATOM     24  F   UNL     1      32.247 -14.583 -25.326  0.00  0.00    -0.166 F 
ATOM     25  C   UNL     1      33.121 -15.523 -25.791  0.00  0.00    +0.419 C 
ENDBRANCH  17  25
ENDBRANCH  14  16
ENDBRANCH   1  14
TORSDOF 6
ENDMDL
MODEL 9
REMARK VINA RESULT:      -8.9      8.637     10.324
REMARK  Name = 44073
REMARK  6 active torsions:
REMARK  status: ('A' for Active; 'I' for Inactive)
REMARK    1  A    between atoms: C_1  and  O_14
REMARK    2  A    between atoms: C_2  and  C_11
REMARK    3  A    between atoms: C_4  and  N_9
REMARK    4  A    between atoms: C_11  and  O_12
REMARK    5  A    between atoms: O_14  and  C_16
REMARK    6  A    between atoms: C_17  and  C_25
REMARK                            x       y       z     vdW  Elec       q    Type
REMARK                         _______ _______ _______ _____ _____    ______ ____
ROOT
ATOM      1  C   UNL     1      35.893 -18.764 -21.565  0.00  0.00    +0.146 C 
ATOM      2  C   UNL     1      34.301 -20.253 -20.522  0.00  0.00    +0.101 C 
ATOM      3  C   UNL     1      34.574 -19.168 -21.355  0.00  0.00    +0.046 C 
ATOM      4  C   UNL     1      35.348 -20.933 -19.897  0.00  0.00    +0.149 C 
ATOM      5  C   UNL     1      36.939 -19.444 -20.941  0.00  0.00    +0.039 C 
ATOM      6  C   UNL     1      36.666 -20.529 -20.107  0.00  0.00    +0.027 C 
ENDROOT
BRANCH   4   9
ATOM      7  O   UNL     1      35.344 -21.930 -17.819  0.00  0.00    -0.126 OA
ATOM      8  O   UNL     1      34.634 -23.096 -19.539  0.00  0.00    -0.126 OA
ATOM      9  N   UNL     1      35.096 -22.041 -19.043  0.00  0.00    +0.058 N 
ENDBRANCH   4   9
BRANCH   2  11
ATOM     10  O   UNL     1      32.016 -20.535 -21.168  0.00  0.00    -0.245 OA
ATOM     11  C   UNL     1      32.912 -20.646 -20.327  0.00  0.00    +0.340 C 
BRANCH  11  12
ATOM     12  O   UNL     1      32.689 -21.164 -19.090  0.00  0.00    -0.477 OA
ATOM     13  H   UNL     1      32.300 -22.012 -19.000  0.00  0.00    +0.295 HD
ENDBRANCH  11  12
ENDBRANCH   2  11
BRANCH   1  14
ATOM     14  O   UNL     1      36.159 -17.704 -22.377  0.00  0.00    -0.453 OA
BRANCH  14  16
ATOM     15 CL   UNL     1      35.018 -17.005 -25.068  0.00  0.00    -0.079 Cl
ATOM     16  C   UNL     1      35.257 -16.654 -22.381  0.00  0.00    +0.156 C 
ATOM     17  C   UNL     1      33.458 -14.550 -22.329  0.00  0.00    +0.072 C 
ATOM     18  C   UNL     1      34.664 -16.242 -23.562  0.00  0.00    +0.092 C 
ATOM     19  C   UNL     1      34.972 -16.038 -21.174  0.00  0.00    +0.038 C 
ATOM     20  C   UNL     1      33.758 -15.182 -23.536  0.00  0.00    +0.018 C 
ATOM     21  C   UNL     1      34.064 -14.978 -21.148  0.00  0.00    +0.007 C 
BRANCH  17  25
ATOM     22  F   UNL     1      31.723 -13.380 -21.169  0.00  0.00    -0.166 F 
ATOM     23  F   UNL     1      33.080 -12.188 -22.369  0.00  0.00    -0.166 F 
ATOM     24  F   UNL     1      31.604 -13.456 -23.339  0.00  0.00    -0.166 F 
ATOM     25  C   UNL     1      32.488 -13.418 -22.299  0.00  0.00    +0.419 C 
ENDBRANCH  17  25
ENDBRANCH  14  16
ENDBRANCH   1  14
TORSDOF 6
ENDMDL
