MODEL 1
REMARK VINA RESULT:      -7.1      0.000      0.000
REMARK  Name = 5857
REMARK  2 active torsions:
REMARK  status: ('A' for Active; 'I' for Inactive)
REMARK    1  A    between atoms: C_6  and  O_19
REMARK    2  A    between atoms: C_6  and  C_21
REMARK                            x       y       z     vdW  Elec       q    Type
REMARK                         _______ _______ _______ _____ _____    ______ ____
ROOT
ATOM      1  C   UNL     1      32.418  -8.785 -21.936  0.00  0.00    +0.003 C 
ATOM      2  C   UNL     1      32.136  -8.467 -23.422  0.00  0.00    +0.033 C 
ATOM      3  C   UNL     1      31.823 -10.125 -21.492  0.00  0.00    +0.001 C 
ATOM      4  C   UNL     1      32.439 -11.269 -22.367  0.00  0.00    +0.004 C 
ATOM      5  C   UNL     1      32.786  -9.569 -24.279  0.00  0.00    +0.003 C 
ATOM      6  C   UNL     1      32.745  -7.036 -23.524  0.00  0.00    +0.142 C 
ATOM      7  C   UNL     1      31.982  -7.515 -21.210  0.00  0.00    +0.004 C 
ATOM      8  C   UNL     1      32.301 -10.975 -23.880  0.00  0.00    +0.000 C 
ATOM      9  C   UNL     1      31.818 -12.631 -21.942  0.00  0.00    +0.018 C 
ATOM     10  C   UNL     1      32.298  -6.372 -22.195  0.00  0.00    +0.039 C 
ATOM     11  C   UNL     1      32.051 -10.388 -19.992  0.00  0.00    +0.004 C 
ATOM     12  C   UNL     1      30.620  -8.408 -23.772  0.00  0.00    +0.003 C 
ATOM     13  C   UNL     1      32.104 -12.821 -20.461  0.00  0.00    -0.049 C 
ATOM     14  C   UNL     1      31.523 -11.759 -19.568  0.00  0.00    +0.022 C 
ATOM     15  C   UNL     1      32.262 -13.855 -22.768  0.00  0.00    +0.004 C 
ATOM     16  C   UNL     1      33.619 -14.389 -22.324  0.00  0.00    +0.005 C 
ATOM     17  C   UNL     1      32.876 -13.812 -19.984  0.00  0.00    -0.035 C 
ATOM     18  C   UNL     1      33.577 -14.809 -20.856  0.00  0.00    +0.025 C 
ENDROOT
BRANCH   6  19
ATOM     19  O   UNL     1      32.220  -6.324 -24.636  0.00  0.00    -0.375 OA
ATOM     20  H   UNL     1      32.839  -6.382 -25.380  0.00  0.00    +0.211 HD
ENDBRANCH   6  19
BRANCH   6  21
ATOM     21  C   UNL     1      34.219  -7.028 -23.624  0.00  0.00    -0.053 C 
ATOM     22  C   UNL     1      35.416  -7.023 -23.705  0.00  0.00    -0.012 C 
ENDBRANCH   6  21
TORSDOF 2
ENDMDL
MODEL 2
REMARK VINA RESULT:      -7.0     14.398     16.631
REMARK  Name = 5857
REMARK  2 active torsions:
REMARK  status: ('A' for Active; 'I' for Inactive)
REMARK    1  A    between atoms: C_6  and  O_19
REMARK    2  A    between atoms: C_6  and  C_21
REMARK                            x       y       z     vdW  Elec       q    Type
REMARK                         _______ _______ _______ _____ _____    ______ ____
ROOT
ATOM      1  C   UNL     1      35.830 -23.677 -15.058  0.00  0.00    +0.003 C 
ATOM      2  C   UNL     1      36.225 -24.834 -14.112  0.00  0.00    +0.033 C 
ATOM      3  C   UNL     1      34.516 -23.938 -15.799  0.00  0.00    +0.001 C 
ATOM      4  C   UNL     1      33.369 -24.129 -14.749  0.00  0.00    +0.004 C 
ATOM      5  C   UNL     1      35.118 -24.986 -13.053  0.00  0.00    +0.003 C 
ATOM      6  C   UNL     1      37.616 -24.334 -13.618  0.00  0.00    +0.142 C 
ATOM      7  C   UNL     1      37.097 -23.436 -15.876  0.00  0.00    +0.004 C 
ATOM      8  C   UNL     1      33.732 -25.198 -13.690  0.00  0.00    +0.000 C 
ATOM      9  C   UNL     1      32.035 -24.424 -15.493  0.00  0.00    +0.018 C 
ATOM     10  C   UNL     1      38.255 -23.754 -14.909  0.00  0.00    +0.039 C 
ATOM     11  C   UNL     1      34.179 -22.807 -16.789  0.00  0.00    +0.004 C 
ATOM     12  C   UNL     1      36.397 -26.202 -14.837  0.00  0.00    +0.003 C 
ATOM     13  C   UNL     1      31.768 -23.258 -16.430  0.00  0.00    -0.049 C 
ATOM     14  C   UNL     1      32.830 -23.034 -17.472  0.00  0.00    +0.022 C 
ATOM     15  C   UNL     1      30.819 -24.720 -14.593  0.00  0.00    +0.004 C 
ATOM     16  C   UNL     1      30.180 -23.447 -14.050  0.00  0.00    +0.005 C 
ATOM     17  C   UNL     1      30.710 -22.438 -16.300  0.00  0.00    -0.035 C 
ATOM     18  C   UNL     1      29.706 -22.553 -15.194  0.00  0.00    +0.025 C 
ENDROOT
BRANCH   6  19
ATOM     19  O   UNL     1      38.405 -25.402 -13.111  0.00  0.00    -0.375 OA
ATOM     20  H   UNL     1      37.865 -26.205 -13.057  0.00  0.00    +0.211 HD
ENDBRANCH   6  19
BRANCH   6  21
ATOM     21  C   UNL     1      37.531 -23.286 -12.581  0.00  0.00    -0.053 C 
ATOM     22  C   UNL     1      37.462 -22.437 -11.737  0.00  0.00    -0.012 C 
ENDBRANCH   6  21
TORSDOF 2
ENDMDL
MODEL 3
REMARK VINA RESULT:      -7.0     14.088     16.407
REMARK  Name = 5857
REMARK  2 active torsions:
REMARK  status: ('A' for Active; 'I' for Inactive)
REMARK    1  A    between atoms: C_6  and  O_19
REMARK    2  A    between atoms: C_6  and  C_21
REMARK                            x       y       z     vdW  Elec       q    Type
REMARK                         _______ _______ _______ _____ _____    ______ ____
ROOT
ATOM      1  C   UNL     1      32.662 -23.473 -15.741  0.00  0.00    +0.003 C 
ATOM      2  C   UNL     1      31.625 -23.398 -14.597  0.00  0.00    +0.033 C 
ATOM      3  C   UNL     1      34.088 -23.172 -15.270  0.00  0.00    +0.001 C 
ATOM      4  C   UNL     1      34.491 -24.214 -14.171  0.00  0.00    +0.004 C 
ATOM      5  C   UNL     1      31.999 -24.457 -13.543  0.00  0.00    +0.003 C 
ATOM      6  C   UNL     1      30.306 -23.627 -15.396  0.00  0.00    +0.142 C 
ATOM      7  C   UNL     1      32.052 -22.599 -16.834  0.00  0.00    +0.004 C 
ATOM      8  C   UNL     1      33.442 -24.285 -13.036  0.00  0.00    +0.000 C 
ATOM      9  C   UNL     1      35.928 -23.897 -13.666  0.00  0.00    +0.018 C 
ATOM     10  C   UNL     1      30.530 -22.785 -16.682  0.00  0.00    +0.039 C 
ATOM     11  C   UNL     1      35.093 -23.179 -16.438  0.00  0.00    +0.004 C 
ATOM     12  C   UNL     1      31.569 -22.010 -13.895  0.00  0.00    +0.003 C 
ATOM     13  C   UNL     1      36.855 -23.943 -14.870  0.00  0.00    -0.049 C 
ATOM     14  C   UNL     1      36.527 -22.953 -15.954  0.00  0.00    +0.022 C 
ATOM     15  C   UNL     1      36.444 -24.786 -12.517  0.00  0.00    +0.004 C 
ATOM     16  C   UNL     1      36.966 -26.128 -13.016  0.00  0.00    +0.005 C 
ATOM     17  C   UNL     1      37.846 -24.843 -15.000  0.00  0.00    -0.035 C 
ATOM     18  C   UNL     1      38.117 -25.926 -14.001  0.00  0.00    +0.025 C 
ENDROOT
BRANCH   6  19
ATOM     19  O   UNL     1      29.175 -23.150 -14.681  0.00  0.00    -0.375 OA
ATOM     20  H   UNL     1      29.315 -23.279 -13.731  0.00  0.00    +0.211 HD
ENDBRANCH   6  19
BRANCH   6  21
ATOM     21  C   UNL     1      30.069 -25.041 -15.750  0.00  0.00    -0.053 C 
ATOM     22  C   UNL     1      29.875 -26.189 -16.038  0.00  0.00    -0.012 C 
ENDBRANCH   6  21
TORSDOF 2
ENDMDL
MODEL 4
REMARK VINA RESULT:      -6.8      4.766      8.782
REMARK  Name = 5857
REMARK  2 active torsions:
REMARK  status: ('A' for Active; 'I' for Inactive)
REMARK    1  A    between atoms: C_6  and  O_19
REMARK    2  A    between atoms: C_6  and  C_21
REMARK                            x       y       z     vdW  Elec       q    Type
REMARK                         _______ _______ _______ _____ _____    ______ ____
ROOT
ATOM      1  C   UNL     1      34.600 -17.402 -23.644  0.00  0.00    +0.003 C 
ATOM      2  C   UNL     1      34.551 -17.558 -22.108  0.00  0.00    +0.033 C 
ATOM      3  C   UNL     1      33.665 -16.304 -24.160  0.00  0.00    +0.001 C 
ATOM      4  C   UNL     1      34.078 -14.938 -23.514  0.00  0.00    +0.004 C 
ATOM      5  C   UNL     1      35.005 -16.228 -21.477  0.00  0.00    +0.003 C 
ATOM      6  C   UNL     1      35.488 -18.789 -21.918  0.00  0.00    +0.142 C 
ATOM      7  C   UNL     1      34.407 -18.828 -24.154  0.00  0.00    +0.004 C 
ATOM      8  C   UNL     1      34.165 -15.036 -21.972  0.00  0.00    +0.000 C 
ATOM      9  C   UNL     1      33.114 -13.823 -24.010  0.00  0.00    +0.018 C 
ATOM     10  C   UNL     1      35.080 -19.719 -23.091  0.00  0.00    +0.039 C 
ATOM     11  C   UNL     1      33.674 -16.216 -25.698  0.00  0.00    +0.004 C 
ATOM     12  C   UNL     1      33.134 -17.898 -21.559  0.00  0.00    +0.003 C 
ATOM     13  C   UNL     1      33.198 -13.790 -25.528  0.00  0.00    -0.049 C 
ATOM     14  C   UNL     1      32.798 -15.071 -26.207  0.00  0.00    +0.022 C 
ATOM     15  C   UNL     1      33.337 -12.426 -23.398  0.00  0.00    +0.004 C 
ATOM     16  C   UNL     1      34.479 -11.675 -24.074  0.00  0.00    +0.005 C 
ATOM     17  C   UNL     1      33.664 -12.731 -26.214  0.00  0.00    -0.035 C 
ATOM     18  C   UNL     1      34.193 -11.490 -25.564  0.00  0.00    +0.025 C 
ENDROOT
BRANCH   6  19
ATOM     19  O   UNL     1      35.258 -19.432 -20.672  0.00  0.00    -0.375 OA
ATOM     20  H   UNL     1      35.917 -19.131 -20.027  0.00  0.00    +0.211 HD
ENDBRANCH   6  19
BRANCH   6  21
ATOM     21  C   UNL     1      36.924 -18.457 -22.010  0.00  0.00    -0.053 C 
ATOM     22  C   UNL     1      38.091 -18.188 -22.085  0.00  0.00    -0.012 C 
ENDBRANCH   6  21
TORSDOF 2
ENDMDL
MODEL 5
REMARK VINA RESULT:      -6.7      6.800     10.490
REMARK  Name = 5857
REMARK  2 active torsions:
REMARK  status: ('A' for Active; 'I' for Inactive)
REMARK    1  A    between atoms: C_6  and  O_19
REMARK    2  A    between atoms: C_6  and  C_21
REMARK                            x       y       z     vdW  Elec       q    Type
REMARK                         _______ _______ _______ _____ _____    ______ ____
ROOT
ATOM      1  C   UNL     1      34.247 -19.115 -21.077  0.00  0.00    +0.003 C 
ATOM      2  C   UNL     1      35.472 -18.540 -21.823  0.00  0.00    +0.033 C 
ATOM      3  C   UNL     1      34.487 -20.530 -20.543  0.00  0.00    +0.001 C 
ATOM      4  C   UNL     1      35.699 -20.500 -19.550  0.00  0.00    +0.004 C 
ATOM      5  C   UNL     1      36.646 -18.467 -20.829  0.00  0.00    +0.003 C 
ATOM      6  C   UNL     1      34.886 -17.187 -22.329  0.00  0.00    +0.142 C 
ATOM      7  C   UNL     1      33.095 -18.887 -22.053  0.00  0.00    +0.004 C 
ATOM      8  C   UNL     1      36.943 -19.833 -20.183  0.00  0.00    +0.000 C 
ATOM      9  C   UNL     1      35.969 -21.940 -19.026  0.00  0.00    +0.018 C 
ATOM     10  C   UNL     1      33.454 -17.578 -22.785  0.00  0.00    +0.039 C 
ATOM     11  C   UNL     1      33.231 -21.112 -19.869  0.00  0.00    +0.004 C 
ATOM     12  C   UNL     1      35.919 -19.397 -23.044  0.00  0.00    +0.003 C 
ATOM     13  C   UNL     1      34.692 -22.430 -18.362  0.00  0.00    -0.049 C 
ATOM     14  C   UNL     1      33.495 -22.495 -19.271  0.00  0.00    +0.022 C 
ATOM     15  C   UNL     1      37.189 -22.095 -18.097  0.00  0.00    +0.004 C 
ATOM     16  C   UNL     1      36.879 -21.682 -16.663  0.00  0.00    +0.005 C 
ATOM     17  C   UNL     1      34.609 -22.712 -17.049  0.00  0.00    -0.035 C 
ATOM     18  C   UNL     1      35.746 -22.533 -16.091  0.00  0.00    +0.025 C 
ENDROOT
BRANCH   6  19
ATOM     19  O   UNL     1      35.632 -16.672 -23.423  0.00  0.00    -0.375 OA
ATOM     20  H   UNL     1      35.023 -16.357 -24.109  0.00  0.00    +0.211 HD
ENDBRANCH   6  19
BRANCH   6  21
ATOM     21  C   UNL     1      34.818 -16.146 -21.283  0.00  0.00    -0.053 C 
ATOM     22  C   UNL     1      34.762 -15.301 -20.434  0.00  0.00    -0.012 C 
ENDBRANCH   6  21
TORSDOF 2
ENDMDL
MODEL 6
REMARK VINA RESULT:      -6.7     14.603     16.311
REMARK  Name = 5857
REMARK  2 active torsions:
REMARK  status: ('A' for Active; 'I' for Inactive)
REMARK    1  A    between atoms: C_6  and  O_19
REMARK    2  A    between atoms: C_6  and  C_21
REMARK                            x       y       z     vdW  Elec       q    Type
REMARK                         _______ _______ _______ _____ _____    ______ ____
ROOT
ATOM      1  C   UNL     1      34.828 -24.043 -13.995  0.00  0.00    +0.003 C 
ATOM      2  C   UNL     1      35.747 -23.615 -15.162  0.00  0.00    +0.033 C 
ATOM      3  C   UNL     1      33.475 -23.325 -14.011  0.00  0.00    +0.001 C 
ATOM      4  C   UNL     1      32.744 -23.649 -15.359  0.00  0.00    +0.004 C 
ATOM      5  C   UNL     1      35.045 -23.980 -16.483  0.00  0.00    +0.003 C 
ATOM      6  C   UNL     1      37.043 -24.405 -14.805  0.00  0.00    +0.142 C 
ATOM      7  C   UNL     1      35.720 -23.896 -12.765  0.00  0.00    +0.004 C 
ATOM      8  C   UNL     1      33.641 -23.354 -16.585  0.00  0.00    +0.000 C 
ATOM      9  C   UNL     1      31.381 -22.900 -15.396  0.00  0.00    +0.018 C 
ATOM     10  C   UNL     1      37.138 -24.239 -13.265  0.00  0.00    +0.039 C 
ATOM     11  C   UNL     1      32.605 -23.711 -12.800  0.00  0.00    +0.004 C 
ATOM     12  C   UNL     1      36.062 -22.090 -15.182  0.00  0.00    +0.003 C 
ATOM     13  C   UNL     1      30.580 -23.349 -14.184  0.00  0.00    -0.049 C 
ATOM     14  C   UNL     1      31.226 -23.051 -12.859  0.00  0.00    +0.022 C 
ATOM     15  C   UNL     1      30.571 -23.049 -16.699  0.00  0.00    +0.004 C 
ATOM     16  C   UNL     1      29.798 -24.362 -16.752  0.00  0.00    +0.005 C 
ATOM     17  C   UNL     1      29.423 -24.028 -14.279  0.00  0.00    -0.035 C 
ATOM     18  C   UNL     1      28.819 -24.455 -15.582  0.00  0.00    +0.025 C 
ENDROOT
BRANCH   6  19
ATOM     19  O   UNL     1      38.186 -23.844 -15.436  0.00  0.00    -0.375 OA
ATOM     20  H   UNL     1      38.756 -23.435 -14.767  0.00  0.00    +0.211 HD
ENDBRANCH   6  19
BRANCH   6  21
ATOM     21  C   UNL     1      36.975 -25.838 -15.157  0.00  0.00    -0.053 C 
ATOM     22  C   UNL     1      36.920 -27.002 -15.442  0.00  0.00    -0.012 C 
ENDBRANCH   6  21
TORSDOF 2
ENDMDL
MODEL 7
REMARK VINA RESULT:      -5.7      2.603      6.194
REMARK  Name = 5857
REMARK  2 active torsions:
REMARK  status: ('A' for Active; 'I' for Inactive)
REMARK    1  A    between atoms: C_6  and  O_19
REMARK    2  A    between atoms: C_6  and  C_21
REMARK                            x       y       z     vdW  Elec       q    Type
REMARK                         _______ _______ _______ _____ _____    ______ ____
ROOT
ATOM      1  C   UNL     1      32.554 -11.711 -23.528  0.00  0.00    +0.003 C 
ATOM      2  C   UNL     1      33.881 -12.417 -23.888  0.00  0.00    +0.033 C 
ATOM      3  C   UNL     1      32.767 -10.327 -22.908  0.00  0.00    +0.001 C 
ATOM      4  C   UNL     1      33.542  -9.426 -23.928  0.00  0.00    +0.004 C 
ATOM      5  C   UNL     1      34.616 -11.551 -24.928  0.00  0.00    +0.003 C 
ATOM      6  C   UNL     1      33.345 -13.799 -24.368  0.00  0.00    +0.142 C 
ATOM      7  C   UNL     1      31.796 -12.765 -22.725  0.00  0.00    +0.004 C 
ATOM      8  C   UNL     1      34.836 -10.110 -24.430  0.00  0.00    +0.000 C 
ATOM      9  C   UNL     1      33.788  -8.027 -23.294  0.00  0.00    +0.018 C 
ATOM     10  C   UNL     1      32.223 -14.112 -23.342  0.00  0.00    +0.039 C 
ATOM     11  C   UNL     1      31.436  -9.674 -22.489  0.00  0.00    +0.004 C 
ATOM     12  C   UNL     1      34.829 -12.625 -22.670  0.00  0.00    +0.003 C 
ATOM     13  C   UNL     1      32.431  -7.447 -22.929  0.00  0.00    -0.049 C 
ATOM     14  C   UNL     1      31.645  -8.262 -21.939  0.00  0.00    +0.022 C 
ATOM     15  C   UNL     1      34.616  -7.044 -24.144  0.00  0.00    +0.004 C 
ATOM     16  C   UNL     1      33.777  -6.358 -25.216  0.00  0.00    +0.005 C 
ATOM     17  C   UNL     1      31.931  -6.335 -23.497  0.00  0.00    -0.035 C 
ATOM     18  C   UNL     1      32.631  -5.573 -24.580  0.00  0.00    +0.025 C 
ENDROOT
BRANCH   6  19
ATOM     19  O   UNL     1      34.356 -14.797 -24.317  0.00  0.00    -0.375 OA
ATOM     20  H   UNL     1      35.179 -14.442 -24.687  0.00  0.00    +0.211 HD
ENDBRANCH   6  19
BRANCH   6  21
ATOM     21  C   UNL     1      32.789 -13.773 -25.736  0.00  0.00    -0.053 C 
ATOM     22  C   UNL     1      32.337 -13.752 -26.848  0.00  0.00    -0.012 C 
ENDBRANCH   6  21
TORSDOF 2
ENDMDL
MODEL 8
REMARK VINA RESULT:      -5.6     12.971     16.280
REMARK  Name = 5857
REMARK  2 active torsions:
REMARK  status: ('A' for Active; 'I' for Inactive)
REMARK    1  A    between atoms: C_6  and  O_19
REMARK    2  A    between atoms: C_6  and  C_21
REMARK                            x       y       z     vdW  Elec       q    Type
REMARK                         _______ _______ _______ _____ _____    ______ ____
ROOT
ATOM      1  C   UNL     1      36.200 -24.373 -14.745  0.00  0.00    +0.003 C 
ATOM      2  C   UNL     1      37.455 -23.708 -14.136  0.00  0.00    +0.033 C 
ATOM      3  C   UNL     1      35.352 -23.398 -15.568  0.00  0.00    +0.001 C 
ATOM      4  C   UNL     1      36.224 -22.828 -16.738  0.00  0.00    +0.004 C 
ATOM      5  C   UNL     1      38.332 -23.193 -15.292  0.00  0.00    +0.003 C 
ATOM      6  C   UNL     1      38.018 -24.890 -13.290  0.00  0.00    +0.142 C 
ATOM      7  C   UNL     1      35.555 -25.078 -13.554  0.00  0.00    +0.004 C 
ATOM      8  C   UNL     1      37.561 -22.241 -16.225  0.00  0.00    +0.000 C 
ATOM      9  C   UNL     1      35.379 -21.814 -17.561  0.00  0.00    +0.018 C 
ATOM     10  C   UNL     1      36.739 -25.511 -12.667  0.00  0.00    +0.039 C 
ATOM     11  C   UNL     1      34.069 -24.061 -16.103  0.00  0.00    +0.004 C 
ATOM     12  C   UNL     1      37.134 -22.509 -13.196  0.00  0.00    +0.003 C 
ATOM     13  C   UNL     1      34.149 -22.551 -18.067  0.00  0.00    -0.049 C 
ATOM     14  C   UNL     1      33.263 -23.108 -16.987  0.00  0.00    +0.022 C 
ATOM     15  C   UNL     1      36.123 -21.099 -18.706  0.00  0.00    +0.004 C 
ATOM     16  C   UNL     1      36.222 -21.962 -19.959  0.00  0.00    +0.005 C 
ATOM     17  C   UNL     1      33.902 -22.759 -19.372  0.00  0.00    -0.035 C 
ATOM     18  C   UNL     1      34.830 -22.332 -20.468  0.00  0.00    +0.025 C 
ENDROOT
BRANCH   6  19
ATOM     19  O   UNL     1      38.895 -24.430 -12.270  0.00  0.00    -0.375 OA
ATOM     20  H   UNL     1      39.549 -23.827 -12.654  0.00  0.00    +0.211 HD
ENDBRANCH   6  19
BRANCH   6  21
ATOM     21  C   UNL     1      38.733 -25.902 -14.094  0.00  0.00    -0.053 C 
ATOM     22  C   UNL     1      39.314 -26.724 -14.748  0.00  0.00    -0.012 C 
ENDBRANCH   6  21
TORSDOF 2
ENDMDL
MODEL 9
REMARK VINA RESULT:      -5.5     11.229     15.034
REMARK  Name = 5857
REMARK  2 active torsions:
REMARK  status: ('A' for Active; 'I' for Inactive)
REMARK    1  A    between atoms: C_6  and  O_19
REMARK    2  A    between atoms: C_6  and  C_21
REMARK                            x       y       z     vdW  Elec       q    Type
REMARK                         _______ _______ _______ _____ _____    ______ ____
ROOT
ATOM      1  C   UNL     1      34.870 -22.932 -15.223  0.00  0.00    +0.003 C 
ATOM      2  C   UNL     1      33.842 -24.086 -15.219  0.00  0.00    +0.033 C 
ATOM      3  C   UNL     1      35.584 -22.777 -16.569  0.00  0.00    +0.001 C 
ATOM      4  C   UNL     1      34.517 -22.490 -17.680  0.00  0.00    +0.004 C 
ATOM      5  C   UNL     1      32.769 -23.775 -16.279  0.00  0.00    +0.003 C 
ATOM      6  C   UNL     1      33.393 -24.060 -13.726  0.00  0.00    +0.142 C 
ATOM      7  C   UNL     1      35.709 -23.197 -13.975  0.00  0.00    +0.004 C 
ATOM      8  C   UNL     1      33.383 -23.543 -17.673  0.00  0.00    +0.000 C 
ATOM      9  C   UNL     1      35.231 -22.361 -19.056  0.00  0.00    +0.018 C 
ATOM     10  C   UNL     1      34.726 -23.825 -12.967  0.00  0.00    +0.039 C 
ATOM     11  C   UNL     1      36.655 -21.670 -16.528  0.00  0.00    +0.004 C 
ATOM     12  C   UNL     1      34.463 -25.476 -15.546  0.00  0.00    +0.003 C 
ATOM     13  C   UNL     1      36.252 -21.241 -18.936  0.00  0.00    -0.049 C 
ATOM     14  C   UNL     1      37.313 -21.467 -17.894  0.00  0.00    +0.022 C 
ATOM     15  C   UNL     1      34.307 -22.158 -20.273  0.00  0.00    +0.004 C 
ATOM     16  C   UNL     1      33.858 -20.709 -20.422  0.00  0.00    +0.005 C 
ATOM     17  C   UNL     1      36.179 -20.101 -19.646  0.00  0.00    -0.035 C 
ATOM     18  C   UNL     1      35.064 -19.788 -20.596  0.00  0.00    +0.025 C 
ENDROOT
BRANCH   6  19
ATOM     19  O   UNL     1      32.810 -25.296 -13.335  0.00  0.00    -0.375 OA
ATOM     20  H   UNL     1      31.968 -25.128 -12.885  0.00  0.00    +0.211 HD
ENDBRANCH   6  19
BRANCH   6  21
ATOM     21  C   UNL     1      32.436 -22.978 -13.418  0.00  0.00    -0.053 C 
ATOM     22  C   UNL     1      31.659 -22.100 -13.166  0.00  0.00    -0.012 C 
ENDBRANCH   6  21
TORSDOF 2
ENDMDL
