MODEL 1
REMARK VINA RESULT:     -10.7      0.000      0.000
REMARK  Name = 21071390
REMARK  9 active torsions:
REMARK  status: ('A' for Active; 'I' for Inactive)
REMARK    1  A    between atoms: N_1  and  C_4
REMARK    2  A    between atoms: N_1  and  C_17
REMARK    3  A    between atoms: C_4  and  C_5
REMARK    4  A    between atoms: C_5  and  C_8
REMARK    5  A    between atoms: C_17  and  C_18
REMARK    6  A    between atoms: C_21  and  O_24
REMARK    7  A    between atoms: O_24  and  C_25
REMARK    8  A    between atoms: C_25  and  C_28
REMARK    9  A    between atoms: C_28  and  C_31
REMARK                            x       y       z     vdW  Elec       q    Type
REMARK                         _______ _______ _______ _____ _____    ______ ____
ROOT
ATOM      1  N   UNL     1      35.003 -19.496 -22.770  0.00  0.00    +0.387 N 
ATOM      2  H   UNL     1      35.930 -19.177 -22.489  0.00  0.00    -0.084 HD
ATOM      3  H   UNL     1      35.026 -20.485 -23.018  0.00  0.00    -0.084 HD
ENDROOT
BRANCH   1   4
ATOM      4  C   UNL     1      34.567 -18.732 -23.935  0.00  0.00    -0.076 C 
BRANCH   4   5
ATOM      5  C   UNL     1      35.311 -17.388 -24.050  0.00  0.00    +0.004 C 
BRANCH   5   8
ATOM      6  F   UNL     1      32.098 -12.928 -20.240  0.00  0.00    -0.204 F 
ATOM      7  N   UNL     1      33.070 -14.584 -24.716  0.00  0.00    -0.312 N 
ATOM      8  C   UNL     1      34.402 -16.225 -24.038  0.00  0.00    -0.008 C 
ATOM      9  C   UNL     1      33.937 -15.524 -22.889  0.00  0.00    +0.011 C 
ATOM     10  C   UNL     1      33.104 -14.500 -23.343  0.00  0.00    +0.050 C 
ATOM     11  C   UNL     1      33.851 -15.622 -25.146  0.00  0.00    +0.057 C 
ATOM     12  C   UNL     1      34.147 -15.664 -21.503  0.00  0.00    +0.003 C 
ATOM     13  C   UNL     1      32.467 -13.606 -22.476  0.00  0.00    +0.044 C 
ATOM     14  C   UNL     1      33.516 -14.777 -20.624  0.00  0.00    +0.030 C 
ATOM     15  C   UNL     1      32.689 -13.764 -21.105  0.00  0.00    +0.141 C 
ATOM     16  H   UNL     1      32.557 -13.983 -25.305  0.00  0.00    +0.152 HD
ENDBRANCH   5   8
ENDBRANCH   4   5
ENDBRANCH   1   4
BRANCH   1  17
ATOM     17  C   UNL     1      34.081 -19.316 -21.658  0.00  0.00    -0.054 C 
BRANCH  17  18
ATOM     18  C   UNL     1      34.298 -20.342 -20.577  0.00  0.00    -0.041 C 
ATOM     19  C   UNL     1      33.204 -20.909 -19.925  0.00  0.00    +0.031 C 
ATOM     20  C   UNL     1      35.594 -20.724 -20.230  0.00  0.00    -0.006 C 
ATOM     21  C   UNL     1      33.406 -21.859 -18.924  0.00  0.00    +0.138 C 
ATOM     22  C   UNL     1      35.795 -21.675 -19.229  0.00  0.00    +0.003 C 
ATOM     23  C   UNL     1      34.701 -22.243 -18.576  0.00  0.00    +0.037 C 
BRANCH  21  24
ATOM     24  O   UNL     1      32.339 -22.415 -18.287  0.00  0.00    -0.469 OA
BRANCH  24  25
ATOM     25  C   UNL     1      32.602 -23.116 -17.072  0.00  0.00    +0.277 C 
BRANCH  25  28
ATOM     26  F   UNL     1      30.855 -24.485 -16.309  0.00  0.00    -0.194 F 
ATOM     27  F   UNL     1      30.369 -22.430 -16.856  0.00  0.00    -0.194 F 
ATOM     28  C   UNL     1      31.316 -23.209 -16.275  0.00  0.00    +0.363 C 
BRANCH  28  31
ATOM     29  F   UNL     1      32.117 -23.776 -14.151  0.00  0.00    -0.192 F 
ATOM     30  F   UNL     1      30.273 -22.622 -14.252  0.00  0.00    -0.192 F 
ATOM     31  C   UNL     1      31.485 -22.788 -14.835  0.00  0.00    +0.382 C 
ENDBRANCH  28  31
ENDBRANCH  25  28
ENDBRANCH  24  25
ENDBRANCH  21  24
ENDBRANCH  17  18
ENDBRANCH   1  17
TORSDOF 9
ENDMDL
MODEL 2
REMARK VINA RESULT:     -10.6      4.527      7.296
REMARK  Name = 21071390
REMARK  9 active torsions:
REMARK  status: ('A' for Active; 'I' for Inactive)
REMARK    1  A    between atoms: N_1  and  C_4
REMARK    2  A    between atoms: N_1  and  C_17
REMARK    3  A    between atoms: C_4  and  C_5
REMARK    4  A    between atoms: C_5  and  C_8
REMARK    5  A    between atoms: C_17  and  C_18
REMARK    6  A    between atoms: C_21  and  O_24
REMARK    7  A    between atoms: O_24  and  C_25
REMARK    8  A    between atoms: C_25  and  C_28
REMARK    9  A    between atoms: C_28  and  C_31
REMARK                            x       y       z     vdW  Elec       q    Type
REMARK                         _______ _______ _______ _____ _____    ______ ____
ROOT
ATOM      1  N   UNL     1      31.947 -13.199 -22.600  0.00  0.00    +0.387 N 
ATOM      2  H   UNL     1      31.294 -12.558 -23.052  0.00  0.00    -0.084 HD
ATOM      3  H   UNL     1      31.602 -14.158 -22.656  0.00  0.00    -0.084 HD
ENDROOT
BRANCH   1   4
ATOM      4  C   UNL     1      32.082 -12.832 -21.195  0.00  0.00    -0.076 C 
BRANCH   4   5
ATOM      5  C   UNL     1      31.033 -11.787 -20.771  0.00  0.00    +0.004 C 
BRANCH   5   8
ATOM      6  F   UNL     1      32.823  -6.010 -23.628  0.00  0.00    -0.204 F 
ATOM      7  N   UNL     1      32.508  -8.673 -19.562  0.00  0.00    -0.312 N 
ATOM      8  C   UNL     1      31.612 -10.446 -20.553  0.00  0.00    -0.008 C 
ATOM      9  C   UNL     1      31.830  -9.445 -21.542  0.00  0.00    +0.011 C 
ATOM     10  C   UNL     1      32.393  -8.344 -20.894  0.00  0.00    +0.050 C 
ATOM     11  C   UNL     1      32.039  -9.941 -19.346  0.00  0.00    +0.057 C 
ATOM     12  C   UNL     1      31.602  -9.372 -22.930  0.00  0.00    +0.003 C 
ATOM     13  C   UNL     1      32.740  -7.168 -21.568  0.00  0.00    +0.044 C 
ATOM     14  C   UNL     1      31.945  -8.202 -23.618  0.00  0.00    +0.030 C 
ATOM     15  C   UNL     1      32.505  -7.118 -22.944  0.00  0.00    +0.141 C 
ATOM     16  H   UNL     1      32.875  -8.082 -18.865  0.00  0.00    +0.152 HD
ENDBRANCH   5   8
ENDBRANCH   4   5
ENDBRANCH   1   4
BRANCH   1  17
ATOM     17  C   UNL     1      33.232 -13.127 -23.281  0.00  0.00    -0.054 C 
BRANCH  17  18
ATOM     18  C   UNL     1      33.713 -14.486 -23.717  0.00  0.00    -0.041 C 
ATOM     19  C   UNL     1      34.408 -15.299 -22.823  0.00  0.00    +0.031 C 
ATOM     20  C   UNL     1      33.462 -14.929 -25.016  0.00  0.00    -0.006 C 
ATOM     21  C   UNL     1      34.854 -16.557 -23.228  0.00  0.00    +0.138 C 
ATOM     22  C   UNL     1      33.907 -16.188 -25.420  0.00  0.00    +0.003 C 
ATOM     23  C   UNL     1      34.603 -17.002 -24.526  0.00  0.00    +0.037 C 
BRANCH  21  24
ATOM     24  O   UNL     1      35.532 -17.352 -22.357  0.00  0.00    -0.469 OA
BRANCH  24  25
ATOM     25  C   UNL     1      34.821 -17.811 -21.208  0.00  0.00    +0.277 C 
BRANCH  25  28
ATOM     26  F   UNL     1      35.679 -19.854 -20.434  0.00  0.00    -0.194 F 
ATOM     27  F   UNL     1      35.026 -19.749 -22.513  0.00  0.00    -0.194 F 
ATOM     28  C   UNL     1      34.739 -19.323 -21.257  0.00  0.00    +0.363 C 
BRANCH  28  31
ATOM     29  F   UNL     1      32.552 -18.809 -20.604  0.00  0.00    -0.192 F 
ATOM     30  F   UNL     1      33.480 -20.561 -19.706  0.00  0.00    -0.192 F 
ATOM     31  C   UNL     1      33.383 -19.852 -20.856  0.00  0.00    +0.382 C 
ENDBRANCH  28  31
ENDBRANCH  25  28
ENDBRANCH  24  25
ENDBRANCH  21  24
ENDBRANCH  17  18
ENDBRANCH   1  17
TORSDOF 9
ENDMDL
MODEL 3
REMARK VINA RESULT:     -10.6      5.620      9.825
REMARK  Name = 21071390
REMARK  9 active torsions:
REMARK  status: ('A' for Active; 'I' for Inactive)
REMARK    1  A    between atoms: N_1  and  C_4
REMARK    2  A    between atoms: N_1  and  C_17
REMARK    3  A    between atoms: C_4  and  C_5
REMARK    4  A    between atoms: C_5  and  C_8
REMARK    5  A    between atoms: C_17  and  C_18
REMARK    6  A    between atoms: C_21  and  O_24
REMARK    7  A    between atoms: O_24  and  C_25
REMARK    8  A    between atoms: C_25  and  C_28
REMARK    9  A    between atoms: C_28  and  C_31
REMARK                            x       y       z     vdW  Elec       q    Type
REMARK                         _______ _______ _______ _____ _____    ______ ____
ROOT
ATOM      1  N   UNL     1      34.397 -12.079 -24.382  0.00  0.00    +0.387 N 
ATOM      2  H   UNL     1      35.314 -12.525 -24.342  0.00  0.00    -0.084 HD
ATOM      3  H   UNL     1      34.010 -11.977 -23.443  0.00  0.00    -0.084 HD
ENDROOT
BRANCH   1   4
ATOM      4  C   UNL     1      33.495 -12.909 -25.172  0.00  0.00    -0.076 C 
BRANCH   4   5
ATOM      5  C   UNL     1      32.857 -14.028 -24.326  0.00  0.00    +0.004 C 
BRANCH   5   8
ATOM      6  F   UNL     1      36.138 -18.585 -20.692  0.00  0.00    -0.204 F 
ATOM      7  N   UNL     1      34.668 -17.105 -25.093  0.00  0.00    -0.312 N 
ATOM      8  C   UNL     1      33.632 -15.285 -24.357  0.00  0.00    -0.008 C 
ATOM      9  C   UNL     1      34.193 -15.962 -23.237  0.00  0.00    +0.011 C 
ATOM     10  C   UNL     1      34.837 -17.100 -23.727  0.00  0.00    +0.050 C 
ATOM     11  C   UNL     1      33.942 -16.013 -25.484  0.00  0.00    +0.057 C 
ATOM     12  C   UNL     1      34.214 -15.715 -21.851  0.00  0.00    +0.003 C 
ATOM     13  C   UNL     1      35.503 -18.007 -22.895  0.00  0.00    +0.044 C 
ATOM     14  C   UNL     1      34.877 -16.613 -21.006  0.00  0.00    +0.030 C 
ATOM     15  C   UNL     1      35.511 -17.741 -21.523  0.00  0.00    +0.141 C 
ATOM     16  H   UNL     1      35.020 -17.795 -25.702  0.00  0.00    +0.152 HD
ENDBRANCH   5   8
ENDBRANCH   4   5
ENDBRANCH   1   4
BRANCH   1  17
ATOM     17  C   UNL     1      34.537 -10.756 -24.974  0.00  0.00    -0.054 C 
BRANCH  17  18
ATOM     18  C   UNL     1      34.104  -9.668 -24.027  0.00  0.00    -0.041 C 
ATOM     19  C   UNL     1      33.061  -9.899 -23.130  0.00  0.00    +0.031 C 
ATOM     20  C   UNL     1      34.746  -8.431 -24.047  0.00  0.00    -0.006 C 
ATOM     21  C   UNL     1      32.661  -8.892 -22.253  0.00  0.00    +0.138 C 
ATOM     22  C   UNL     1      34.346  -7.423 -23.170  0.00  0.00    +0.003 C 
ATOM     23  C   UNL     1      33.303  -7.653 -22.272  0.00  0.00    +0.037 C 
BRANCH  21  24
ATOM     24  O   UNL     1      31.644  -9.116 -21.376  0.00  0.00    -0.469 OA
BRANCH  24  25
ATOM     25  C   UNL     1      31.994  -9.641 -20.097  0.00  0.00    +0.277 C 
BRANCH  25  28
ATOM     26  F   UNL     1      30.068 -10.940 -20.429  0.00  0.00    -0.194 F 
ATOM     27  F   UNL     1      31.215 -11.274 -18.603  0.00  0.00    -0.194 F 
ATOM     28  C   UNL     1      31.328 -10.991 -19.925  0.00  0.00    +0.363 C 
BRANCH  28  31
ATOM     29  F   UNL     1      31.410 -12.488 -21.722  0.00  0.00    -0.192 F 
ATOM     30  F   UNL     1      32.136 -13.194 -19.795  0.00  0.00    -0.192 F 
ATOM     31  C   UNL     1      32.081 -12.110 -20.604  0.00  0.00    +0.382 C 
ENDBRANCH  28  31
ENDBRANCH  25  28
ENDBRANCH  24  25
ENDBRANCH  21  24
ENDBRANCH  17  18
ENDBRANCH   1  17
TORSDOF 9
ENDMDL
MODEL 4
REMARK VINA RESULT:     -10.6      3.220      9.741
REMARK  Name = 21071390
REMARK  9 active torsions:
REMARK  status: ('A' for Active; 'I' for Inactive)
REMARK    1  A    between atoms: N_1  and  C_4
REMARK    2  A    between atoms: N_1  and  C_17
REMARK    3  A    between atoms: C_4  and  C_5
REMARK    4  A    between atoms: C_5  and  C_8
REMARK    5  A    between atoms: C_17  and  C_18
REMARK    6  A    between atoms: C_21  and  O_24
REMARK    7  A    between atoms: O_24  and  C_25
REMARK    8  A    between atoms: C_25  and  C_28
REMARK    9  A    between atoms: C_28  and  C_31
REMARK                            x       y       z     vdW  Elec       q    Type
REMARK                         _______ _______ _______ _____ _____    ______ ____
ROOT
ATOM      1  N   UNL     1      35.606 -16.700 -23.212  0.00  0.00    +0.387 N 
ATOM      2  H   UNL     1      36.401 -16.392 -23.773  0.00  0.00    -0.084 HD
ATOM      3  H   UNL     1      35.708 -16.388 -22.247  0.00  0.00    -0.084 HD
ENDROOT
BRANCH   1   4
ATOM      4  C   UNL     1      35.545 -18.157 -23.229  0.00  0.00    -0.076 C 
BRANCH   4   5
ATOM      5  C   UNL     1      35.908 -18.762 -21.859  0.00  0.00    +0.004 C 
BRANCH   5   8
ATOM      6  F   UNL     1      34.168 -23.410 -17.375  0.00  0.00    -0.204 F 
ATOM      7  N   UNL     1      32.743 -20.221 -20.769  0.00  0.00    -0.312 N 
ATOM      8  C   UNL     1      34.790 -19.505 -21.244  0.00  0.00    -0.008 C 
ATOM      9  C   UNL     1      34.889 -20.498 -20.229  0.00  0.00    +0.011 C 
ATOM     10  C   UNL     1      33.591 -20.930 -19.950  0.00  0.00    +0.050 C 
ATOM     11  C   UNL     1      33.457 -19.357 -21.555  0.00  0.00    +0.057 C 
ATOM     12  C   UNL     1      35.963 -21.072 -19.520  0.00  0.00    +0.003 C 
ATOM     13  C   UNL     1      33.312 -21.911 -18.992  0.00  0.00    +0.044 C 
ATOM     14  C   UNL     1      35.699 -22.055 -18.559  0.00  0.00    +0.030 C 
ATOM     15  C   UNL     1      34.392 -22.467 -18.301  0.00  0.00    +0.141 C 
ATOM     16  H   UNL     1      31.763 -20.320 -20.787  0.00  0.00    +0.152 HD
ENDBRANCH   5   8
ENDBRANCH   4   5
ENDBRANCH   1   4
BRANCH   1  17
ATOM     17  C   UNL     1      34.386 -16.123 -23.761  0.00  0.00    -0.054 C 
BRANCH  17  18
ATOM     18  C   UNL     1      33.683 -15.242 -22.762  0.00  0.00    -0.041 C 
ATOM     19  C   UNL     1      33.132 -14.028 -23.170  0.00  0.00    +0.031 C 
ATOM     20  C   UNL     1      33.585 -15.642 -21.429  0.00  0.00    -0.006 C 
ATOM     21  C   UNL     1      32.482 -13.212 -22.244  0.00  0.00    +0.138 C 
ATOM     22  C   UNL     1      32.934 -14.826 -20.504  0.00  0.00    +0.003 C 
ATOM     23  C   UNL     1      32.382 -13.611 -20.911  0.00  0.00    +0.037 C 
BRANCH  21  24
ATOM     24  O   UNL     1      31.943 -12.027 -22.641  0.00  0.00    -0.469 OA
BRANCH  24  25
ATOM     25  C   UNL     1      31.478 -11.151 -21.615  0.00  0.00    +0.277 C 
BRANCH  25  28
ATOM     26  F   UNL     1      31.060  -9.146 -22.763  0.00  0.00    -0.194 F 
ATOM     27  F   UNL     1      33.134  -9.800 -22.584  0.00  0.00    -0.194 F 
ATOM     28  C   UNL     1      31.948  -9.744 -21.928  0.00  0.00    +0.363 C 
BRANCH  28  31
ATOM     29  F   UNL     1      33.121  -8.006 -20.889  0.00  0.00    -0.192 F 
ATOM     30  F   UNL     1      32.463  -9.660 -19.636  0.00  0.00    -0.192 F 
ATOM     31  C   UNL     1      32.110  -8.890 -20.693  0.00  0.00    +0.382 C 
ENDBRANCH  28  31
ENDBRANCH  25  28
ENDBRANCH  24  25
ENDBRANCH  21  24
ENDBRANCH  17  18
ENDBRANCH   1  17
TORSDOF 9
ENDMDL
MODEL 5
REMARK VINA RESULT:     -10.5      3.216      9.452
REMARK  Name = 21071390
REMARK  9 active torsions:
REMARK  status: ('A' for Active; 'I' for Inactive)
REMARK    1  A    between atoms: N_1  and  C_4
REMARK    2  A    between atoms: N_1  and  C_17
REMARK    3  A    between atoms: C_4  and  C_5
REMARK    4  A    between atoms: C_5  and  C_8
REMARK    5  A    between atoms: C_17  and  C_18
REMARK    6  A    between atoms: C_21  and  O_24
REMARK    7  A    between atoms: O_24  and  C_25
REMARK    8  A    between atoms: C_25  and  C_28
REMARK    9  A    between atoms: C_28  and  C_31
REMARK                            x       y       z     vdW  Elec       q    Type
REMARK                         _______ _______ _______ _____ _____    ______ ____
ROOT
ATOM      1  N   UNL     1      36.819 -20.927 -17.839  0.00  0.00    +0.387 N 
ATOM      2  H   UNL     1      37.758 -20.546 -17.954  0.00  0.00    -0.084 HD
ATOM      3  H   UNL     1      36.147 -20.177 -17.678  0.00  0.00    -0.084 HD
ENDROOT
BRANCH   1   4
ATOM      4  C   UNL     1      36.805 -21.823 -16.688  0.00  0.00    -0.076 C 
BRANCH   4   5
ATOM      5  C   UNL     1      35.803 -22.979 -16.873  0.00  0.00    +0.004 C 
BRANCH   5   8
ATOM      6  F   UNL     1      29.534 -23.600 -14.625  0.00  0.00    -0.204 F 
ATOM      7  N   UNL     1      34.294 -23.536 -13.595  0.00  0.00    -0.312 N 
ATOM      8  C   UNL     1      34.948 -23.194 -15.689  0.00  0.00    -0.008 C 
ATOM      9  C   UNL     1      33.526 -23.262 -15.671  0.00  0.00    +0.011 C 
ATOM     10  C   UNL     1      33.143 -23.477 -14.346  0.00  0.00    +0.050 C 
ATOM     11  C   UNL     1      35.391 -23.367 -14.397  0.00  0.00    +0.057 C 
ATOM     12  C   UNL     1      32.527 -23.160 -16.659  0.00  0.00    +0.003 C 
ATOM     13  C   UNL     1      31.803 -23.596 -13.958  0.00  0.00    +0.044 C 
ATOM     14  C   UNL     1      31.183 -23.277 -16.286  0.00  0.00    +0.030 C 
ATOM     15  C   UNL     1      30.829 -23.492 -14.955  0.00  0.00    +0.141 C 
ATOM     16  H   UNL     1      34.325 -23.680 -12.621  0.00  0.00    +0.152 HD
ENDBRANCH   5   8
ENDBRANCH   4   5
ENDBRANCH   1   4
BRANCH   1  17
ATOM     17  C   UNL     1      36.443 -21.637 -19.053  0.00  0.00    -0.054 C 
BRANCH  17  18
ATOM     18  C   UNL     1      35.263 -20.996 -19.735  0.00  0.00    -0.041 C 
ATOM     19  C   UNL     1      35.457 -19.906 -20.584  0.00  0.00    +0.031 C 
ATOM     20  C   UNL     1      33.978 -21.492 -19.518  0.00  0.00    -0.006 C 
ATOM     21  C   UNL     1      34.364 -19.313 -21.216  0.00  0.00    +0.138 C 
ATOM     22  C   UNL     1      32.886 -20.899 -20.150  0.00  0.00    +0.003 C 
ATOM     23  C   UNL     1      33.078 -19.809 -20.999  0.00  0.00    +0.037 C 
BRANCH  21  24
ATOM     24  O   UNL     1      34.551 -18.250 -22.045  0.00  0.00    -0.469 OA
BRANCH  24  25
ATOM     25  C   UNL     1      35.317 -17.158 -21.538  0.00  0.00    +0.277 C 
BRANCH  25  28
ATOM     26  F   UNL     1      34.944 -15.029 -20.622  0.00  0.00    -0.194 F 
ATOM     27  F   UNL     1      33.199 -16.253 -21.087  0.00  0.00    -0.194 F 
ATOM     28  C   UNL     1      34.443 -15.919 -21.515  0.00  0.00    +0.363 C 
BRANCH  28  31
ATOM     29  F   UNL     1      35.319 -15.717 -23.675  0.00  0.00    -0.192 F 
ATOM     30  F   UNL     1      34.528 -13.916 -22.741  0.00  0.00    -0.192 F 
ATOM     31  C   UNL     1      34.335 -15.251 -22.865  0.00  0.00    +0.382 C 
ENDBRANCH  28  31
ENDBRANCH  25  28
ENDBRANCH  24  25
ENDBRANCH  21  24
ENDBRANCH  17  18
ENDBRANCH   1  17
TORSDOF 9
ENDMDL
MODEL 6
REMARK VINA RESULT:     -10.4      3.781      4.729
REMARK  Name = 21071390
REMARK  9 active torsions:
REMARK  status: ('A' for Active; 'I' for Inactive)
REMARK    1  A    between atoms: N_1  and  C_4
REMARK    2  A    between atoms: N_1  and  C_17
REMARK    3  A    between atoms: C_4  and  C_5
REMARK    4  A    between atoms: C_5  and  C_8
REMARK    5  A    between atoms: C_17  and  C_18
REMARK    6  A    between atoms: C_21  and  O_24
REMARK    7  A    between atoms: O_24  and  C_25
REMARK    8  A    between atoms: C_25  and  C_28
REMARK    9  A    between atoms: C_28  and  C_31
REMARK                            x       y       z     vdW  Elec       q    Type
REMARK                         _______ _______ _______ _____ _____    ______ ____
ROOT
ATOM      1  N   UNL     1      36.628 -20.024 -19.632  0.00  0.00    +0.387 N 
ATOM      2  H   UNL     1      36.179 -19.496 -18.883  0.00  0.00    -0.084 HD
ATOM      3  H   UNL     1      37.615 -20.175 -19.421  0.00  0.00    -0.084 HD
ENDROOT
BRANCH   1   4
ATOM      4  C   UNL     1      36.526 -19.270 -20.876  0.00  0.00    -0.076 C 
BRANCH   4   5
ATOM      5  C   UNL     1      35.108 -19.341 -21.475  0.00  0.00    +0.004 C 
BRANCH   5   8
ATOM      6  F   UNL     1      33.942 -12.952 -23.074  0.00  0.00    -0.204 F 
ATOM      7  N   UNL     1      34.672 -17.516 -24.608  0.00  0.00    -0.312 N 
ATOM      8  C   UNL     1      34.899 -18.377 -22.575  0.00  0.00    -0.008 C 
ATOM      9  C   UNL     1      34.663 -16.979 -22.443  0.00  0.00    +0.011 C 
ATOM     10  C   UNL     1      34.524 -16.464 -23.733  0.00  0.00    +0.050 C 
ATOM     11  C   UNL     1      34.900 -18.677 -23.918  0.00  0.00    +0.057 C 
ATOM     12  C   UNL     1      34.553 -16.102 -21.347  0.00  0.00    +0.003 C 
ATOM     13  C   UNL     1      34.280 -15.109 -23.982  0.00  0.00    +0.044 C 
ATOM     14  C   UNL     1      34.309 -14.744 -21.580  0.00  0.00    +0.030 C 
ATOM     15  C   UNL     1      34.175 -14.257 -22.879  0.00  0.00    +0.141 C 
ATOM     16  H   UNL     1      34.622 -17.445 -25.589  0.00  0.00    +0.152 HD
ENDBRANCH   5   8
ENDBRANCH   4   5
ENDBRANCH   1   4
BRANCH   1  17
ATOM     17  C   UNL     1      35.976 -21.320 -19.756  0.00  0.00    -0.054 C 
BRANCH  17  18
ATOM     18  C   UNL     1      35.709 -21.945 -18.412  0.00  0.00    -0.041 C 
ATOM     19  C   UNL     1      36.706 -21.957 -17.438  0.00  0.00    +0.031 C 
ATOM     20  C   UNL     1      34.463 -22.511 -18.142  0.00  0.00    -0.006 C 
ATOM     21  C   UNL     1      36.458 -22.536 -16.194  0.00  0.00    +0.138 C 
ATOM     22  C   UNL     1      34.214 -23.089 -16.898  0.00  0.00    +0.003 C 
ATOM     23  C   UNL     1      35.212 -23.102 -15.923  0.00  0.00    +0.037 C 
BRANCH  21  24
ATOM     24  O   UNL     1      37.431 -22.548 -15.242  0.00  0.00    -0.469 OA
BRANCH  24  25
ATOM     25  C   UNL     1      37.308 -23.517 -14.201  0.00  0.00    +0.277 C 
BRANCH  25  28
ATOM     26  F   UNL     1      39.212 -24.284 -15.339  0.00  0.00    -0.194 F 
ATOM     27  F   UNL     1      37.501 -25.631 -15.200  0.00  0.00    -0.194 F 
ATOM     28  C   UNL     1      38.209 -24.693 -14.521  0.00  0.00    +0.363 C 
BRANCH  28  31
ATOM     29  F   UNL     1      37.990 -26.316 -12.850  0.00  0.00    -0.192 F 
ATOM     30  F   UNL     1      38.894 -24.416 -12.291  0.00  0.00    -0.192 F 
ATOM     31  C   UNL     1      38.809 -25.327 -13.290  0.00  0.00    +0.382 C 
ENDBRANCH  28  31
ENDBRANCH  25  28
ENDBRANCH  24  25
ENDBRANCH  21  24
ENDBRANCH  17  18
ENDBRANCH   1  17
TORSDOF 9
ENDMDL
MODEL 7
REMARK VINA RESULT:     -10.4      4.085      9.933
REMARK  Name = 21071390
REMARK  9 active torsions:
REMARK  status: ('A' for Active; 'I' for Inactive)
REMARK    1  A    between atoms: N_1  and  C_4
REMARK    2  A    between atoms: N_1  and  C_17
REMARK    3  A    between atoms: C_4  and  C_5
REMARK    4  A    between atoms: C_5  and  C_8
REMARK    5  A    between atoms: C_17  and  C_18
REMARK    6  A    between atoms: C_21  and  O_24
REMARK    7  A    between atoms: O_24  and  C_25
REMARK    8  A    between atoms: C_25  and  C_28
REMARK    9  A    between atoms: C_28  and  C_31
REMARK                            x       y       z     vdW  Elec       q    Type
REMARK                         _______ _______ _______ _____ _____    ______ ____
ROOT
ATOM      1  N   UNL     1      32.759 -22.091 -18.787  0.00  0.00    +0.387 N 
ATOM      2  H   UNL     1      32.731 -21.083 -18.634  0.00  0.00    -0.084 HD
ATOM      3  H   UNL     1      31.976 -22.385 -19.371  0.00  0.00    -0.084 HD
ENDROOT
BRANCH   1   4
ATOM      4  C   UNL     1      32.663 -22.772 -17.500  0.00  0.00    -0.076 C 
BRANCH   4   5
ATOM      5  C   UNL     1      34.039 -23.251 -17.001  0.00  0.00    +0.004 C 
BRANCH   5   8
ATOM      6  F   UNL     1      37.764 -25.224 -11.808  0.00  0.00    -0.204 F 
ATOM      7  N   UNL     1      33.434 -23.691 -13.427  0.00  0.00    -0.312 N 
ATOM      8  C   UNL     1      34.066 -23.509 -15.547  0.00  0.00    -0.008 C 
ATOM      9  C   UNL     1      35.181 -23.963 -14.787  0.00  0.00    +0.011 C 
ATOM     10  C   UNL     1      34.757 -24.068 -13.461  0.00  0.00    +0.050 C 
ATOM     11  C   UNL     1      33.007 -23.351 -14.682  0.00  0.00    +0.057 C 
ATOM     12  C   UNL     1      36.513 -24.295 -15.102  0.00  0.00    +0.003 C 
ATOM     13  C   UNL     1      35.604 -24.491 -12.430  0.00  0.00    +0.044 C 
ATOM     14  C   UNL     1      37.371 -24.720 -14.081  0.00  0.00    +0.030 C 
ATOM     15  C   UNL     1      36.921 -24.815 -12.766  0.00  0.00    +0.141 C 
ATOM     16  H   UNL     1      32.875 -23.669 -12.616  0.00  0.00    +0.152 HD
ENDBRANCH   5   8
ENDBRANCH   4   5
ENDBRANCH   1   4
BRANCH   1  17
ATOM     17  C   UNL     1      34.001 -22.435 -19.464  0.00  0.00    -0.054 C 
BRANCH  17  18
ATOM     18  C   UNL     1      34.726 -21.213 -19.961  0.00  0.00    -0.041 C 
ATOM     19  C   UNL     1      34.011 -20.163 -20.535  0.00  0.00    +0.031 C 
ATOM     20  C   UNL     1      36.114 -21.133 -19.848  0.00  0.00    -0.006 C 
ATOM     21  C   UNL     1      34.683 -19.031 -20.995  0.00  0.00    +0.138 C 
ATOM     22  C   UNL     1      36.787 -20.001 -20.308  0.00  0.00    +0.003 C 
ATOM     23  C   UNL     1      36.071 -18.949 -20.882  0.00  0.00    +0.037 C 
BRANCH  21  24
ATOM     24  O   UNL     1      33.986 -18.004 -21.555  0.00  0.00    -0.469 OA
BRANCH  24  25
ATOM     25  C   UNL     1      34.729 -16.846 -21.932  0.00  0.00    +0.277 C 
BRANCH  25  28
ATOM     26  F   UNL     1      34.673 -14.515 -21.656  0.00  0.00    -0.194 F 
ATOM     27  F   UNL     1      34.879 -15.745 -19.866  0.00  0.00    -0.194 F 
ATOM     28  C   UNL     1      34.275 -15.678 -21.079  0.00  0.00    +0.363 C 
BRANCH  28  31
ATOM     29  F   UNL     1      32.214 -14.922 -21.887  0.00  0.00    -0.192 F 
ATOM     30  F   UNL     1      32.476 -14.999 -19.728  0.00  0.00    -0.192 F 
ATOM     31  C   UNL     1      32.779 -15.639 -20.883  0.00  0.00    +0.382 C 
ENDBRANCH  28  31
ENDBRANCH  25  28
ENDBRANCH  24  25
ENDBRANCH  21  24
ENDBRANCH  17  18
ENDBRANCH   1  17
TORSDOF 9
ENDMDL
MODEL 8
REMARK VINA RESULT:     -10.4      1.888      3.175
REMARK  Name = 21071390
REMARK  9 active torsions:
REMARK  status: ('A' for Active; 'I' for Inactive)
REMARK    1  A    between atoms: N_1  and  C_4
REMARK    2  A    between atoms: N_1  and  C_17
REMARK    3  A    between atoms: C_4  and  C_5
REMARK    4  A    between atoms: C_5  and  C_8
REMARK    5  A    between atoms: C_17  and  C_18
REMARK    6  A    between atoms: C_21  and  O_24
REMARK    7  A    between atoms: O_24  and  C_25
REMARK    8  A    between atoms: C_25  and  C_28
REMARK    9  A    between atoms: C_28  and  C_31
REMARK                            x       y       z     vdW  Elec       q    Type
REMARK                         _______ _______ _______ _____ _____    ______ ____
ROOT
ATOM      1  N   UNL     1      33.064 -21.414 -19.762  0.00  0.00    +0.387 N 
ATOM      2  H   UNL     1      32.527 -22.108 -20.281  0.00  0.00    -0.084 HD
ATOM      3  H   UNL     1      32.614 -21.210 -18.869  0.00  0.00    -0.084 HD
ENDROOT
BRANCH   1   4
ATOM      4  C   UNL     1      33.134 -20.183 -20.541  0.00  0.00    -0.076 C 
BRANCH   4   5
ATOM      5  C   UNL     1      34.589 -19.790 -20.862  0.00  0.00    +0.004 C 
BRANCH   5   8
ATOM      6  F   UNL     1      34.425 -13.426 -22.915  0.00  0.00    -0.204 F 
ATOM      7  N   UNL     1      34.955 -18.122 -24.090  0.00  0.00    -0.312 N 
ATOM      8  C   UNL     1      34.696 -18.878 -22.019  0.00  0.00    -0.008 C 
ATOM      9  C   UNL     1      34.586 -17.458 -21.992  0.00  0.00    +0.011 C 
ATOM     10  C   UNL     1      34.752 -17.011 -23.304  0.00  0.00    +0.050 C 
ATOM     11  C   UNL     1      34.923 -19.256 -23.323  0.00  0.00    +0.057 C 
ATOM     12  C   UNL     1      34.361 -16.511 -20.975  0.00  0.00    +0.003 C 
ATOM     13  C   UNL     1      34.704 -15.656 -23.651  0.00  0.00    +0.044 C 
ATOM     14  C   UNL     1      34.310 -15.152 -21.307  0.00  0.00    +0.030 C 
ATOM     15  C   UNL     1      34.479 -14.733 -22.625  0.00  0.00    +0.141 C 
ATOM     16  H   UNL     1      35.101 -18.105 -25.064  0.00  0.00    +0.152 HD
ENDBRANCH   5   8
ENDBRANCH   4   5
ENDBRANCH   1   4
BRANCH   1  17
ATOM     17  C   UNL     1      34.396 -21.940 -19.502  0.00  0.00    -0.054 C 
BRANCH  17  18
ATOM     18  C   UNL     1      34.549 -22.402 -18.077  0.00  0.00    -0.041 C 
ATOM     19  C   UNL     1      33.455 -22.937 -17.396  0.00  0.00    +0.031 C 
ATOM     20  C   UNL     1      35.784 -22.296 -17.438  0.00  0.00    -0.006 C 
ATOM     21  C   UNL     1      33.597 -23.365 -16.077  0.00  0.00    +0.138 C 
ATOM     22  C   UNL     1      35.927 -22.724 -16.119  0.00  0.00    +0.003 C 
ATOM     23  C   UNL     1      34.833 -23.259 -15.437  0.00  0.00    +0.037 C 
BRANCH  21  24
ATOM     24  O   UNL     1      32.531 -23.887 -15.411  0.00  0.00    -0.469 OA
BRANCH  24  25
ATOM     25  C   UNL     1      31.233 -23.564 -15.909  0.00  0.00    +0.277 C 
BRANCH  25  28
ATOM     26  F   UNL     1      29.513 -22.471 -14.745  0.00  0.00    -0.194 F 
ATOM     27  F   UNL     1      30.921 -23.668 -13.586  0.00  0.00    -0.194 F 
ATOM     28  C   UNL     1      30.245 -23.614 -14.761  0.00  0.00    +0.363 C 
BRANCH  28  31
ATOM     29  F   UNL     1      30.033 -25.939 -14.915  0.00  0.00    -0.192 F 
ATOM     30  F   UNL     1      28.570 -24.727 -15.978  0.00  0.00    -0.192 F 
ATOM     31  C   UNL     1      29.307 -24.794 -14.844  0.00  0.00    +0.382 C 
ENDBRANCH  28  31
ENDBRANCH  25  28
ENDBRANCH  24  25
ENDBRANCH  21  24
ENDBRANCH  17  18
ENDBRANCH   1  17
TORSDOF 9
ENDMDL
MODEL 9
REMARK VINA RESULT:     -10.4      3.523      4.791
REMARK  Name = 21071390
REMARK  9 active torsions:
REMARK  status: ('A' for Active; 'I' for Inactive)
REMARK    1  A    between atoms: N_1  and  C_4
REMARK    2  A    between atoms: N_1  and  C_17
REMARK    3  A    between atoms: C_4  and  C_5
REMARK    4  A    between atoms: C_5  and  C_8
REMARK    5  A    between atoms: C_17  and  C_18
REMARK    6  A    between atoms: C_21  and  O_24
REMARK    7  A    between atoms: O_24  and  C_25
REMARK    8  A    between atoms: C_25  and  C_28
REMARK    9  A    between atoms: C_28  and  C_31
REMARK                            x       y       z     vdW  Elec       q    Type
REMARK                         _______ _______ _______ _____ _____    ______ ____
ROOT
ATOM      1  N   UNL     1      33.050 -21.570 -19.854  0.00  0.00    +0.387 N 
ATOM      2  H   UNL     1      32.680 -22.236 -20.533  0.00  0.00    -0.084 HD
ATOM      3  H   UNL     1      32.461 -21.546 -19.022  0.00  0.00    -0.084 HD
ENDROOT
BRANCH   1   4
ATOM      4  C   UNL     1      33.070 -20.240 -20.453  0.00  0.00    -0.076 C 
BRANCH   4   5
ATOM      5  C   UNL     1      34.508 -19.734 -20.676  0.00  0.00    +0.004 C 
BRANCH   5   8
ATOM      6  F   UNL     1      34.443 -13.442 -22.945  0.00  0.00    -0.204 F 
ATOM      7  N   UNL     1      34.912 -18.183 -23.957  0.00  0.00    -0.312 N 
ATOM      8  C   UNL     1      34.633 -18.864 -21.862  0.00  0.00    -0.008 C 
ATOM      9  C   UNL     1      34.543 -17.443 -21.885  0.00  0.00    +0.011 C 
ATOM     10  C   UNL     1      34.721 -17.042 -23.211  0.00  0.00    +0.050 C 
ATOM     11  C   UNL     1      34.860 -19.289 -23.152  0.00  0.00    +0.057 C 
ATOM     12  C   UNL     1      34.327 -16.458 -20.902  0.00  0.00    +0.003 C 
ATOM     13  C   UNL     1      34.694 -15.700 -23.603  0.00  0.00    +0.044 C 
ATOM     14  C   UNL     1      34.296 -15.111 -21.280  0.00  0.00    +0.030 C 
ATOM     15  C   UNL     1      34.477 -14.740 -22.611  0.00  0.00    +0.141 C 
ATOM     16  H   UNL     1      35.063 -18.201 -24.930  0.00  0.00    +0.152 HD
ENDBRANCH   5   8
ENDBRANCH   4   5
ENDBRANCH   1   4
BRANCH   1  17
ATOM     17  C   UNL     1      34.390 -21.984 -19.464  0.00  0.00    -0.054 C 
BRANCH  17  18
ATOM     18  C   UNL     1      34.431 -22.487 -18.045  0.00  0.00    -0.041 C 
ATOM     19  C   UNL     1      35.619 -22.426 -17.317  0.00  0.00    +0.031 C 
ATOM     20  C   UNL     1      33.280 -23.015 -17.460  0.00  0.00    -0.006 C 
ATOM     21  C   UNL     1      35.656 -22.893 -16.004  0.00  0.00    +0.138 C 
ATOM     22  C   UNL     1      33.317 -23.481 -16.146  0.00  0.00    +0.003 C 
ATOM     23  C   UNL     1      34.505 -23.420 -15.417  0.00  0.00    +0.037 C 
BRANCH  21  24
ATOM     24  O   UNL     1      36.815 -22.833 -15.292  0.00  0.00    -0.469 OA
BRANCH  24  25
ATOM     25  C   UNL     1      36.909 -23.663 -14.135  0.00  0.00    +0.277 C 
BRANCH  25  28
ATOM     26  F   UNL     1      38.857 -24.601 -13.221  0.00  0.00    -0.194 F 
ATOM     27  F   UNL     1      38.822 -24.226 -15.370  0.00  0.00    -0.194 F 
ATOM     28  C   UNL     1      38.062 -24.629 -14.321  0.00  0.00    +0.363 C 
BRANCH  28  31
ATOM     29  F   UNL     1      36.545 -26.042 -15.406  0.00  0.00    -0.192 F 
ATOM     30  F   UNL     1      37.180 -26.603 -13.401  0.00  0.00    -0.192 F 
ATOM     31  C   UNL     1      37.607 -26.048 -14.561  0.00  0.00    +0.382 C 
ENDBRANCH  28  31
ENDBRANCH  25  28
ENDBRANCH  24  25
ENDBRANCH  21  24
ENDBRANCH  17  18
ENDBRANCH   1  17
TORSDOF 9
ENDMDL
