MODEL 1
REMARK VINA RESULT:      -1.8      0.000      0.000
REMARK  Name = 6324617
REMARK  4 active torsions:
REMARK  status: ('A' for Active; 'I' for Inactive)
REMARK    1  A    between atoms: C_12  and  C_24
REMARK    2  A    between atoms: C_13  and  O_28
REMARK    3  A    between atoms: C_14  and  O_30
REMARK    4  A    between atoms: C_18  and  O_32
REMARK                            x       y       z     vdW  Elec       q    Type
REMARK                         _______ _______ _______ _____ _____    ______ ____
ROOT
ATOM      1  O   UNL     1      36.869 -26.027 -14.742  0.00  0.00    -0.312 OA
ATOM      2  O   UNL     1      36.115 -25.763 -11.457  0.00  0.00    -0.450 OA
ATOM      3  O   UNL     1      36.692 -24.257 -16.312  0.00  0.00    -0.423 OA
ATOM      4  O   UNL     1      40.301 -23.582 -13.137  0.00  0.00    -0.447 OA
ATOM      5  O   UNL     1      36.799 -27.710 -12.433  0.00  0.00    -0.247 OA
ATOM      6  O   UNL     1      36.963 -22.022 -16.747  0.00  0.00    -0.247 OA
ATOM      7  O   UNL     1      41.745 -24.043 -14.853  0.00  0.00    -0.250 OA
ATOM      8  C   UNL     1      36.694 -24.205 -13.182  0.00  0.00    +0.109 C 
ATOM      9  C   UNL     1      35.568 -24.073 -14.238  0.00  0.00    +0.108 C 
ATOM     10  C   UNL     1      37.316 -25.574 -13.473  0.00  0.00    +0.216 C 
ATOM     11  C   UNL     1      36.014 -24.378 -11.819  0.00  0.00    +0.174 C 
ATOM     12  C   UNL     1      34.296 -24.534 -13.475  0.00  0.00    +0.013 C 
ATOM     13  C   UNL     1      38.847 -25.423 -13.364  0.00  0.00    +0.170 C 
ATOM     14  C   UNL     1      37.882 -23.228 -13.182  0.00  0.00    +0.159 C 
ATOM     15  C   UNL     1      36.002 -25.045 -15.326  0.00  0.00    +0.294 C 
ATOM     16  C   UNL     1      39.043 -24.082 -12.677  0.00  0.00    +0.223 C 
ATOM     17  C   UNL     1      34.548 -24.036 -12.051  0.00  0.00    +0.044 C 
ATOM     18  C   UNL     1      35.423 -22.775 -15.021  0.00  0.00    +0.216 C 
ATOM     19  C   UNL     1      36.730 -26.490 -12.428  0.00  0.00    +0.344 C 
ATOM     20  C   UNL     1      39.632 -25.246 -14.667  0.00  0.00    +0.130 C 
ATOM     21  C   UNL     1      36.444 -22.927 -16.114  0.00  0.00    +0.346 C 
ATOM     22  C   UNL     1      40.699 -24.257 -14.259  0.00  0.00    +0.319 C 
ATOM     23  C   UNL     1      40.227 -26.518 -15.248  0.00  0.00    +0.014 C 
ENDROOT
BRANCH  12  24
ATOM     24  C   UNL     1      32.947 -24.068 -14.005  0.00  0.00    +0.000 C 
ATOM     25  C   UNL     1      31.895 -25.175 -13.804  0.00  0.00    +0.000 C 
ATOM     26  C   UNL     1      32.495 -22.803 -13.253  0.00  0.00    +0.000 C 
ATOM     27  C   UNL     1      33.056 -23.748 -15.507  0.00  0.00    +0.000 C 
ENDBRANCH  12  24
BRANCH  13  28
ATOM     28  O   UNL     1      39.445 -26.431 -12.558  0.00  0.00    -0.380 OA
ATOM     29  H   UNL     1      38.893 -26.590 -11.776  0.00  0.00    +0.211 HD
ENDBRANCH  13  28
BRANCH  14  30
ATOM     30  O   UNL     1      37.698 -22.118 -12.317  0.00  0.00    -0.380 OA
ATOM     31  H   UNL     1      38.554 -21.697 -12.145  0.00  0.00    +0.210 HD
ENDBRANCH  14  30
BRANCH  18  32
ATOM     32  O   UNL     1      35.585 -21.623 -14.243  0.00  0.00    -0.374 OA
ATOM     33  H   UNL     1      36.278 -21.775 -13.581  0.00  0.00    +0.211 HD
ENDBRANCH  18  32
TORSDOF 4
ENDMDL
MODEL 2
REMARK VINA RESULT:      -1.6      1.835      4.486
REMARK  Name = 6324617
REMARK  4 active torsions:
REMARK  status: ('A' for Active; 'I' for Inactive)
REMARK    1  A    between atoms: C_12  and  C_24
REMARK    2  A    between atoms: C_13  and  O_28
REMARK    3  A    between atoms: C_14  and  O_30
REMARK    4  A    between atoms: C_18  and  O_32
REMARK                            x       y       z     vdW  Elec       q    Type
REMARK                         _______ _______ _______ _____ _____    ______ ____
ROOT
ATOM      1  O   UNL     1      35.319 -22.188 -14.199  0.00  0.00    -0.312 OA
ATOM      2  O   UNL     1      35.447 -22.946 -17.491  0.00  0.00    -0.450 OA
ATOM      3  O   UNL     1      34.108 -23.426 -12.577  0.00  0.00    -0.423 OA
ATOM      4  O   UNL     1      37.966 -25.838 -14.268  0.00  0.00    -0.447 OA
ATOM      5  O   UNL     1      36.480 -21.124 -16.584  0.00  0.00    -0.247 OA
ATOM      6  O   UNL     1      33.445 -25.483 -11.812  0.00  0.00    -0.247 OA
ATOM      7  O   UNL     1      38.954 -25.455 -12.238  0.00  0.00    -0.250 OA
ATOM      8  C   UNL     1      34.945 -24.177 -15.498  0.00  0.00    +0.109 C 
ATOM      9  C   UNL     1      33.603 -23.728 -14.869  0.00  0.00    +0.108 C 
ATOM     10  C   UNL     1      35.906 -23.026 -15.184  0.00  0.00    +0.216 C 
ATOM     11  C   UNL     1      34.769 -24.120 -17.020  0.00  0.00    +0.174 C 
ATOM     12  C   UNL     1      32.835 -23.093 -16.060  0.00  0.00    +0.013 C 
ATOM     13  C   UNL     1      37.252 -23.647 -14.759  0.00  0.00    +0.170 C 
ATOM     14  C   UNL     1      35.663 -25.437 -14.987  0.00  0.00    +0.159 C 
ATOM     15  C   UNL     1      34.038 -22.711 -13.823  0.00  0.00    +0.294 C 
ATOM     16  C   UNL     1      37.141 -25.103 -15.176  0.00  0.00    +0.223 C 
ATOM     17  C   UNL     1      33.273 -23.950 -17.249  0.00  0.00    +0.044 C 
ATOM     18  C   UNL     1      32.801 -24.714 -14.028  0.00  0.00    +0.216 C 
ATOM     19  C   UNL     1      35.989 -22.237 -16.465  0.00  0.00    +0.344 C 
ATOM     20  C   UNL     1      37.537 -23.752 -13.258  0.00  0.00    +0.130 C 
ATOM     21  C   UNL     1      33.471 -24.630 -12.685  0.00  0.00    +0.346 C 
ATOM     22  C   UNL     1      38.254 -25.079 -13.167  0.00  0.00    +0.319 C 
ATOM     23  C   UNL     1      38.360 -22.618 -12.669  0.00  0.00    +0.014 C 
ENDROOT
BRANCH  12  24
ATOM     24  C   UNL     1      31.318 -23.004 -15.956  0.00  0.00    +0.000 C 
ATOM     25  C   UNL     1      30.758 -22.196 -17.141  0.00  0.00    +0.000 C 
ATOM     26  C   UNL     1      30.708 -24.418 -15.979  0.00  0.00    +0.000 C 
ATOM     27  C   UNL     1      30.923 -22.307 -14.642  0.00  0.00    +0.000 C 
ENDBRANCH  12  24
BRANCH  13  28
ATOM     28  O   UNL     1      38.363 -23.070 -15.435  0.00  0.00    -0.380 OA
ATOM     29  H   UNL     1      39.187 -23.373 -15.022  0.00  0.00    +0.211 HD
ENDBRANCH  13  28
BRANCH  14  30
ATOM     30  O   UNL     1      35.343 -26.606 -15.724  0.00  0.00    -0.380 OA
ATOM     31  H   UNL     1      35.644 -27.389 -15.237  0.00  0.00    +0.210 HD
ENDBRANCH  14  30
BRANCH  18  32
ATOM     32  O   UNL     1      32.752 -26.005 -14.565  0.00  0.00    -0.374 OA
ATOM     33  H   UNL     1      32.909 -25.964 -15.522  0.00  0.00    +0.211 HD
ENDBRANCH  18  32
TORSDOF 4
ENDMDL
MODEL 3
REMARK VINA RESULT:      -1.5      1.710      5.868
REMARK  Name = 6324617
REMARK  4 active torsions:
REMARK  status: ('A' for Active; 'I' for Inactive)
REMARK    1  A    between atoms: C_12  and  C_24
REMARK    2  A    between atoms: C_13  and  O_28
REMARK    3  A    between atoms: C_14  and  O_30
REMARK    4  A    between atoms: C_18  and  O_32
REMARK                            x       y       z     vdW  Elec       q    Type
REMARK                         _______ _______ _______ _____ _____    ______ ____
ROOT
ATOM      1  O   UNL     1      36.020 -24.383 -15.982  0.00  0.00    -0.312 OA
ATOM      2  O   UNL     1      37.043 -22.048 -13.761  0.00  0.00    -0.450 OA
ATOM      3  O   UNL     1      36.075 -26.723 -15.597  0.00  0.00    -0.423 OA
ATOM      4  O   UNL     1      32.744 -24.465 -12.884  0.00  0.00    -0.447 OA
ATOM      5  O   UNL     1      36.272 -21.539 -15.848  0.00  0.00    -0.247 OA
ATOM      6  O   UNL     1      35.779 -28.449 -14.116  0.00  0.00    -0.247 OA
ATOM      7  O   UNL     1      31.160 -25.418 -14.236  0.00  0.00    -0.250 OA
ATOM      8  C   UNL     1      36.331 -24.329 -13.597  0.00  0.00    +0.109 C 
ATOM      9  C   UNL     1      37.367 -25.300 -14.218  0.00  0.00    +0.108 C 
ATOM     10  C   UNL     1      35.681 -23.656 -14.810  0.00  0.00    +0.216 C 
ATOM     11  C   UNL     1      37.121 -23.205 -12.916  0.00  0.00    +0.174 C 
ATOM     12  C   UNL     1      38.695 -24.496 -14.170  0.00  0.00    +0.013 C 
ATOM     13  C   UNL     1      34.165 -23.573 -14.538  0.00  0.00    +0.170 C 
ATOM     14  C   UNL     1      35.153 -24.871 -12.771  0.00  0.00    +0.159 C 
ATOM     15  C   UNL     1      36.840 -25.506 -15.631  0.00  0.00    +0.294 C 
ATOM     16  C   UNL     1      34.033 -23.872 -13.054  0.00  0.00    +0.223 C 
ATOM     17  C   UNL     1      38.564 -23.690 -12.877  0.00  0.00    +0.044 C 
ATOM     18  C   UNL     1      37.454 -26.732 -13.707  0.00  0.00    +0.216 C 
ATOM     19  C   UNL     1      36.347 -22.306 -14.900  0.00  0.00    +0.344 C 
ATOM     20  C   UNL     1      33.276 -24.647 -15.173  0.00  0.00    +0.130 C 
ATOM     21  C   UNL     1      36.345 -27.421 -14.454  0.00  0.00    +0.346 C 
ATOM     22  C   UNL     1      32.251 -24.887 -14.089  0.00  0.00    +0.319 C 
ATOM     23  C   UNL     1      32.629 -24.261 -16.493  0.00  0.00    +0.014 C 
ENDROOT
BRANCH  12  24
ATOM     24  C   UNL     1      39.998 -25.283 -14.215  0.00  0.00    +0.000 C 
ATOM     25  C   UNL     1      41.188 -24.317 -14.365  0.00  0.00    +0.000 C 
ATOM     26  C   UNL     1      40.169 -26.090 -12.915  0.00  0.00    +0.000 C 
ATOM     27  C   UNL     1      39.985 -26.251 -15.411  0.00  0.00    +0.000 C 
ENDBRANCH  12  24
BRANCH  13  28
ATOM     28  O   UNL     1      33.630 -22.278 -14.784  0.00  0.00    -0.380 OA
ATOM     29  H   UNL     1      33.661 -22.091 -15.735  0.00  0.00    +0.211 HD
ENDBRANCH  13  28
BRANCH  14  30
ATOM     30  O   UNL     1      35.413 -24.909 -11.377  0.00  0.00    -0.380 OA
ATOM     31  H   UNL     1      35.529 -25.830 -11.095  0.00  0.00    +0.210 HD
ENDBRANCH  14  30
BRANCH  18  32
ATOM     32  O   UNL     1      37.362 -26.843 -12.315  0.00  0.00    -0.374 OA
ATOM     33  H   UNL     1      38.249 -26.964 -11.941  0.00  0.00    +0.211 HD
ENDBRANCH  18  32
TORSDOF 4
ENDMDL
