MODEL 1
REMARK VINA RESULT:     -10.1      0.000      0.000
REMARK  Name = 6762
REMARK  8 active torsions:
REMARK  status: ('A' for Active; 'I' for Inactive)
REMARK    1  A    between atoms: C_1  and  C_2
REMARK    2  A    between atoms: C_1  and  C_17
REMARK    3  A    between atoms: C_2  and  N_3
REMARK    4  A    between atoms: N_4  and  C_11
REMARK    5  A    between atoms: C_11  and  C_12
REMARK    6  A    between atoms: C_12  and  O_13
REMARK    7  A    between atoms: O_13  and  C_15
REMARK    8  A    between atoms: C_17  and  N_20
REMARK                            x       y       z     vdW  Elec       q    Type
REMARK                         _______ _______ _______ _____ _____    ______ ____
ROOT
ATOM      1  C   UNL     1      33.885 -22.188 -18.554  0.00  0.00    -0.001 C 
ENDROOT
BRANCH   1   2
ATOM      2  C   UNL     1      35.045 -22.206 -19.554  0.00  0.00    -0.076 C 
BRANCH   2   3
ATOM      3  N   UNL     1      35.046 -21.024 -20.412  0.00  0.00    +0.384 N 
ATOM      4  N   UNL     1      34.970 -18.168 -20.859  0.00  0.00    +0.387 N 
ATOM      5  C   UNL     1      36.211 -20.176 -20.128  0.00  0.00    -0.101 C 
ATOM      6  C   UNL     1      33.803 -20.259 -20.248  0.00  0.00    -0.101 C 
ATOM      7  C   UNL     1      36.212 -18.932 -21.025  0.00  0.00    -0.101 C 
ATOM      8  C   UNL     1      33.805 -19.016 -21.143  0.00  0.00    -0.101 C 
ATOM      9  H   UNL     1      35.106 -21.337 -21.381  0.00  0.00    -0.080 HD
ATOM     10  H   UNL     1      34.912 -17.856 -19.890  0.00  0.00    -0.080 HD
BRANCH   4  11
ATOM     11  C   UNL     1      34.972 -16.983 -21.716  0.00  0.00    -0.029 C 
BRANCH  11  12
ATOM     12  C   UNL     1      35.541 -17.313 -23.085  0.00  0.00    +0.186 C 
BRANCH  12  13
ATOM     13  O   UNL     1      35.117 -16.317 -24.007  0.00  0.00    -0.451 OA
BRANCH  13  15
ATOM     14  O   UNL     1      34.104 -16.092 -26.072  0.00  0.00    -0.250 OA
ATOM     15  C   UNL     1      34.500 -16.777 -25.139  0.00  0.00    +0.317 C 
ATOM     16  C   UNL     1      34.369 -18.269 -25.078  0.00  0.00    +0.121 C 
ENDBRANCH  13  15
ENDBRANCH  12  13
ENDBRANCH  11  12
ENDBRANCH   4  11
ENDBRANCH   2   3
ENDBRANCH   1   2
BRANCH   1  17
ATOM     17  C   UNL     1      33.519 -23.556 -17.979  0.00  0.00    +0.093 C 
BRANCH  17  20
ATOM     18 CL   UNL     1      38.420 -22.937 -15.993  0.00  0.00    -0.082 Cl
ATOM     19  S   UNL     1      32.754 -24.187 -13.555  0.00  0.00    -0.084 S 
ATOM     20  N   UNL     1      33.297 -23.468 -16.530  0.00  0.00    -0.286 N 
ATOM     21  C   UNL     1      34.438 -23.514 -15.691  0.00  0.00    +0.058 C 
ATOM     22  C   UNL     1      31.965 -23.277 -16.085  0.00  0.00    +0.058 C 
ATOM     23  C   UNL     1      34.319 -23.805 -14.317  0.00  0.00    +0.043 C 
ATOM     24  C   UNL     1      31.599 -23.545 -14.750  0.00  0.00    +0.043 C 
ATOM     25  C   UNL     1      35.735 -23.237 -16.175  0.00  0.00    +0.027 C 
ATOM     26  C   UNL     1      30.955 -22.778 -16.937  0.00  0.00    +0.015 C 
ATOM     27  C   UNL     1      35.454 -23.842 -13.487  0.00  0.00    +0.009 C 
ATOM     28  C   UNL     1      30.278 -23.346 -14.312  0.00  0.00    +0.008 C 
ATOM     29  C   UNL     1      36.859 -23.269 -15.345  0.00  0.00    +0.059 C 
ATOM     30  C   UNL     1      29.645 -22.577 -16.495  0.00  0.00    +0.001 C 
ATOM     31  C   UNL     1      36.718 -23.574 -14.000  0.00  0.00    +0.012 C 
ATOM     32  C   UNL     1      29.306 -22.864 -15.181  0.00  0.00    +0.001 C 
ENDBRANCH  17  20
ENDBRANCH   1  17
TORSDOF 8
ENDMDL
MODEL 2
REMARK VINA RESULT:      -9.8      0.775      1.307
REMARK  Name = 6762
REMARK  8 active torsions:
REMARK  status: ('A' for Active; 'I' for Inactive)
REMARK    1  A    between atoms: C_1  and  C_2
REMARK    2  A    between atoms: C_1  and  C_17
REMARK    3  A    between atoms: C_2  and  N_3
REMARK    4  A    between atoms: N_4  and  C_11
REMARK    5  A    between atoms: C_11  and  C_12
REMARK    6  A    between atoms: C_12  and  O_13
REMARK    7  A    between atoms: O_13  and  C_15
REMARK    8  A    between atoms: C_17  and  N_20
REMARK                            x       y       z     vdW  Elec       q    Type
REMARK                         _______ _______ _______ _____ _____    ______ ____
ROOT
ATOM      1  C   UNL     1      33.583 -22.097 -18.535  0.00  0.00    -0.001 C 
ENDROOT
BRANCH   1   2
ATOM      2  C   UNL     1      34.864 -21.879 -19.346  0.00  0.00    -0.076 C 
BRANCH   2   3
ATOM      3  N   UNL     1      34.969 -20.511 -19.845  0.00  0.00    +0.384 N 
ATOM      4  N   UNL     1      35.241 -18.554 -21.958  0.00  0.00    +0.387 N 
ATOM      5  C   UNL     1      33.850 -20.196 -20.742  0.00  0.00    -0.101 C 
ATOM      6  C   UNL     1      36.251 -20.303 -20.532  0.00  0.00    -0.101 C 
ATOM      7  C   UNL     1      33.961 -18.761 -21.270  0.00  0.00    -0.101 C 
ATOM      8  C   UNL     1      36.360 -18.869 -21.061  0.00  0.00    -0.101 C 
ATOM      9  H   UNL     1      34.927 -19.879 -19.045  0.00  0.00    -0.080 HD
ATOM     10  H   UNL     1      35.282 -19.187 -22.756  0.00  0.00    -0.080 HD
BRANCH   4  11
ATOM     11  C   UNL     1      35.346 -17.185 -22.459  0.00  0.00    -0.029 C 
BRANCH  11  12
ATOM     12  C   UNL     1      34.703 -17.067 -23.831  0.00  0.00    +0.186 C 
BRANCH  12  13
ATOM     13  O   UNL     1      34.147 -15.765 -23.964  0.00  0.00    -0.451 OA
BRANCH  13  15
ATOM     14  O   UNL     1      33.803 -16.113 -26.222  0.00  0.00    -0.250 OA
ATOM     15  C   UNL     1      33.670 -15.445 -25.206  0.00  0.00    +0.317 C 
ATOM     16  C   UNL     1      32.947 -14.134 -25.151  0.00  0.00    +0.121 C 
ENDBRANCH  13  15
ENDBRANCH  12  13
ENDBRANCH  11  12
ENDBRANCH   4  11
ENDBRANCH   2   3
ENDBRANCH   1   2
BRANCH   1  17
ATOM     17  C   UNL     1      33.421 -23.507 -17.969  0.00  0.00    +0.093 C 
BRANCH  17  20
ATOM     18 CL   UNL     1      38.321 -22.914 -15.974  0.00  0.00    -0.082 Cl
ATOM     19  S   UNL     1      32.667 -24.266 -13.562  0.00  0.00    -0.084 S 
ATOM     20  N   UNL     1      33.201 -23.461 -16.517  0.00  0.00    -0.286 N 
ATOM     21  C   UNL     1      34.343 -23.524 -15.681  0.00  0.00    +0.058 C 
ATOM     22  C   UNL     1      31.868 -23.290 -16.064  0.00  0.00    +0.058 C 
ATOM     23  C   UNL     1      34.228 -23.854 -14.316  0.00  0.00    +0.043 C 
ATOM     24  C   UNL     1      31.506 -23.598 -14.737  0.00  0.00    +0.043 C 
ATOM     25  C   UNL     1      35.637 -23.225 -16.160  0.00  0.00    +0.027 C 
ATOM     26  C   UNL     1      30.854 -22.774 -16.901  0.00  0.00    +0.015 C 
ATOM     27  C   UNL     1      35.365 -23.906 -13.489  0.00  0.00    +0.009 C 
ATOM     28  C   UNL     1      30.185 -23.419 -14.291  0.00  0.00    +0.008 C 
ATOM     29  C   UNL     1      36.764 -23.273 -15.333  0.00  0.00    +0.059 C 
ATOM     30  C   UNL     1      29.543 -22.594 -16.451  0.00  0.00    +0.001 C 
ATOM     31  C   UNL     1      36.627 -23.617 -13.996  0.00  0.00    +0.012 C 
ATOM     32  C   UNL     1      29.208 -22.919 -15.145  0.00  0.00    +0.001 C 
ENDBRANCH  17  20
ENDBRANCH   1  17
TORSDOF 8
ENDMDL
MODEL 3
REMARK VINA RESULT:      -9.6      8.626     13.359
REMARK  Name = 6762
REMARK  8 active torsions:
REMARK  status: ('A' for Active; 'I' for Inactive)
REMARK    1  A    between atoms: C_1  and  C_2
REMARK    2  A    between atoms: C_1  and  C_17
REMARK    3  A    between atoms: C_2  and  N_3
REMARK    4  A    between atoms: N_4  and  C_11
REMARK    5  A    between atoms: C_11  and  C_12
REMARK    6  A    between atoms: C_12  and  O_13
REMARK    7  A    between atoms: O_13  and  C_15
REMARK    8  A    between atoms: C_17  and  N_20
REMARK                            x       y       z     vdW  Elec       q    Type
REMARK                         _______ _______ _______ _____ _____    ______ ____
ROOT
ATOM      1  C   UNL     1      33.637 -10.446 -23.940  0.00  0.00    -0.001 C 
ENDROOT
BRANCH   1   2
ATOM      2  C   UNL     1      33.776 -11.563 -24.979  0.00  0.00    -0.076 C 
BRANCH   2   3
ATOM      3  N   UNL     1      34.117 -12.843 -24.364  0.00  0.00    +0.384 N 
ATOM      4  N   UNL     1      33.490 -15.206 -22.819  0.00  0.00    +0.387 N 
ATOM      5  C   UNL     1      33.298 -13.925 -24.924  0.00  0.00    -0.101 C 
ATOM      6  C   UNL     1      33.956 -12.780 -22.906  0.00  0.00    -0.101 C 
ATOM      7  C   UNL     1      33.652 -15.269 -24.277  0.00  0.00    -0.101 C 
ATOM      8  C   UNL     1      34.309 -14.124 -22.259  0.00  0.00    -0.101 C 
ATOM      9  H   UNL     1      35.096 -13.041 -24.571  0.00  0.00    -0.080 HD
ATOM     10  H   UNL     1      32.511 -15.007 -22.615  0.00  0.00    -0.080 HD
BRANCH   4  11
ATOM     11  C   UNL     1      33.829 -16.487 -22.204  0.00  0.00    -0.029 C 
BRANCH  11  12
ATOM     12  C   UNL     1      35.025 -17.117 -22.900  0.00  0.00    +0.186 C 
BRANCH  12  13
ATOM     13  O   UNL     1      35.005 -18.518 -22.663  0.00  0.00    -0.451 OA
BRANCH  13  15
ATOM     14  O   UNL     1      36.069 -18.557 -20.612  0.00  0.00    -0.250 OA
ATOM     15  C   UNL     1      35.166 -18.905 -21.361  0.00  0.00    +0.317 C 
ATOM     16  C   UNL     1      34.061 -19.837 -20.965  0.00  0.00    +0.121 C 
ENDBRANCH  13  15
ENDBRANCH  12  13
ENDBRANCH  11  12
ENDBRANCH   4  11
ENDBRANCH   2   3
ENDBRANCH   1   2
BRANCH   1  17
ATOM     17  C   UNL     1      32.320  -9.674 -24.007  0.00  0.00    +0.093 C 
BRANCH  17  20
ATOM     18 CL   UNL     1      31.268  -4.673 -25.496  0.00  0.00    -0.082 Cl
ATOM     19  S   UNL     1      32.417  -7.535 -20.010  0.00  0.00    -0.084 S 
ATOM     20  N   UNL     1      32.058  -8.983 -22.738  0.00  0.00    -0.286 N 
ATOM     21  C   UNL     1      31.954  -7.570 -22.773  0.00  0.00    +0.058 C 
ATOM     22  C   UNL     1      31.863  -9.785 -21.585  0.00  0.00    +0.058 C 
ATOM     23  C   UNL     1      32.074  -6.802 -21.598  0.00  0.00    +0.043 C 
ATOM     24  C   UNL     1      31.975  -9.238 -20.291  0.00  0.00    +0.043 C 
ATOM     25  C   UNL     1      31.690  -6.870 -23.971  0.00  0.00    +0.027 C 
ATOM     26  C   UNL     1      31.515 -11.151 -21.675  0.00  0.00    +0.015 C 
ATOM     27  C   UNL     1      31.962  -5.401 -21.638  0.00  0.00    +0.009 C 
ATOM     28  C   UNL     1      31.773 -10.037 -19.152  0.00  0.00    +0.008 C 
ATOM     29  C   UNL     1      31.575  -5.477 -24.004  0.00  0.00    +0.059 C 
ATOM     30  C   UNL     1      31.310 -11.939 -20.539  0.00  0.00    +0.001 C 
ATOM     31  C   UNL     1      31.713  -4.742 -22.837  0.00  0.00    +0.012 C 
ATOM     32  C   UNL     1      31.442 -11.382 -19.276  0.00  0.00    +0.001 C 
ENDBRANCH  17  20
ENDBRANCH   1  17
TORSDOF 8
ENDMDL
MODEL 4
REMARK VINA RESULT:      -9.4      4.493      7.414
REMARK  Name = 6762
REMARK  8 active torsions:
REMARK  status: ('A' for Active; 'I' for Inactive)
REMARK    1  A    between atoms: C_1  and  C_2
REMARK    2  A    between atoms: C_1  and  C_17
REMARK    3  A    between atoms: C_2  and  N_3
REMARK    4  A    between atoms: N_4  and  C_11
REMARK    5  A    between atoms: C_11  and  C_12
REMARK    6  A    between atoms: C_12  and  O_13
REMARK    7  A    between atoms: O_13  and  C_15
REMARK    8  A    between atoms: C_17  and  N_20
REMARK                            x       y       z     vdW  Elec       q    Type
REMARK                         _______ _______ _______ _____ _____    ______ ____
ROOT
ATOM      1  C   UNL     1      33.287 -23.318 -14.266  0.00  0.00    -0.001 C 
ENDROOT
BRANCH   1   2
ATOM      2  C   UNL     1      32.169 -23.957 -13.437  0.00  0.00    -0.076 C 
BRANCH   2   3
ATOM      3  N   UNL     1      30.856 -23.760 -14.045  0.00  0.00    +0.384 N 
ATOM      4  N   UNL     1      29.069 -23.584 -16.312  0.00  0.00    +0.387 N 
ATOM      5  C   UNL     1      30.438 -24.959 -14.782  0.00  0.00    -0.101 C 
ATOM      6  C   UNL     1      30.862 -22.589 -14.931  0.00  0.00    -0.101 C 
ATOM      7  C   UNL     1      29.062 -24.753 -15.425  0.00  0.00    -0.101 C 
ATOM      8  C   UNL     1      29.487 -22.385 -15.575  0.00  0.00    -0.101 C 
ATOM      9  H   UNL     1      30.184 -23.593 -13.296  0.00  0.00    -0.080 HD
ATOM     10  H   UNL     1      29.742 -23.752 -17.059  0.00  0.00    -0.080 HD
BRANCH   4  11
ATOM     11  C   UNL     1      27.756 -23.387 -16.923  0.00  0.00    -0.029 C 
BRANCH  11  12
ATOM     12  C   UNL     1      27.129 -22.089 -16.441  0.00  0.00    +0.186 C 
BRANCH  12  13
ATOM     13  O   UNL     1      25.877 -21.918 -17.093  0.00  0.00    -0.451 OA
BRANCH  13  15
ATOM     14  O   UNL     1      25.954 -19.760 -17.917  0.00  0.00    -0.250 OA
ATOM     15  C   UNL     1      25.844 -20.968 -18.077  0.00  0.00    +0.317 C 
ATOM     16  C   UNL     1      25.649 -21.623 -19.411  0.00  0.00    +0.121 C 
ENDBRANCH  13  15
ENDBRANCH  12  13
ENDBRANCH  11  12
ENDBRANCH   4  11
ENDBRANCH   2   3
ENDBRANCH   1   2
BRANCH   1  17
ATOM     17  C   UNL     1      33.591 -24.033 -15.583  0.00  0.00    +0.093 C 
BRANCH  17  20
ATOM     18 CL   UNL     1      37.207 -26.884 -12.911  0.00  0.00    -0.082 Cl
ATOM     19  S   UNL     1      37.420 -21.906 -16.756  0.00  0.00    -0.084 S 
ATOM     20  N   UNL     1      34.871 -23.577 -16.138  0.00  0.00    -0.286 N 
ATOM     21  C   UNL     1      36.055 -23.995 -15.481  0.00  0.00    +0.058 C 
ATOM     22  C   UNL     1      34.829 -22.808 -17.329  0.00  0.00    +0.058 C 
ATOM     23  C   UNL     1      37.280 -23.333 -15.697  0.00  0.00    +0.043 C 
ATOM     24  C   UNL     1      35.932 -22.027 -17.729  0.00  0.00    +0.043 C 
ATOM     25  C   UNL     1      36.074 -25.108 -14.612  0.00  0.00    +0.027 C 
ATOM     26  C   UNL     1      33.705 -22.814 -18.184  0.00  0.00    +0.015 C 
ATOM     27  C   UNL     1      38.453 -23.758 -15.048  0.00  0.00    +0.009 C 
ATOM     28  C   UNL     1      35.887 -21.273 -18.915  0.00  0.00    +0.008 C 
ATOM     29  C   UNL     1      37.244 -25.529 -13.973  0.00  0.00    +0.059 C 
ATOM     30  C   UNL     1      33.668 -22.066 -19.364  0.00  0.00    +0.001 C 
ATOM     31  C   UNL     1      38.434 -24.851 -14.190  0.00  0.00    +0.012 C 
ATOM     32  C   UNL     1      34.759 -21.293 -19.728  0.00  0.00    +0.001 C 
ENDBRANCH  17  20
ENDBRANCH   1  17
TORSDOF 8
ENDMDL
MODEL 5
REMARK VINA RESULT:      -9.3      7.542     11.162
REMARK  Name = 6762
REMARK  8 active torsions:
REMARK  status: ('A' for Active; 'I' for Inactive)
REMARK    1  A    between atoms: C_1  and  C_2
REMARK    2  A    between atoms: C_1  and  C_17
REMARK    3  A    between atoms: C_2  and  N_3
REMARK    4  A    between atoms: N_4  and  C_11
REMARK    5  A    between atoms: C_11  and  C_12
REMARK    6  A    between atoms: C_12  and  O_13
REMARK    7  A    between atoms: O_13  and  C_15
REMARK    8  A    between atoms: C_17  and  N_20
REMARK                            x       y       z     vdW  Elec       q    Type
REMARK                         _______ _______ _______ _____ _____    ______ ____
ROOT
ATOM      1  C   UNL     1      32.339 -14.303 -21.433  0.00  0.00    -0.001 C 
ENDROOT
BRANCH   1   2
ATOM      2  C   UNL     1      31.992 -13.365 -20.273  0.00  0.00    -0.076 C 
BRANCH   2   3
ATOM      3  N   UNL     1      32.281 -11.969 -20.593  0.00  0.00    +0.384 N 
ATOM      4  N   UNL     1      31.499  -9.256 -21.218  0.00  0.00    +0.387 N 
ATOM      5  C   UNL     1      31.739 -11.075 -19.563  0.00  0.00    -0.101 C 
ATOM      6  C   UNL     1      31.744 -11.615 -21.913  0.00  0.00    -0.101 C 
ATOM      7  C   UNL     1      32.037  -9.610 -19.899  0.00  0.00    -0.101 C 
ATOM      8  C   UNL     1      32.041 -10.150 -22.248  0.00  0.00    -0.101 C 
ATOM      9  H   UNL     1      33.294 -11.854 -20.617  0.00  0.00    -0.080 HD
ATOM     10  H   UNL     1      30.486  -9.372 -21.192  0.00  0.00    -0.080 HD
BRANCH   4  11
ATOM     11  C   UNL     1      31.786  -7.859 -21.538  0.00  0.00    -0.029 C 
BRANCH  11  12
ATOM     12  C   UNL     1      33.280  -7.645 -21.711  0.00  0.00    +0.186 C 
BRANCH  12  13
ATOM     13  O   UNL     1      33.502  -6.933 -22.922  0.00  0.00    -0.451 OA
BRANCH  13  15
ATOM     14  O   UNL     1      35.007  -8.543 -23.616  0.00  0.00    -0.250 OA
ATOM     15  C   UNL     1      34.411  -7.487 -23.781  0.00  0.00    +0.317 C 
ATOM     16  C   UNL     1      34.584  -6.605 -24.979  0.00  0.00    +0.121 C 
ENDBRANCH  13  15
ENDBRANCH  12  13
ENDBRANCH  11  12
ENDBRANCH   4  11
ENDBRANCH   2   3
ENDBRANCH   1   2
BRANCH   1  17
ATOM     17  C   UNL     1      33.810 -14.711 -21.504  0.00  0.00    +0.093 C 
BRANCH  17  20
ATOM     18 CL   UNL     1      33.582 -11.026 -25.339  0.00  0.00    -0.082 Cl
ATOM     19  S   UNL     1      33.776 -17.315 -25.216  0.00  0.00    -0.084 S 
ATOM     20  N   UNL     1      34.080 -15.471 -22.731  0.00  0.00    -0.286 N 
ATOM     21  C   UNL     1      33.878 -14.808 -23.967  0.00  0.00    +0.058 C 
ATOM     22  C   UNL     1      34.586 -16.788 -22.585  0.00  0.00    +0.058 C 
ATOM     23  C   UNL     1      33.750 -15.534 -25.169  0.00  0.00    +0.043 C 
ATOM     24  C   UNL     1      34.528 -17.710 -23.649  0.00  0.00    +0.043 C 
ATOM     25  C   UNL     1      33.832 -13.400 -24.062  0.00  0.00    +0.027 C 
ATOM     26  C   UNL     1      35.201 -17.225 -21.392  0.00  0.00    +0.015 C 
ATOM     27  C   UNL     1      33.557 -14.870 -26.394  0.00  0.00    +0.009 C 
ATOM     28  C   UNL     1      35.038 -19.012 -23.502  0.00  0.00    +0.008 C 
ATOM     29  C   UNL     1      33.646 -12.745 -25.283  0.00  0.00    +0.059 C 
ATOM     30  C   UNL     1      35.711 -18.519 -21.252  0.00  0.00    +0.001 C 
ATOM     31  C   UNL     1      33.506 -13.482 -26.450  0.00  0.00    +0.012 C 
ATOM     32  C   UNL     1      35.627 -19.414 -22.308  0.00  0.00    +0.001 C 
ENDBRANCH  17  20
ENDBRANCH   1  17
TORSDOF 8
ENDMDL
MODEL 6
REMARK VINA RESULT:      -9.3      2.420      4.835
REMARK  Name = 6762
REMARK  8 active torsions:
REMARK  status: ('A' for Active; 'I' for Inactive)
REMARK    1  A    between atoms: C_1  and  C_2
REMARK    2  A    between atoms: C_1  and  C_17
REMARK    3  A    between atoms: C_2  and  N_3
REMARK    4  A    between atoms: N_4  and  C_11
REMARK    5  A    between atoms: C_11  and  C_12
REMARK    6  A    between atoms: C_12  and  O_13
REMARK    7  A    between atoms: O_13  and  C_15
REMARK    8  A    between atoms: C_17  and  N_20
REMARK                            x       y       z     vdW  Elec       q    Type
REMARK                         _______ _______ _______ _____ _____    ______ ____
ROOT
ATOM      1  C   UNL     1      35.910 -22.326 -17.440  0.00  0.00    -0.001 C 
ENDROOT
BRANCH   1   2
ATOM      2  C   UNL     1      36.776 -21.696 -18.534  0.00  0.00    -0.076 C 
BRANCH   2   3
ATOM      3  N   UNL     1      36.049 -20.679 -19.289  0.00  0.00    +0.384 N 
ATOM      4  N   UNL     1      34.935 -19.584 -21.723  0.00  0.00    +0.387 N 
ATOM      5  C   UNL     1      34.840 -21.247 -19.898  0.00  0.00    -0.101 C 
ATOM      6  C   UNL     1      36.908 -20.079 -20.318  0.00  0.00    -0.101 C 
ATOM      7  C   UNL     1      34.077 -20.182 -20.694  0.00  0.00    -0.101 C 
ATOM      8  C   UNL     1      36.144 -19.015 -21.115  0.00  0.00    -0.101 C 
ATOM      9  H   UNL     1      35.766 -19.945 -18.639  0.00  0.00    -0.080 HD
ATOM     10  H   UNL     1      35.217 -20.319 -22.372  0.00  0.00    -0.080 HD
BRANCH   4  11
ATOM     11  C   UNL     1      34.207 -18.568 -22.480  0.00  0.00    -0.029 C 
BRANCH  11  12
ATOM     12  C   UNL     1      34.687 -17.175 -22.108  0.00  0.00    +0.186 C 
BRANCH  12  13
ATOM     13  O   UNL     1      33.628 -16.486 -21.456  0.00  0.00    -0.451 OA
BRANCH  13  15
ATOM     14  O   UNL     1      34.988 -15.305 -20.009  0.00  0.00    -0.250 OA
ATOM     15  C   UNL     1      33.993 -15.395 -20.715  0.00  0.00    +0.317 C 
ATOM     16  C   UNL     1      32.985 -14.301 -20.888  0.00  0.00    +0.121 C 
ENDBRANCH  13  15
ENDBRANCH  12  13
ENDBRANCH  11  12
ENDBRANCH   4  11
ENDBRANCH   2   3
ENDBRANCH   1   2
BRANCH   1  17
ATOM     17  C   UNL     1      36.371 -22.028 -16.013  0.00  0.00    +0.093 C 
BRANCH  17  20
ATOM     18 CL   UNL     1      31.104 -22.716 -16.356  0.00  0.00    -0.082 Cl
ATOM     19  S   UNL     1      35.652 -24.962 -12.631  0.00  0.00    -0.084 S 
ATOM     20  N   UNL     1      36.114 -23.176 -15.134  0.00  0.00    -0.286 N 
ATOM     21  C   UNL     1      34.762 -23.481 -14.837  0.00  0.00    +0.058 C 
ATOM     22  C   UNL     1      37.234 -23.932 -14.703  0.00  0.00    +0.058 C 
ATOM     23  C   UNL     1      34.425 -24.302 -13.743  0.00  0.00    +0.043 C 
ATOM     24  C   UNL     1      37.143 -24.797 -13.594  0.00  0.00    +0.043 C 
ATOM     25  C   UNL     1      33.697 -23.014 -15.639  0.00  0.00    +0.027 C 
ATOM     26  C   UNL     1      38.473 -23.885 -15.377  0.00  0.00    +0.015 C 
ATOM     27  C   UNL     1      33.082 -24.608 -13.458  0.00  0.00    +0.009 C 
ATOM     28  C   UNL     1      38.254 -25.550 -13.175  0.00  0.00    +0.008 C 
ATOM     29  C   UNL     1      32.364 -23.326 -15.355  0.00  0.00    +0.059 C 
ATOM     30  C   UNL     1      39.573 -24.639 -14.960  0.00  0.00    +0.001 C 
ATOM     31  C   UNL     1      32.057 -24.122 -14.261  0.00  0.00    +0.012 C 
ATOM     32  C   UNL     1      39.463 -25.471 -13.856  0.00  0.00    +0.001 C 
ENDBRANCH  17  20
ENDBRANCH   1  17
TORSDOF 8
ENDMDL
MODEL 7
REMARK VINA RESULT:      -9.2      8.558     12.045
REMARK  Name = 6762
REMARK  8 active torsions:
REMARK  status: ('A' for Active; 'I' for Inactive)
REMARK    1  A    between atoms: C_1  and  C_2
REMARK    2  A    between atoms: C_1  and  C_17
REMARK    3  A    between atoms: C_2  and  N_3
REMARK    4  A    between atoms: N_4  and  C_11
REMARK    5  A    between atoms: C_11  and  C_12
REMARK    6  A    between atoms: C_12  and  O_13
REMARK    7  A    between atoms: O_13  and  C_15
REMARK    8  A    between atoms: C_17  and  N_20
REMARK                            x       y       z     vdW  Elec       q    Type
REMARK                         _______ _______ _______ _____ _____    ______ ____
ROOT
ATOM      1  C   UNL     1      32.333 -14.379 -21.398  0.00  0.00    -0.001 C 
ENDROOT
BRANCH   1   2
ATOM      2  C   UNL     1      31.965 -13.461 -20.228  0.00  0.00    -0.076 C 
BRANCH   2   3
ATOM      3  N   UNL     1      32.265 -12.061 -20.516  0.00  0.00    +0.384 N 
ATOM      4  N   UNL     1      31.532  -9.281 -20.827  0.00  0.00    +0.387 N 
ATOM      5  C   UNL     1      31.971 -11.215 -19.352  0.00  0.00    -0.101 C 
ATOM      6  C   UNL     1      31.516 -11.597 -21.690  0.00  0.00    -0.101 C 
ATOM      7  C   UNL     1      32.282  -9.745 -19.654  0.00  0.00    -0.101 C 
ATOM      8  C   UNL     1      31.826 -10.127 -21.990  0.00  0.00    -0.101 C 
ATOM      9  H   UNL     1      33.262 -11.989 -20.721  0.00  0.00    -0.080 HD
ATOM     10  H   UNL     1      30.536  -9.355 -20.619  0.00  0.00    -0.080 HD
BRANCH   4  11
ATOM     11  C   UNL     1      31.831  -7.880 -21.114  0.00  0.00    -0.029 C 
BRANCH  11  12
ATOM     12  C   UNL     1      31.807  -7.622 -22.611  0.00  0.00    +0.186 C 
BRANCH  12  13
ATOM     13  O   UNL     1      30.662  -6.839 -22.922  0.00  0.00    -0.451 OA
BRANCH  13  15
ATOM     14  O   UNL     1      30.355  -4.645 -22.262  0.00  0.00    -0.250 OA
ATOM     15  C   UNL     1      30.866  -5.487 -22.989  0.00  0.00    +0.317 C 
ATOM     16  C   UNL     1      31.820  -5.170 -24.099  0.00  0.00    +0.121 C 
ENDBRANCH  13  15
ENDBRANCH  12  13
ENDBRANCH  11  12
ENDBRANCH   4  11
ENDBRANCH   2   3
ENDBRANCH   1   2
BRANCH   1  17
ATOM     17  C   UNL     1      33.800 -14.310 -21.822  0.00  0.00    +0.093 C 
BRANCH  17  20
ATOM     18 CL   UNL     1      34.246  -9.637 -24.334  0.00  0.00    -0.082 Cl
ATOM     19  S   UNL     1      33.364 -15.599 -26.148  0.00  0.00    -0.084 S 
ATOM     20  N   UNL     1      33.950 -14.688 -23.234  0.00  0.00    -0.286 N 
ATOM     21  C   UNL     1      33.877 -13.653 -24.198  0.00  0.00    +0.058 C 
ATOM     22  C   UNL     1      34.223 -16.050 -23.519  0.00  0.00    +0.058 C 
ATOM     23  C   UNL     1      33.641 -13.940 -25.557  0.00  0.00    +0.043 C 
ATOM     24  C   UNL     1      34.020 -16.577 -24.810  0.00  0.00    +0.043 C 
ATOM     25  C   UNL     1      34.073 -12.297 -23.856  0.00  0.00    +0.027 C 
ATOM     26  C   UNL     1      34.740 -16.930 -22.543  0.00  0.00    +0.015 C 
ATOM     27  C   UNL     1      33.578 -12.909 -26.511  0.00  0.00    +0.009 C 
ATOM     28  C   UNL     1      34.299 -17.926 -25.090  0.00  0.00    +0.008 C 
ATOM     29  C   UNL     1      34.015 -11.276 -24.809  0.00  0.00    +0.059 C 
ATOM     30  C   UNL     1      35.021 -18.269 -22.827  0.00  0.00    +0.001 C 
ATOM     31  C   UNL     1      33.765 -11.583 -26.138  0.00  0.00    +0.012 C 
ATOM     32  C   UNL     1      34.798 -18.768 -24.102  0.00  0.00    +0.001 C 
ENDBRANCH  17  20
ENDBRANCH   1  17
TORSDOF 8
ENDMDL
MODEL 8
REMARK VINA RESULT:      -9.0      2.046      4.293
REMARK  Name = 6762
REMARK  8 active torsions:
REMARK  status: ('A' for Active; 'I' for Inactive)
REMARK    1  A    between atoms: C_1  and  C_2
REMARK    2  A    between atoms: C_1  and  C_17
REMARK    3  A    between atoms: C_2  and  N_3
REMARK    4  A    between atoms: N_4  and  C_11
REMARK    5  A    between atoms: C_11  and  C_12
REMARK    6  A    between atoms: C_12  and  O_13
REMARK    7  A    between atoms: O_13  and  C_15
REMARK    8  A    between atoms: C_17  and  N_20
REMARK                            x       y       z     vdW  Elec       q    Type
REMARK                         _______ _______ _______ _____ _____    ______ ____
ROOT
ATOM      1  C   UNL     1      36.083 -22.563 -17.561  0.00  0.00    -0.001 C 
ENDROOT
BRANCH   1   2
ATOM      2  C   UNL     1      34.868 -22.319 -18.462  0.00  0.00    -0.076 C 
BRANCH   2   3
ATOM      3  N   UNL     1      35.204 -21.500 -19.624  0.00  0.00    +0.384 N 
ATOM      4  N   UNL     1      35.630 -18.967 -20.953  0.00  0.00    +0.387 N 
ATOM      5  C   UNL     1      36.404 -20.694 -19.364  0.00  0.00    -0.101 C 
ATOM      6  C   UNL     1      34.077 -20.636 -19.997  0.00  0.00    -0.101 C 
ATOM      7  C   UNL     1      36.756 -19.832 -20.582  0.00  0.00    -0.101 C 
ATOM      8  C   UNL     1      34.430 -19.773 -21.212  0.00  0.00    -0.101 C 
ATOM      9  H   UNL     1      35.401 -22.127 -20.404  0.00  0.00    -0.080 HD
ATOM     10  H   UNL     1      35.435 -18.342 -20.171  0.00  0.00    -0.080 HD
BRANCH   4  11
ATOM     11  C   UNL     1      35.967 -18.147 -22.115  0.00  0.00    -0.029 C 
BRANCH  11  12
ATOM     12  C   UNL     1      34.917 -18.302 -23.203  0.00  0.00    +0.186 C 
BRANCH  12  13
ATOM     13  O   UNL     1      35.294 -17.505 -24.318  0.00  0.00    -0.451 OA
BRANCH  13  15
ATOM     14  O   UNL     1      33.700 -17.001 -25.913  0.00  0.00    -0.250 OA
ATOM     15  C   UNL     1      34.298 -16.751 -24.875  0.00  0.00    +0.317 C 
ATOM     16  C   UNL     1      34.031 -15.548 -24.022  0.00  0.00    +0.121 C 
ENDBRANCH  13  15
ENDBRANCH  12  13
ENDBRANCH  11  12
ENDBRANCH   4  11
ENDBRANCH   2   3
ENDBRANCH   1   2
BRANCH   1  17
ATOM     17  C   UNL     1      35.941 -22.020 -16.140  0.00  0.00    +0.093 C 
BRANCH  17  20
ATOM     18 CL   UNL     1      30.686 -22.813 -16.451  0.00  0.00    -0.082 Cl
ATOM     19  S   UNL     1      35.256 -24.741 -12.577  0.00  0.00    -0.084 S 
ATOM     20  N   UNL     1      35.698 -23.113 -15.189  0.00  0.00    -0.286 N 
ATOM     21  C   UNL     1      34.351 -23.420 -14.876  0.00  0.00    +0.058 C 
ATOM     22  C   UNL     1      36.828 -23.821 -14.706  0.00  0.00    +0.058 C 
ATOM     23  C   UNL     1      34.023 -24.173 -13.732  0.00  0.00    +0.043 C 
ATOM     24  C   UNL     1      36.747 -24.614 -13.544  0.00  0.00    +0.043 C 
ATOM     25  C   UNL     1      33.281 -23.023 -15.709  0.00  0.00    +0.027 C 
ATOM     26  C   UNL     1      38.070 -23.797 -15.380  0.00  0.00    +0.015 C 
ATOM     27  C   UNL     1      32.684 -24.482 -13.432  0.00  0.00    +0.009 C 
ATOM     28  C   UNL     1      37.869 -25.320 -13.075  0.00  0.00    +0.008 C 
ATOM     29  C   UNL     1      31.952 -23.337 -15.409  0.00  0.00    +0.059 C 
ATOM     30  C   UNL     1      39.180 -24.505 -14.912  0.00  0.00    +0.001 C 
ATOM     31  C   UNL     1      31.654 -24.065 -14.267  0.00  0.00    +0.012 C 
ATOM     32  C   UNL     1      39.080 -25.266 -13.757  0.00  0.00    +0.001 C 
ENDBRANCH  17  20
ENDBRANCH   1  17
TORSDOF 8
ENDMDL
MODEL 9
REMARK VINA RESULT:      -8.9      4.910      7.834
REMARK  Name = 6762
REMARK  8 active torsions:
REMARK  status: ('A' for Active; 'I' for Inactive)
REMARK    1  A    between atoms: C_1  and  C_2
REMARK    2  A    between atoms: C_1  and  C_17
REMARK    3  A    between atoms: C_2  and  N_3
REMARK    4  A    between atoms: N_4  and  C_11
REMARK    5  A    between atoms: C_11  and  C_12
REMARK    6  A    between atoms: C_12  and  O_13
REMARK    7  A    between atoms: O_13  and  C_15
REMARK    8  A    between atoms: C_17  and  N_20
REMARK                            x       y       z     vdW  Elec       q    Type
REMARK                         _______ _______ _______ _____ _____    ______ ____
ROOT
ATOM      1  C   UNL     1      32.741 -24.189 -13.790  0.00  0.00    -0.001 C 
ENDROOT
BRANCH   1   2
ATOM      2  C   UNL     1      31.484 -25.043 -13.599  0.00  0.00    -0.076 C 
BRANCH   2   3
ATOM      3  N   UNL     1      30.315 -24.445 -14.239  0.00  0.00    +0.384 N 
ATOM      4  N   UNL     1      28.989 -23.069 -16.409  0.00  0.00    +0.387 N 
ATOM      5  C   UNL     1      30.004 -25.130 -15.500  0.00  0.00    -0.101 C 
ATOM      6  C   UNL     1      30.524 -23.011 -14.473  0.00  0.00    -0.101 C 
ATOM      7  C   UNL     1      28.779 -24.502 -16.174  0.00  0.00    -0.101 C 
ATOM      8  C   UNL     1      29.301 -22.384 -15.149  0.00  0.00    -0.101 C 
ATOM      9  H   UNL     1      29.520 -24.556 -13.609  0.00  0.00    -0.080 HD
ATOM     10  H   UNL     1      29.785 -22.961 -17.039  0.00  0.00    -0.080 HD
BRANCH   4  11
ATOM     11  C   UNL     1      27.820 -22.471 -17.051  0.00  0.00    -0.029 C 
BRANCH  11  12
ATOM     12  C   UNL     1      26.704 -22.258 -16.042  0.00  0.00    +0.186 C 
BRANCH  12  13
ATOM     13  O   UNL     1      25.609 -21.632 -16.697  0.00  0.00    -0.451 OA
BRANCH  13  15
ATOM     14  O   UNL     1      26.114 -19.721 -17.894  0.00  0.00    -0.250 OA
ATOM     15  C   UNL     1      25.916 -20.927 -17.829  0.00  0.00    +0.317 C 
ATOM     16  C   UNL     1      25.977 -21.852 -19.005  0.00  0.00    +0.121 C 
ENDBRANCH  13  15
ENDBRANCH  12  13
ENDBRANCH  11  12
ENDBRANCH   4  11
ENDBRANCH   2   3
ENDBRANCH   1   2
BRANCH   1  17
ATOM     17  C   UNL     1      33.673 -24.669 -14.903  0.00  0.00    +0.093 C 
BRANCH  17  20
ATOM     18 CL   UNL     1      33.191 -21.959 -19.460  0.00  0.00    -0.082 Cl
ATOM     19  S   UNL     1      37.832 -22.908 -15.316  0.00  0.00    -0.084 S 
ATOM     20  N   UNL     1      34.891 -23.849 -14.949  0.00  0.00    -0.286 N 
ATOM     21  C   UNL     1      35.171 -23.163 -16.157  0.00  0.00    +0.058 C 
ATOM     22  C   UNL     1      35.659 -23.753 -13.761  0.00  0.00    +0.058 C 
ATOM     23  C   UNL     1      36.461 -22.666 -16.429  0.00  0.00    +0.043 C 
ATOM     24  C   UNL     1      36.998 -23.315 -13.794  0.00  0.00    +0.043 C 
ATOM     25  C   UNL     1      34.172 -22.912 -17.123  0.00  0.00    +0.027 C 
ATOM     26  C   UNL     1      35.116 -24.053 -12.492  0.00  0.00    +0.015 C 
ATOM     27  C   UNL     1      36.731 -21.978 -17.626  0.00  0.00    +0.009 C 
ATOM     28  C   UNL     1      37.753 -23.215 -12.612  0.00  0.00    +0.008 C 
ATOM     29  C   UNL     1      34.444 -22.223 -18.309  0.00  0.00    +0.059 C 
ATOM     30  C   UNL     1      35.868 -23.947 -11.320  0.00  0.00    +0.001 C 
ATOM     31  C   UNL     1      35.726 -21.759 -18.561  0.00  0.00    +0.012 C 
ATOM     32  C   UNL     1      37.189 -23.529 -11.380  0.00  0.00    +0.001 C 
ENDBRANCH  17  20
ENDBRANCH   1  17
TORSDOF 8
ENDMDL
