MODEL 1
REMARK VINA RESULT:     -11.6      0.000      0.000
REMARK  Name = 5567
REMARK  8 active torsions:
REMARK  status: ('A' for Active; 'I' for Inactive)
REMARK    1  A    between atoms: N_1  and  C_20
REMARK    2  A    between atoms: C_2  and  C_8
REMARK    3  A    between atoms: C_2  and  O_18
REMARK    4  A    between atoms: C_11  and  C_17
REMARK    5  A    between atoms: C_20  and  C_21
REMARK    6  A    between atoms: C_21  and  C_22
REMARK    7  A    between atoms: C_22  and  C_24
REMARK    8  A    between atoms: C_24  and  C_26
REMARK                            x       y       z     vdW  Elec       q    Type
REMARK                         _______ _______ _______ _____ _____    ______ ____
ROOT
ATOM      1  N   UNL     1      35.080 -20.257 -20.227  0.00  0.00    +0.387 N 
ATOM      2  C   UNL     1      33.934 -22.448 -18.579  0.00  0.00    +0.103 C 
ATOM      3  C   UNL     1      33.096 -21.305 -19.194  0.00  0.00    +0.008 C 
ATOM      4  C   UNL     1      35.402 -21.976 -18.466  0.00  0.00    +0.008 C 
ATOM      5  C   UNL     1      33.713 -20.729 -20.474  0.00  0.00    -0.075 C 
ATOM      6  C   UNL     1      35.939 -21.350 -19.760  0.00  0.00    -0.075 C 
ATOM      7  H   UNL     1      35.041 -19.551 -19.491  0.00  0.00    -0.080 HD
ENDROOT
BRANCH   2   8
ATOM      8  C   UNL     1      33.431 -22.963 -17.230  0.00  0.00    +0.002 C 
ATOM      9  C   UNL     1      32.062 -23.022 -16.975  0.00  0.00    +0.002 C 
ATOM     10  C   UNL     1      34.342 -23.376 -16.260  0.00  0.00    -0.002 C 
ATOM     11  C   UNL     1      31.602 -23.494 -15.744  0.00  0.00    +0.071 C 
ATOM     12  C   UNL     1      33.882 -23.848 -15.030  0.00  0.00    -0.000 C 
ATOM     13  C   UNL     1      32.513 -23.906 -14.772  0.00  0.00    +0.004 C 
BRANCH  11  17
ATOM     14  F   UNL     1      29.391 -23.913 -16.556  0.00  0.00    -0.166 F 
ATOM     15  F   UNL     1      29.802 -24.452 -14.496  0.00  0.00    -0.166 F 
ATOM     16  F   UNL     1      29.630 -22.358 -15.055  0.00  0.00    -0.166 F 
ATOM     17  C   UNL     1      30.137 -23.555 -15.469  0.00  0.00    +0.419 C 
ENDBRANCH  11  17
ENDBRANCH   2   8
BRANCH   2  18
ATOM     18  O   UNL     1      33.862 -23.572 -19.469  0.00  0.00    -0.383 OA
ATOM     19  H   UNL     1      33.720 -23.258 -20.376  0.00  0.00    +0.211 HD
ENDBRANCH   2  18
BRANCH   1  20
ATOM     20  C   UNL     1      35.638 -19.645 -21.432  0.00  0.00    -0.077 C 
BRANCH  20  21
ATOM     21  C   UNL     1      34.574 -18.801 -22.137  0.00  0.00    -0.015 C 
BRANCH  21  22
ATOM     22  C   UNL     1      35.071 -17.388 -22.456  0.00  0.00    +0.067 C 
BRANCH  22  24
ATOM     23  O   UNL     1      35.210 -16.505 -20.213  0.00  0.00    -0.291 OA
ATOM     24  C   UNL     1      34.773 -16.380 -21.354  0.00  0.00    +0.173 C 
BRANCH  24  26
ATOM     25  F   UNL     1      31.646 -11.923 -22.591  0.00  0.00    -0.204 F 
ATOM     26  C   UNL     1      33.939 -15.189 -21.684  0.00  0.00    +0.035 C 
ATOM     27  C   UNL     1      34.017 -14.658 -22.953  0.00  0.00    +0.005 C 
ATOM     28  C   UNL     1      33.121 -14.665 -20.709  0.00  0.00    +0.005 C 
ATOM     29  C   UNL     1      33.235 -13.545 -23.261  0.00  0.00    +0.030 C 
ATOM     30  C   UNL     1      32.340 -13.552 -21.018  0.00  0.00    +0.030 C 
ATOM     31  C   UNL     1      32.396 -12.991 -22.294  0.00  0.00    +0.140 C 
ENDBRANCH  24  26
ENDBRANCH  22  24
ENDBRANCH  21  22
ENDBRANCH  20  21
ENDBRANCH   1  20
TORSDOF 8
ENDMDL
MODEL 2
REMARK VINA RESULT:     -11.5      3.335     11.211
REMARK  Name = 5567
REMARK  8 active torsions:
REMARK  status: ('A' for Active; 'I' for Inactive)
REMARK    1  A    between atoms: N_1  and  C_20
REMARK    2  A    between atoms: C_2  and  C_8
REMARK    3  A    between atoms: C_2  and  O_18
REMARK    4  A    between atoms: C_11  and  C_17
REMARK    5  A    between atoms: C_20  and  C_21
REMARK    6  A    between atoms: C_21  and  C_22
REMARK    7  A    between atoms: C_22  and  C_24
REMARK    8  A    between atoms: C_24  and  C_26
REMARK                            x       y       z     vdW  Elec       q    Type
REMARK                         _______ _______ _______ _____ _____    ______ ____
ROOT
ATOM      1  N   UNL     1      34.275 -15.860 -24.732  0.00  0.00    +0.387 N 
ATOM      2  C   UNL     1      33.285 -13.142 -24.051  0.00  0.00    +0.103 C 
ATOM      3  C   UNL     1      33.352 -13.698 -25.491  0.00  0.00    +0.008 C 
ATOM      4  C   UNL     1      34.284 -13.930 -23.172  0.00  0.00    +0.008 C 
ATOM      5  C   UNL     1      33.237 -15.225 -25.553  0.00  0.00    -0.075 C 
ATOM      6  C   UNL     1      34.161 -15.451 -23.329  0.00  0.00    -0.075 C 
ATOM      7  H   UNL     1      35.182 -15.549 -25.079  0.00  0.00    -0.080 HD
ENDROOT
BRANCH   2   8
ATOM      8  C   UNL     1      33.531 -11.638 -23.927  0.00  0.00    +0.002 C 
ATOM      9  C   UNL     1      32.753 -10.875 -23.059  0.00  0.00    +0.002 C 
ATOM     10  C   UNL     1      34.535 -11.034 -24.682  0.00  0.00    -0.002 C 
ATOM     11  C   UNL     1      32.978  -9.503 -22.944  0.00  0.00    +0.071 C 
ATOM     12  C   UNL     1      34.760  -9.661 -24.568  0.00  0.00    -0.000 C 
ATOM     13  C   UNL     1      33.981  -8.896 -23.699  0.00  0.00    +0.004 C 
BRANCH  11  17
ATOM     14  F   UNL     1      31.103  -8.050 -22.634  0.00  0.00    -0.166 F 
ATOM     15  F   UNL     1      31.573  -9.411 -21.011  0.00  0.00    -0.166 F 
ATOM     16  F   UNL     1      32.859  -7.700 -21.399  0.00  0.00    -0.166 F 
ATOM     17  C   UNL     1      32.144  -8.685 -22.017  0.00  0.00    +0.419 C 
ENDBRANCH  11  17
ENDBRANCH   2   8
BRANCH   2  18
ATOM     18  O   UNL     1      31.952 -13.353 -23.562  0.00  0.00    -0.383 OA
ATOM     19  H   UNL     1      31.568 -12.503 -23.293  0.00  0.00    +0.211 HD
ENDBRANCH   2  18
BRANCH   1  20
ATOM     20  C   UNL     1      34.203 -17.316 -24.850  0.00  0.00    -0.077 C 
BRANCH  20  21
ATOM     21  C   UNL     1      35.284 -17.970 -23.987  0.00  0.00    -0.015 C 
BRANCH  21  22
ATOM     22  C   UNL     1      34.721 -19.082 -23.096  0.00  0.00    +0.067 C 
BRANCH  22  24
ATOM     23  O   UNL     1      35.649 -17.922 -21.193  0.00  0.00    -0.291 OA
ATOM     24  C   UNL     1      35.101 -18.931 -21.629  0.00  0.00    +0.173 C 
BRANCH  24  26
ATOM     25  F   UNL     1      33.878 -23.089 -18.109  0.00  0.00    -0.204 F 
ATOM     26  C   UNL     1      34.774 -20.042 -20.691  0.00  0.00    +0.035 C 
ATOM     27  C   UNL     1      35.805 -20.790 -20.166  0.00  0.00    +0.005 C 
ATOM     28  C   UNL     1      33.454 -20.279 -20.381  0.00  0.00    +0.005 C 
ATOM     29  C   UNL     1      35.500 -21.829 -19.287  0.00  0.00    +0.030 C 
ATOM     30  C   UNL     1      33.148 -21.318 -19.501  0.00  0.00    +0.030 C 
ATOM     31  C   UNL     1      34.171 -22.092 -18.954  0.00  0.00    +0.140 C 
ENDBRANCH  24  26
ENDBRANCH  22  24
ENDBRANCH  21  22
ENDBRANCH  20  21
ENDBRANCH   1  20
TORSDOF 8
ENDMDL
MODEL 3
REMARK VINA RESULT:     -11.5      1.535      1.801
REMARK  Name = 5567
REMARK  8 active torsions:
REMARK  status: ('A' for Active; 'I' for Inactive)
REMARK    1  A    between atoms: N_1  and  C_20
REMARK    2  A    between atoms: C_2  and  C_8
REMARK    3  A    between atoms: C_2  and  O_18
REMARK    4  A    between atoms: C_11  and  C_17
REMARK    5  A    between atoms: C_20  and  C_21
REMARK    6  A    between atoms: C_21  and  C_22
REMARK    7  A    between atoms: C_22  and  C_24
REMARK    8  A    between atoms: C_24  and  C_26
REMARK                            x       y       z     vdW  Elec       q    Type
REMARK                         _______ _______ _______ _____ _____    ______ ____
ROOT
ATOM      1  N   UNL     1      35.324 -20.102 -20.257  0.00  0.00    +0.387 N 
ATOM      2  C   UNL     1      34.052 -22.309 -18.728  0.00  0.00    +0.103 C 
ATOM      3  C   UNL     1      33.263 -21.173 -19.415  0.00  0.00    +0.008 C 
ATOM      4  C   UNL     1      35.499 -21.823 -18.478  0.00  0.00    +0.008 C 
ATOM      5  C   UNL     1      33.990 -20.586 -20.631  0.00  0.00    -0.075 C 
ATOM      6  C   UNL     1      36.147 -21.187 -19.715  0.00  0.00    -0.075 C 
ATOM      7  H   UNL     1      35.209 -19.399 -19.527  0.00  0.00    -0.080 HD
ENDROOT
BRANCH   2   8
ATOM      8  C   UNL     1      33.431 -22.834 -17.432  0.00  0.00    +0.002 C 
ATOM      9  C   UNL     1      32.051 -22.774 -17.248  0.00  0.00    +0.002 C 
ATOM     10  C   UNL     1      34.247 -23.374 -16.440  0.00  0.00    -0.002 C 
ATOM     11  C   UNL     1      31.484 -23.254 -16.067  0.00  0.00    +0.071 C 
ATOM     12  C   UNL     1      33.680 -23.854 -15.259  0.00  0.00    -0.000 C 
ATOM     13  C   UNL     1      32.299 -23.794 -15.072  0.00  0.00    +0.004 C 
BRANCH  11  17
ATOM     14  F   UNL     1      29.369 -22.388 -16.773  0.00  0.00    -0.166 F 
ATOM     15  F   UNL     1      29.388 -24.402 -15.966  0.00  0.00    -0.166 F 
ATOM     16  F   UNL     1      29.665 -22.700 -14.641  0.00  0.00    -0.166 F 
ATOM     17  C   UNL     1      30.008 -23.189 -15.868  0.00  0.00    +0.419 C 
ENDBRANCH  11  17
ENDBRANCH   2   8
BRANCH   2  18
ATOM     18  O   UNL     1      34.074 -23.432 -19.623  0.00  0.00    -0.383 OA
ATOM     19  H   UNL     1      33.638 -24.189 -19.202  0.00  0.00    +0.211 HD
ENDBRANCH   2  18
BRANCH   1  20
ATOM     20  C   UNL     1      35.984 -19.480 -21.404  0.00  0.00    -0.077 C 
BRANCH  20  21
ATOM     21  C   UNL     1      34.943 -18.906 -22.367  0.00  0.00    -0.015 C 
BRANCH  21  22
ATOM     22  C   UNL     1      35.585 -18.189 -23.558  0.00  0.00    +0.067 C 
BRANCH  22  24
ATOM     23  O   UNL     1      34.031 -18.189 -25.405  0.00  0.00    -0.291 OA
ATOM     24  C   UNL     1      34.572 -17.556 -24.501  0.00  0.00    +0.173 C 
BRANCH  24  26
ATOM     25  F   UNL     1      33.213 -12.192 -23.755  0.00  0.00    -0.204 F 
ATOM     26  C   UNL     1      34.210 -16.124 -24.302  0.00  0.00    +0.035 C 
ATOM     27  C   UNL     1      33.502 -15.477 -25.291  0.00  0.00    +0.005 C 
ATOM     28  C   UNL     1      34.595 -15.501 -23.137  0.00  0.00    +0.005 C 
ATOM     29  C   UNL     1      33.163 -14.137 -25.105  0.00  0.00    +0.030 C 
ATOM     30  C   UNL     1      34.256 -14.161 -22.951  0.00  0.00    +0.030 C 
ATOM     31  C   UNL     1      33.539 -13.479 -23.934  0.00  0.00    +0.140 C 
ENDBRANCH  24  26
ENDBRANCH  22  24
ENDBRANCH  21  22
ENDBRANCH  20  21
ENDBRANCH   1  20
TORSDOF 8
ENDMDL
MODEL 4
REMARK VINA RESULT:     -11.4      3.399     10.895
REMARK  Name = 5567
REMARK  8 active torsions:
REMARK  status: ('A' for Active; 'I' for Inactive)
REMARK    1  A    between atoms: N_1  and  C_20
REMARK    2  A    between atoms: C_2  and  C_8
REMARK    3  A    between atoms: C_2  and  O_18
REMARK    4  A    between atoms: C_11  and  C_17
REMARK    5  A    between atoms: C_20  and  C_21
REMARK    6  A    between atoms: C_21  and  C_22
REMARK    7  A    between atoms: C_22  and  C_24
REMARK    8  A    between atoms: C_24  and  C_26
REMARK                            x       y       z     vdW  Elec       q    Type
REMARK                         _______ _______ _______ _____ _____    ______ ____
ROOT
ATOM      1  N   UNL     1      34.056 -16.078 -24.224  0.00  0.00    +0.387 N 
ATOM      2  C   UNL     1      33.491 -13.257 -23.484  0.00  0.00    +0.103 C 
ATOM      3  C   UNL     1      34.265 -14.244 -22.583  0.00  0.00    +0.008 C 
ATOM      4  C   UNL     1      32.620 -14.069 -24.471  0.00  0.00    +0.008 C 
ATOM      5  C   UNL     1      34.994 -15.336 -23.374  0.00  0.00    -0.075 C 
ATOM      6  C   UNL     1      33.394 -15.187 -25.182  0.00  0.00    -0.075 C 
ATOM      7  H   UNL     1      33.339 -16.482 -23.622  0.00  0.00    -0.080 HD
ENDROOT
BRANCH   2   8
ATOM      8  C   UNL     1      32.638 -12.231 -22.736  0.00  0.00    +0.002 C 
ATOM      9  C   UNL     1      32.584 -10.912 -23.182  0.00  0.00    +0.002 C 
ATOM     10  C   UNL     1      31.914 -12.619 -21.610  0.00  0.00    -0.002 C 
ATOM     11  C   UNL     1      31.805  -9.976 -22.500  0.00  0.00    +0.071 C 
ATOM     12  C   UNL     1      31.135 -11.684 -20.927  0.00  0.00    -0.000 C 
ATOM     13  C   UNL     1      31.081 -10.363 -21.373  0.00  0.00    +0.004 C 
BRANCH  11  17
ATOM     14  F   UNL     1      32.696  -8.265 -23.914  0.00  0.00    -0.166 F 
ATOM     15  F   UNL     1      30.558  -8.229 -23.553  0.00  0.00    -0.166 F 
ATOM     16  F   UNL     1      31.935  -7.663 -21.968  0.00  0.00    -0.166 F 
ATOM     17  C   UNL     1      31.749  -8.564 -22.976  0.00  0.00    +0.419 C 
ENDBRANCH  11  17
ENDBRANCH   2   8
BRANCH   2  18
ATOM     18  O   UNL     1      34.455 -12.488 -24.220  0.00  0.00    -0.383 OA
ATOM     19  H   UNL     1      34.125 -12.333 -25.120  0.00  0.00    +0.211 HD
ENDBRANCH   2  18
BRANCH   1  20
ATOM     20  C   UNL     1      34.745 -17.163 -24.923  0.00  0.00    -0.077 C 
BRANCH  20  21
ATOM     21  C   UNL     1      34.375 -18.511 -24.301  0.00  0.00    -0.015 C 
BRANCH  21  22
ATOM     22  C   UNL     1      35.239 -18.844 -23.081  0.00  0.00    +0.067 C 
BRANCH  22  24
ATOM     23  O   UNL     1      33.949 -17.632 -21.440  0.00  0.00    -0.291 OA
ATOM     24  C   UNL     1      34.504 -18.681 -21.758  0.00  0.00    +0.173 C 
BRANCH  24  26
ATOM     25  F   UNL     1      34.270 -23.043 -18.281  0.00  0.00    -0.204 F 
ATOM     26  C   UNL     1      34.442 -19.845 -20.829  0.00  0.00    +0.035 C 
ATOM     27  C   UNL     1      33.211 -20.264 -20.375  0.00  0.00    +0.005 C 
ATOM     28  C   UNL     1      35.617 -20.459 -20.459  0.00  0.00    +0.005 C 
ATOM     29  C   UNL     1      33.152 -21.353 -19.506  0.00  0.00    +0.030 C 
ATOM     30  C   UNL     1      35.558 -21.549 -19.590  0.00  0.00    +0.030 C 
ATOM     31  C   UNL     1      34.326 -21.997 -19.114  0.00  0.00    +0.140 C 
ENDBRANCH  24  26
ENDBRANCH  22  24
ENDBRANCH  21  22
ENDBRANCH  20  21
ENDBRANCH   1  20
TORSDOF 8
ENDMDL
MODEL 5
REMARK VINA RESULT:     -11.3      1.861      2.547
REMARK  Name = 5567
REMARK  8 active torsions:
REMARK  status: ('A' for Active; 'I' for Inactive)
REMARK    1  A    between atoms: N_1  and  C_20
REMARK    2  A    between atoms: C_2  and  C_8
REMARK    3  A    between atoms: C_2  and  O_18
REMARK    4  A    between atoms: C_11  and  C_17
REMARK    5  A    between atoms: C_20  and  C_21
REMARK    6  A    between atoms: C_21  and  C_22
REMARK    7  A    between atoms: C_22  and  C_24
REMARK    8  A    between atoms: C_24  and  C_26
REMARK                            x       y       z     vdW  Elec       q    Type
REMARK                         _______ _______ _______ _____ _____    ______ ____
ROOT
ATOM      1  N   UNL     1      35.374 -20.056 -20.329  0.00  0.00    +0.387 N 
ATOM      2  C   UNL     1      34.181 -22.286 -18.770  0.00  0.00    +0.103 C 
ATOM      3  C   UNL     1      33.359 -21.139 -19.397  0.00  0.00    +0.008 C 
ATOM      4  C   UNL     1      35.640 -21.806 -18.590  0.00  0.00    +0.008 C 
ATOM      5  C   UNL     1      34.021 -20.533 -20.640  0.00  0.00    -0.075 C 
ATOM      6  C   UNL     1      36.222 -21.151 -19.849  0.00  0.00    -0.075 C 
ATOM      7  H   UNL     1      35.299 -19.364 -19.583  0.00  0.00    -0.080 HD
ENDROOT
BRANCH   2   8
ATOM      8  C   UNL     1      33.629 -22.831 -17.452  0.00  0.00    +0.002 C 
ATOM      9  C   UNL     1      34.502 -23.187 -16.426  0.00  0.00    +0.002 C 
ATOM     10  C   UNL     1      32.253 -22.967 -17.279  0.00  0.00    -0.002 C 
ATOM     11  C   UNL     1      33.999 -23.683 -15.222  0.00  0.00    +0.071 C 
ATOM     12  C   UNL     1      31.749 -23.463 -16.075  0.00  0.00    -0.000 C 
ATOM     13  C   UNL     1      32.622 -23.821 -15.048  0.00  0.00    +0.004 C 
BRANCH  11  17
ATOM     14  F   UNL     1      35.625 -25.218 -14.373  0.00  0.00    -0.166 F 
ATOM     15  F   UNL     1      35.887 -23.125 -13.866  0.00  0.00    -0.166 F 
ATOM     16  F   UNL     1      34.291 -24.274 -12.938  0.00  0.00    -0.166 F 
ATOM     17  C   UNL     1      34.932 -24.066 -14.124  0.00  0.00    +0.419 C 
ENDBRANCH  11  17
ENDBRANCH   2   8
BRANCH   2  18
ATOM     18  O   UNL     1      34.154 -23.394 -19.683  0.00  0.00    -0.383 OA
ATOM     19  H   UNL     1      35.061 -23.631 -19.931  0.00  0.00    +0.211 HD
ENDBRANCH   2  18
BRANCH   1  20
ATOM     20  C   UNL     1      35.973 -19.417 -21.500  0.00  0.00    -0.077 C 
BRANCH  20  21
ATOM     21  C   UNL     1      34.907 -18.657 -22.292  0.00  0.00    -0.015 C 
BRANCH  21  22
ATOM     22  C   UNL     1      35.281 -17.188 -22.508  0.00  0.00    +0.067 C 
BRANCH  22  24
ATOM     23  O   UNL     1      35.133 -16.466 -20.209  0.00  0.00    -0.291 OA
ATOM     24  C   UNL     1      34.818 -16.275 -21.381  0.00  0.00    +0.173 C 
BRANCH  24  26
ATOM     25  F   UNL     1      31.644 -11.860 -22.652  0.00  0.00    -0.204 F 
ATOM     26  C   UNL     1      33.970 -15.097 -21.721  0.00  0.00    +0.035 C 
ATOM     27  C   UNL     1      33.083 -14.626 -20.778  0.00  0.00    +0.005 C 
ATOM     28  C   UNL     1      34.105 -14.522 -22.964  0.00  0.00    +0.005 C 
ATOM     29  C   UNL     1      32.291 -13.523 -21.095  0.00  0.00    +0.030 C 
ATOM     30  C   UNL     1      33.312 -13.419 -23.282  0.00  0.00    +0.030 C 
ATOM     31  C   UNL     1      32.405 -12.919 -22.347  0.00  0.00    +0.140 C 
ENDBRANCH  24  26
ENDBRANCH  22  24
ENDBRANCH  21  22
ENDBRANCH  20  21
ENDBRANCH   1  20
TORSDOF 8
ENDMDL
MODEL 6
REMARK VINA RESULT:     -11.2      5.797      9.083
REMARK  Name = 5567
REMARK  8 active torsions:
REMARK  status: ('A' for Active; 'I' for Inactive)
REMARK    1  A    between atoms: N_1  and  C_20
REMARK    2  A    between atoms: C_2  and  C_8
REMARK    3  A    between atoms: C_2  and  O_18
REMARK    4  A    between atoms: C_11  and  C_17
REMARK    5  A    between atoms: C_20  and  C_21
REMARK    6  A    between atoms: C_21  and  C_22
REMARK    7  A    between atoms: C_22  and  C_24
REMARK    8  A    between atoms: C_24  and  C_26
REMARK                            x       y       z     vdW  Elec       q    Type
REMARK                         _______ _______ _______ _____ _____    ______ ____
ROOT
ATOM      1  N   UNL     1      31.591 -12.413 -22.233  0.00  0.00    +0.387 N 
ATOM      2  C   UNL     1      33.741 -14.415 -22.681  0.00  0.00    +0.103 C 
ATOM      3  C   UNL     1      33.174 -13.499 -23.789  0.00  0.00    +0.008 C 
ATOM      4  C   UNL     1      32.691 -14.531 -21.553  0.00  0.00    +0.008 C 
ATOM      5  C   UNL     1      32.623 -12.174 -23.249  0.00  0.00    -0.075 C 
ATOM      6  C   UNL     1      32.131 -13.175 -21.103  0.00  0.00    -0.075 C 
ATOM      7  H   UNL     1      30.851 -12.968 -22.663  0.00  0.00    -0.080 HD
ENDROOT
BRANCH   2   8
ATOM      8  C   UNL     1      34.179 -15.802 -23.153  0.00  0.00    +0.002 C 
ATOM      9  C   UNL     1      34.522 -16.778 -22.218  0.00  0.00    +0.002 C 
ATOM     10  C   UNL     1      34.231 -16.089 -24.516  0.00  0.00    -0.002 C 
ATOM     11  C   UNL     1      34.920 -18.045 -22.648  0.00  0.00    +0.071 C 
ATOM     12  C   UNL     1      34.629 -17.355 -24.945  0.00  0.00    -0.000 C 
ATOM     13  C   UNL     1      34.973 -18.333 -24.011  0.00  0.00    +0.004 C 
BRANCH  11  17
ATOM     14  F   UNL     1      36.576 -18.986 -21.201  0.00  0.00    -0.166 F 
ATOM     15  F   UNL     1      34.517 -19.066 -20.524  0.00  0.00    -0.166 F 
ATOM     16  F   UNL     1      35.176 -20.354 -22.147  0.00  0.00    -0.166 F 
ATOM     17  C   UNL     1      35.289 -19.089 -21.650  0.00  0.00    +0.419 C 
ENDBRANCH  11  17
ENDBRANCH   2   8
BRANCH   2  18
ATOM     18  O   UNL     1      34.929 -13.794 -22.165  0.00  0.00    -0.383 OA
ATOM     19  H   UNL     1      34.682 -13.071 -21.567  0.00  0.00    +0.211 HD
ENDBRANCH   2  18
BRANCH   1  20
ATOM     20  C   UNL     1      31.020 -11.148 -21.774  0.00  0.00    -0.077 C 
BRANCH  20  21
ATOM     21  C   UNL     1      32.095 -10.059 -21.755  0.00  0.00    -0.015 C 
BRANCH  21  22
ATOM     22  C   UNL     1      31.975  -9.146 -20.531  0.00  0.00    +0.067 C 
BRANCH  22  24
ATOM     23  O   UNL     1      33.090  -7.166 -19.716  0.00  0.00    -0.291 OA
ATOM     24  C   UNL     1      32.724  -7.829 -20.683  0.00  0.00    +0.173 C 
BRANCH  24  26
ATOM     25  F   UNL     1      33.915  -6.008 -25.825  0.00  0.00    -0.204 F 
ATOM     26  C   UNL     1      33.042  -7.344 -22.056  0.00  0.00    +0.035 C 
ATOM     27  C   UNL     1      32.127  -6.542 -22.702  0.00  0.00    +0.005 C 
ATOM     28  C   UNL     1      34.238  -7.715 -22.628  0.00  0.00    +0.005 C 
ATOM     29  C   UNL     1      32.425  -6.087 -23.987  0.00  0.00    +0.030 C 
ATOM     30  C   UNL     1      34.535  -7.260 -23.913  0.00  0.00    +0.030 C 
ATOM     31  C   UNL     1      33.629  -6.445 -24.592  0.00  0.00    +0.140 C 
ENDBRANCH  24  26
ENDBRANCH  22  24
ENDBRANCH  21  22
ENDBRANCH  20  21
ENDBRANCH   1  20
TORSDOF 8
ENDMDL
MODEL 7
REMARK VINA RESULT:     -11.2      3.991     12.203
REMARK  Name = 5567
REMARK  8 active torsions:
REMARK  status: ('A' for Active; 'I' for Inactive)
REMARK    1  A    between atoms: N_1  and  C_20
REMARK    2  A    between atoms: C_2  and  C_8
REMARK    3  A    between atoms: C_2  and  O_18
REMARK    4  A    between atoms: C_11  and  C_17
REMARK    5  A    between atoms: C_20  and  C_21
REMARK    6  A    between atoms: C_21  and  C_22
REMARK    7  A    between atoms: C_22  and  C_24
REMARK    8  A    between atoms: C_24  and  C_26
REMARK                            x       y       z     vdW  Elec       q    Type
REMARK                         _______ _______ _______ _____ _____    ______ ____
ROOT
ATOM      1  N   UNL     1      32.997 -13.859 -21.651  0.00  0.00    +0.387 N 
ATOM      2  C   UNL     1      31.718 -11.179 -21.756  0.00  0.00    +0.103 C 
ATOM      3  C   UNL     1      32.584 -11.764 -22.893  0.00  0.00    +0.008 C 
ATOM      4  C   UNL     1      32.089 -11.894 -20.436  0.00  0.00    +0.008 C 
ATOM      5  C   UNL     1      32.566 -13.297 -22.936  0.00  0.00    -0.075 C 
ATOM      6  C   UNL     1      32.116 -13.423 -20.562  0.00  0.00    -0.075 C 
ATOM      7  H   UNL     1      33.936 -13.511 -21.455  0.00  0.00    -0.080 HD
ENDROOT
BRANCH   2   8
ATOM      8  C   UNL     1      31.811  -9.662 -21.589  0.00  0.00    +0.002 C 
ATOM      9  C   UNL     1      31.554  -8.825 -22.674  0.00  0.00    +0.002 C 
ATOM     10  C   UNL     1      32.149  -9.119 -20.351  0.00  0.00    -0.002 C 
ATOM     11  C   UNL     1      31.637  -7.441 -22.521  0.00  0.00    +0.071 C 
ATOM     12  C   UNL     1      32.233  -7.734 -20.198  0.00  0.00    -0.000 C 
ATOM     13  C   UNL     1      31.977  -6.896 -21.283  0.00  0.00    +0.004 C 
BRANCH  11  17
ATOM     14  F   UNL     1      30.639  -5.434 -23.356  0.00  0.00    -0.166 F 
ATOM     15  F   UNL     1      32.496  -6.068 -24.281  0.00  0.00    -0.166 F 
ATOM     16  F   UNL     1      30.660  -7.166 -24.671  0.00  0.00    -0.166 F 
ATOM     17  C   UNL     1      31.365  -6.545 -23.682  0.00  0.00    +0.419 C 
ENDBRANCH  11  17
ENDBRANCH   2   8
BRANCH   2  18
ATOM     18  O   UNL     1      30.342 -11.445 -22.072  0.00  0.00    -0.383 OA
ATOM     19  H   UNL     1      29.780 -10.770 -21.661  0.00  0.00    +0.211 HD
ENDBRANCH   2  18
BRANCH   1  20
ATOM     20  C   UNL     1      33.045 -15.319 -21.720  0.00  0.00    -0.077 C 
BRANCH  20  21
ATOM     21  C   UNL     1      34.469 -15.788 -22.023  0.00  0.00    -0.015 C 
BRANCH  21  22
ATOM     22  C   UNL     1      34.886 -16.979 -21.156  0.00  0.00    +0.067 C 
BRANCH  22  24
ATOM     23  O   UNL     1      34.557 -18.457 -23.037  0.00  0.00    -0.291 OA
ATOM     24  C   UNL     1      34.629 -18.327 -21.818  0.00  0.00    +0.173 C 
BRANCH  24  26
ATOM     25  F   UNL     1      34.078 -22.832 -18.566  0.00  0.00    -0.204 F 
ATOM     26  C   UNL     1      34.482 -19.530 -20.951  0.00  0.00    +0.035 C 
ATOM     27  C   UNL     1      35.618 -20.181 -20.524  0.00  0.00    +0.005 C 
ATOM     28  C   UNL     1      33.216 -19.946 -20.607  0.00  0.00    +0.005 C 
ATOM     29  C   UNL     1      35.481 -21.306 -19.711  0.00  0.00    +0.030 C 
ATOM     30  C   UNL     1      33.078 -21.072 -19.795  0.00  0.00    +0.030 C 
ATOM     31  C   UNL     1      34.211 -21.752 -19.346  0.00  0.00    +0.140 C 
ENDBRANCH  24  26
ENDBRANCH  22  24
ENDBRANCH  21  22
ENDBRANCH  20  21
ENDBRANCH   1  20
TORSDOF 8
ENDMDL
MODEL 8
REMARK VINA RESULT:     -11.1      2.323      3.042
REMARK  Name = 5567
REMARK  8 active torsions:
REMARK  status: ('A' for Active; 'I' for Inactive)
REMARK    1  A    between atoms: N_1  and  C_20
REMARK    2  A    between atoms: C_2  and  C_8
REMARK    3  A    between atoms: C_2  and  O_18
REMARK    4  A    between atoms: C_11  and  C_17
REMARK    5  A    between atoms: C_20  and  C_21
REMARK    6  A    between atoms: C_21  and  C_22
REMARK    7  A    between atoms: C_22  and  C_24
REMARK    8  A    between atoms: C_24  and  C_26
REMARK                            x       y       z     vdW  Elec       q    Type
REMARK                         _______ _______ _______ _____ _____    ______ ____
ROOT
ATOM      1  N   UNL     1      35.009 -20.203 -20.259  0.00  0.00    +0.387 N 
ATOM      2  C   UNL     1      33.965 -22.425 -18.586  0.00  0.00    +0.103 C 
ATOM      3  C   UNL     1      33.079 -21.314 -19.191  0.00  0.00    +0.008 C 
ATOM      4  C   UNL     1      35.418 -21.904 -18.499  0.00  0.00    +0.008 C 
ATOM      5  C   UNL     1      33.655 -20.722 -20.483  0.00  0.00    -0.075 C 
ATOM      6  C   UNL     1      35.912 -21.264 -19.803  0.00  0.00    -0.075 C 
ATOM      7  H   UNL     1      34.957 -19.496 -19.526  0.00  0.00    -0.080 HD
ENDROOT
BRANCH   2   8
ATOM      8  C   UNL     1      33.501 -22.952 -17.227  0.00  0.00    +0.002 C 
ATOM      9  C   UNL     1      34.439 -23.250 -16.240  0.00  0.00    +0.002 C 
ATOM     10  C   UNL     1      32.142 -23.132 -16.979  0.00  0.00    -0.002 C 
ATOM     11  C   UNL     1      34.016 -23.730 -15.000  0.00  0.00    +0.071 C 
ATOM     12  C   UNL     1      31.719 -23.611 -15.739  0.00  0.00    -0.000 C 
ATOM     13  C   UNL     1      32.656 -23.911 -14.750  0.00  0.00    +0.004 C 
BRANCH  11  17
ATOM     14  F   UNL     1      35.875 -23.021 -13.671  0.00  0.00    -0.166 F 
ATOM     15  F   UNL     1      34.459 -24.376 -12.740  0.00  0.00    -0.166 F 
ATOM     16  F   UNL     1      35.812 -25.109 -14.276  0.00  0.00    -0.166 F 
ATOM     17  C   UNL     1      35.018 -24.051 -13.943  0.00  0.00    +0.419 C 
ENDBRANCH  11  17
ENDBRANCH   2   8
BRANCH   2  18
ATOM     18  O   UNL     1      33.917 -23.555 -19.471  0.00  0.00    -0.383 OA
ATOM     19  H   UNL     1      34.781 -23.995 -19.481  0.00  0.00    +0.211 HD
ENDBRANCH   2  18
BRANCH   1  20
ATOM     20  C   UNL     1      35.526 -19.577 -21.476  0.00  0.00    -0.077 C 
BRANCH  20  21
ATOM     21  C   UNL     1      34.623 -18.415 -21.897  0.00  0.00    -0.015 C 
BRANCH  21  22
ATOM     22  C   UNL     1      35.411 -17.276 -22.552  0.00  0.00    +0.067 C 
BRANCH  22  24
ATOM     23  O   UNL     1      34.659 -15.334 -21.330  0.00  0.00    -0.291 OA
ATOM     24  C   UNL     1      34.739 -15.917 -22.409  0.00  0.00    +0.173 C 
BRANCH  24  26
ATOM     25  F   UNL     1      32.649 -13.478 -26.975  0.00  0.00    -0.204 F 
ATOM     26  C   UNL     1      34.180 -15.266 -23.627  0.00  0.00    +0.035 C 
ATOM     27  C   UNL     1      33.905 -13.917 -23.590  0.00  0.00    +0.005 C 
ATOM     28  C   UNL     1      33.960 -16.037 -24.746  0.00  0.00    +0.005 C 
ATOM     29  C   UNL     1      33.383 -13.308 -24.731  0.00  0.00    +0.030 C 
ATOM     30  C   UNL     1      33.437 -15.428 -25.887  0.00  0.00    +0.030 C 
ATOM     31  C   UNL     1      33.149 -14.063 -25.880  0.00  0.00    +0.140 C 
ENDBRANCH  24  26
ENDBRANCH  22  24
ENDBRANCH  21  22
ENDBRANCH  20  21
ENDBRANCH   1  20
TORSDOF 8
ENDMDL
MODEL 9
REMARK VINA RESULT:     -11.0      1.711      2.351
REMARK  Name = 5567
REMARK  8 active torsions:
REMARK  status: ('A' for Active; 'I' for Inactive)
REMARK    1  A    between atoms: N_1  and  C_20
REMARK    2  A    between atoms: C_2  and  C_8
REMARK    3  A    between atoms: C_2  and  O_18
REMARK    4  A    between atoms: C_11  and  C_17
REMARK    5  A    between atoms: C_20  and  C_21
REMARK    6  A    between atoms: C_21  and  C_22
REMARK    7  A    between atoms: C_22  and  C_24
REMARK    8  A    between atoms: C_24  and  C_26
REMARK                            x       y       z     vdW  Elec       q    Type
REMARK                         _______ _______ _______ _____ _____    ______ ____
ROOT
ATOM      1  N   UNL     1      35.545 -21.141 -19.129  0.00  0.00    +0.387 N 
ATOM      2  C   UNL     1      33.661 -22.880 -17.627  0.00  0.00    +0.103 C 
ATOM      3  C   UNL     1      33.220 -21.857 -18.698  0.00  0.00    +0.008 C 
ATOM      4  C   UNL     1      35.048 -22.461 -17.087  0.00  0.00    +0.008 C 
ATOM      5  C   UNL     1      34.298 -21.593 -19.756  0.00  0.00    -0.075 C 
ATOM      6  C   UNL     1      36.061 -22.148 -18.196  0.00  0.00    -0.075 C 
ATOM      7  H   UNL     1      35.340 -20.294 -18.598  0.00  0.00    -0.080 HD
ENDROOT
BRANCH   2   8
ATOM      8  C   UNL     1      32.673 -23.075 -16.476  0.00  0.00    +0.002 C 
ATOM      9  C   UNL     1      31.303 -22.982 -16.712  0.00  0.00    +0.002 C 
ATOM     10  C   UNL     1      33.146 -23.348 -15.194  0.00  0.00    -0.002 C 
ATOM     11  C   UNL     1      30.401 -23.162 -15.662  0.00  0.00    +0.071 C 
ATOM     12  C   UNL     1      32.244 -23.528 -14.144  0.00  0.00    -0.000 C 
ATOM     13  C   UNL     1      30.872 -23.434 -14.378  0.00  0.00    +0.004 C 
BRANCH  11  17
ATOM     14  F   UNL     1      28.209 -24.057 -15.324  0.00  0.00    -0.166 F 
ATOM     15  F   UNL     1      28.381 -21.899 -15.455  0.00  0.00    -0.166 F 
ATOM     16  F   UNL     1      28.623 -23.117 -17.240  0.00  0.00    -0.166 F 
ATOM     17  C   UNL     1      28.934 -23.060 -15.913  0.00  0.00    +0.419 C 
ENDBRANCH  11  17
ENDBRANCH   2   8
BRANCH   2  18
ATOM     18  O   UNL     1      33.765 -24.163 -18.263  0.00  0.00    -0.383 OA
ATOM     19  H   UNL     1      32.947 -24.664 -18.116  0.00  0.00    +0.211 HD
ENDBRANCH   2  18
BRANCH   1  20
ATOM     20  C   UNL     1      36.546 -20.824 -20.147  0.00  0.00    -0.077 C 
BRANCH  20  21
ATOM     21  C   UNL     1      36.533 -19.324 -20.452  0.00  0.00    -0.015 C 
BRANCH  21  22
ATOM     22  C   UNL     1      35.500 -18.959 -21.522  0.00  0.00    +0.067 C 
BRANCH  22  24
ATOM     23  O   UNL     1      35.272 -16.755 -20.564  0.00  0.00    -0.291 OA
ATOM     24  C   UNL     1      35.162 -17.474 -21.553  0.00  0.00    +0.173 C 
BRANCH  24  26
ATOM     25  F   UNL     1      33.434 -15.230 -26.365  0.00  0.00    -0.204 F 
ATOM     26  C   UNL     1      34.702 -16.875 -22.838  0.00  0.00    +0.035 C 
ATOM     27  C   UNL     1      34.936 -17.561 -24.009  0.00  0.00    +0.005 C 
ATOM     28  C   UNL     1      34.058 -15.659 -22.806  0.00  0.00    +0.005 C 
ATOM     29  C   UNL     1      34.504 -17.000 -25.212  0.00  0.00    +0.030 C 
ATOM     30  C   UNL     1      33.626 -15.098 -24.009  0.00  0.00    +0.030 C 
ATOM     31  C   UNL     1      33.849 -15.769 -25.211  0.00  0.00    +0.140 C 
ENDBRANCH  24  26
ENDBRANCH  22  24
ENDBRANCH  21  22
ENDBRANCH  20  21
ENDBRANCH   1  20
TORSDOF 8
ENDMDL
