MODEL 1
REMARK VINA RESULT:      -9.5      0.000      0.000
REMARK  Name = 23653531
REMARK  10 active torsions:
REMARK  status: ('A' for Active; 'I' for Inactive)
REMARK    1  A    between atoms: N_2  and  C_20
REMARK    2  A    between atoms: C_3  and  C_8
REMARK    3  A    between atoms: C_5  and  O_13
REMARK    4  A    between atoms: O_13  and  C_14
REMARK    5  A    between atoms: C_14  and  C_15
REMARK    6  A    between atoms: C_15  and  N_16
REMARK    7  A    between atoms: C_21  and  O_26
REMARK    8  A    between atoms: C_23  and  O_29
REMARK    9  A    between atoms: O_26  and  C_27
REMARK   10  A    between atoms: O_29  and  C_30
REMARK                            x       y       z     vdW  Elec       q    Type
REMARK                         _______ _______ _______ _____ _____    ______ ____
ROOT
ATOM      1  O   UNL     1      31.975 -15.445 -21.368  0.00  0.00    -0.270 OA
ATOM      2  N   UNL     1      34.021 -15.156 -22.478  0.00  0.00    -0.278 N 
ATOM      3  C   UNL     1      32.822 -14.713 -21.906  0.00  0.00    +0.250 C 
ATOM      4  H   UNL     1      34.593 -14.456 -22.869  0.00  0.00    +0.155 HD
ENDROOT
BRANCH   3   8
ATOM      5  C   UNL     1      32.079 -10.541 -22.149  0.00  0.00    +0.130 C 
ATOM      6  C   UNL     1      31.631 -11.266 -21.046  0.00  0.00    +0.012 C 
ATOM      7  C   UNL     1      32.770 -11.187 -23.174  0.00  0.00    +0.012 C 
ATOM      8  C   UNL     1      32.568 -13.284 -21.990  0.00  0.00    +0.053 C 
ATOM      9  C   UNL     1      31.876 -12.637 -20.965  0.00  0.00    +0.003 C 
ATOM     10  C   UNL     1      33.015 -12.559 -23.094  0.00  0.00    +0.003 C 
ATOM     11  C   UNL     1      30.889 -10.592 -19.939  0.00  0.00    +0.034 C 
ATOM     12  C   UNL     1      33.258 -10.428 -24.364  0.00  0.00    +0.034 C 
BRANCH   5  13
ATOM     13  O   UNL     1      31.840  -9.200 -22.227  0.00  0.00    -0.478 OA
BRANCH  13  14
ATOM     14  C   UNL     1      32.908  -8.331 -21.863  0.00  0.00    +0.182 C 
BRANCH  14  15
ATOM     15  C   UNL     1      32.367  -7.251 -20.940  0.00  0.00    -0.038 C 
BRANCH  15  16
ATOM     16  N   UNL     1      32.871  -7.430 -19.587  0.00  0.00    +0.383 N 
ATOM     17  H   UNL     1      32.091  -7.411 -18.929  0.00  0.00    -0.089 HD
ATOM     18  H   UNL     1      33.522  -6.677 -19.365  0.00  0.00    -0.089 HD
ATOM     19  H   UNL     1      33.352  -8.327 -19.519  0.00  0.00    -0.089 HD
ENDBRANCH  15  16
ENDBRANCH  14  15
ENDBRANCH  13  14
ENDBRANCH   5  13
ENDBRANCH   3   8
BRANCH   2  20
ATOM     20  C   UNL     1      34.520 -16.479 -22.567  0.00  0.00    +0.088 C 
ATOM     21  C   UNL     1      34.891 -16.997 -23.798  0.00  0.00    +0.152 C 
ATOM     22  C   UNL     1      34.624 -17.229 -21.407  0.00  0.00    +0.055 C 
ATOM     23  C   UNL     1      35.114 -18.533 -21.479  0.00  0.00    +0.140 C 
ATOM     24  C   UNL     1      35.381 -18.300 -23.869  0.00  0.00    +0.041 C 
ATOM     25  C   UNL     1      35.493 -19.069 -22.711  0.00  0.00    +0.040 C 
BRANCH  21  26
ATOM     26  O   UNL     1      34.789 -16.263 -24.942  0.00  0.00    -0.474 OA
BRANCH  26  27
ATOM     27  C   UNL     1      33.554 -16.334 -25.649  0.00  0.00    +0.206 C 
ATOM     28  C   UNL     1      33.122 -14.935 -26.033  0.00  0.00    +0.051 C 
ENDBRANCH  26  27
ENDBRANCH  21  26
BRANCH  23  29
ATOM     29  O   UNL     1      35.224 -19.283 -20.350  0.00  0.00    -0.475 OA
BRANCH  29  30
ATOM     30  C   UNL     1      34.576 -20.554 -20.348  0.00  0.00    +0.206 C 
ATOM     31  C   UNL     1      33.080 -20.346 -20.246  0.00  0.00    +0.051 C 
ENDBRANCH  29  30
ENDBRANCH  23  29
ENDBRANCH   2  20
TORSDOF 10
ENDMDL
MODEL 2
REMARK VINA RESULT:      -9.4      0.661      1.768
REMARK  Name = 23653531
REMARK  10 active torsions:
REMARK  status: ('A' for Active; 'I' for Inactive)
REMARK    1  A    between atoms: N_2  and  C_20
REMARK    2  A    between atoms: C_3  and  C_8
REMARK    3  A    between atoms: C_5  and  O_13
REMARK    4  A    between atoms: O_13  and  C_14
REMARK    5  A    between atoms: C_14  and  C_15
REMARK    6  A    between atoms: C_15  and  N_16
REMARK    7  A    between atoms: C_21  and  O_26
REMARK    8  A    between atoms: C_23  and  O_29
REMARK    9  A    between atoms: O_26  and  C_27
REMARK   10  A    between atoms: O_29  and  C_30
REMARK                            x       y       z     vdW  Elec       q    Type
REMARK                         _______ _______ _______ _____ _____    ______ ____
ROOT
ATOM      1  O   UNL     1      31.871 -15.260 -21.347  0.00  0.00    -0.270 OA
ATOM      2  N   UNL     1      33.952 -14.839 -22.344  0.00  0.00    -0.278 N 
ATOM      3  C   UNL     1      32.726 -14.468 -21.776  0.00  0.00    +0.250 C 
ATOM      4  H   UNL     1      34.528 -14.097 -22.641  0.00  0.00    +0.155 HD
ENDROOT
BRANCH   3   8
ATOM      5  C   UNL     1      31.938 -10.300 -21.630  0.00  0.00    +0.130 C 
ATOM      6  C   UNL     1      32.449 -10.873 -22.794  0.00  0.00    +0.012 C 
ATOM      7  C   UNL     1      31.685 -11.097 -20.514  0.00  0.00    +0.012 C 
ATOM      8  C   UNL     1      32.456 -13.040 -21.725  0.00  0.00    +0.053 C 
ATOM      9  C   UNL     1      32.708 -12.243 -22.842  0.00  0.00    +0.003 C 
ATOM     10  C   UNL     1      31.944 -12.468 -20.562  0.00  0.00    +0.003 C 
ATOM     11  C   UNL     1      32.727 -10.036 -24.000  0.00  0.00    +0.034 C 
ATOM     12  C   UNL     1      31.137 -10.503 -19.258  0.00  0.00    +0.034 C 
BRANCH   5  13
ATOM     13  O   UNL     1      31.684  -8.961 -21.584  0.00  0.00    -0.478 OA
BRANCH  13  14
ATOM     14  C   UNL     1      32.776  -8.107 -21.253  0.00  0.00    +0.182 C 
BRANCH  14  15
ATOM     15  C   UNL     1      32.288  -7.040 -20.287  0.00  0.00    -0.038 C 
BRANCH  15  16
ATOM     16  N   UNL     1      31.937  -5.821 -21.001  0.00  0.00    +0.383 N 
ATOM     17  H   UNL     1      31.233  -5.307 -20.470  0.00  0.00    -0.089 HD
ATOM     18  H   UNL     1      31.562  -6.062 -21.918  0.00  0.00    -0.089 HD
ATOM     19  H   UNL     1      32.768  -5.242 -21.114  0.00  0.00    -0.089 HD
ENDBRANCH  15  16
ENDBRANCH  14  15
ENDBRANCH  13  14
ENDBRANCH   5  13
ENDBRANCH   3   8
BRANCH   2  20
ATOM     20  C   UNL     1      34.473 -16.141 -22.547  0.00  0.00    +0.088 C 
ATOM     21  C   UNL     1      34.808 -16.560 -23.824  0.00  0.00    +0.152 C 
ATOM     22  C   UNL     1      34.634 -16.970 -21.449  0.00  0.00    +0.055 C 
ATOM     23  C   UNL     1      35.145 -18.255 -21.634  0.00  0.00    +0.140 C 
ATOM     24  C   UNL     1      35.319 -17.844 -24.008  0.00  0.00    +0.041 C 
ATOM     25  C   UNL     1      35.488 -18.692 -22.913  0.00  0.00    +0.040 C 
BRANCH  21  26
ATOM     26  O   UNL     1      34.649 -15.748 -24.908  0.00  0.00    -0.474 OA
BRANCH  26  27
ATOM     27  C   UNL     1      33.444 -15.892 -25.654  0.00  0.00    +0.206 C 
ATOM     28  C   UNL     1      32.884 -14.518 -25.957  0.00  0.00    +0.051 C 
ENDBRANCH  26  27
ENDBRANCH  21  26
BRANCH  23  29
ATOM     29  O   UNL     1      35.311 -19.081 -20.566  0.00  0.00    -0.475 OA
BRANCH  29  30
ATOM     30  C   UNL     1      34.670 -20.355 -20.625  0.00  0.00    +0.206 C 
ATOM     31  C   UNL     1      33.172 -20.160 -20.516  0.00  0.00    +0.051 C 
ENDBRANCH  29  30
ENDBRANCH  23  29
ENDBRANCH   2  20
TORSDOF 10
ENDMDL
MODEL 3
REMARK VINA RESULT:      -9.1      5.570     10.295
REMARK  Name = 23653531
REMARK  10 active torsions:
REMARK  status: ('A' for Active; 'I' for Inactive)
REMARK    1  A    between atoms: N_2  and  C_20
REMARK    2  A    between atoms: C_3  and  C_8
REMARK    3  A    between atoms: C_5  and  O_13
REMARK    4  A    between atoms: O_13  and  C_14
REMARK    5  A    between atoms: C_14  and  C_15
REMARK    6  A    between atoms: C_15  and  N_16
REMARK    7  A    between atoms: C_21  and  O_26
REMARK    8  A    between atoms: C_23  and  O_29
REMARK    9  A    between atoms: O_26  and  C_27
REMARK   10  A    between atoms: O_29  and  C_30
REMARK                            x       y       z     vdW  Elec       q    Type
REMARK                         _______ _______ _______ _____ _____    ______ ____
ROOT
ATOM      1  O   UNL     1      33.714 -24.143 -18.330  0.00  0.00    -0.270 OA
ATOM      2  N   UNL     1      32.751 -22.517 -16.940  0.00  0.00    -0.278 N 
ATOM      3  C   UNL     1      33.437 -22.959 -18.079  0.00  0.00    +0.250 C 
ATOM      4  H   UNL     1      32.605 -21.545 -16.878  0.00  0.00    +0.155 HD
ENDROOT
BRANCH   3   8
ATOM      5  C   UNL     1      34.690 -19.933 -20.779  0.00  0.00    +0.130 C 
ATOM      6  C   UNL     1      35.636 -20.736 -20.143  0.00  0.00    +0.012 C 
ATOM      7  C   UNL     1      33.331 -20.125 -20.528  0.00  0.00    +0.012 C 
ATOM      8  C   UNL     1      33.865 -21.922 -19.004  0.00  0.00    +0.053 C 
ATOM      9  C   UNL     1      35.224 -21.730 -19.256  0.00  0.00    +0.003 C 
ATOM     10  C   UNL     1      32.919 -21.120 -19.641  0.00  0.00    +0.003 C 
ATOM     11  C   UNL     1      37.095 -20.545 -20.398  0.00  0.00    +0.034 C 
ATOM     12  C   UNL     1      32.302 -19.276 -21.200  0.00  0.00    +0.034 C 
BRANCH   5  13
ATOM     13  O   UNL     1      35.093 -18.961 -21.647  0.00  0.00    -0.478 OA
BRANCH  13  14
ATOM     14  C   UNL     1      35.286 -17.655 -21.111  0.00  0.00    +0.182 C 
BRANCH  14  15
ATOM     15  C   UNL     1      34.934 -16.631 -22.177  0.00  0.00    -0.038 C 
BRANCH  15  16
ATOM     16  N   UNL     1      35.612 -16.936 -23.428  0.00  0.00    +0.383 N 
ATOM     17  H   UNL     1      35.246 -17.809 -23.809  0.00  0.00    -0.089 HD
ATOM     18  H   UNL     1      36.613 -17.034 -23.256  0.00  0.00    -0.089 HD
ATOM     19  H   UNL     1      35.454 -16.181 -24.094  0.00  0.00    -0.089 HD
ENDBRANCH  15  16
ENDBRANCH  14  15
ENDBRANCH  13  14
ENDBRANCH   5  13
ENDBRANCH   3   8
BRANCH   2  20
ATOM     20  C   UNL     1      32.240 -23.285 -15.865  0.00  0.00    +0.088 C 
ATOM     21  C   UNL     1      30.904 -23.651 -15.850  0.00  0.00    +0.152 C 
ATOM     22  C   UNL     1      33.101 -23.654 -14.844  0.00  0.00    +0.055 C 
ATOM     23  C   UNL     1      32.612 -24.411 -13.779  0.00  0.00    +0.140 C 
ATOM     24  C   UNL     1      30.415 -24.407 -14.785  0.00  0.00    +0.041 C 
ATOM     25  C   UNL     1      31.269 -24.787 -13.749  0.00  0.00    +0.040 C 
BRANCH  21  26
ATOM     26  O   UNL     1      30.053 -23.289 -16.851  0.00  0.00    -0.474 OA
BRANCH  26  27
ATOM     27  C   UNL     1      28.693 -23.698 -16.726  0.00  0.00    +0.206 C 
ATOM     28  C   UNL     1      27.811 -22.469 -16.672  0.00  0.00    +0.051 C 
ENDBRANCH  26  27
ENDBRANCH  21  26
BRANCH  23  29
ATOM     29  O   UNL     1      33.444 -24.782 -12.769  0.00  0.00    -0.475 OA
BRANCH  29  30
ATOM     30  C   UNL     1      34.770 -24.253 -12.792  0.00  0.00    +0.206 C 
ATOM     31  C   UNL     1      35.504 -24.708 -11.548  0.00  0.00    +0.051 C 
ENDBRANCH  29  30
ENDBRANCH  23  29
ENDBRANCH   2  20
TORSDOF 10
ENDMDL
MODEL 4
REMARK VINA RESULT:      -9.1      6.103     10.401
REMARK  Name = 23653531
REMARK  10 active torsions:
REMARK  status: ('A' for Active; 'I' for Inactive)
REMARK    1  A    between atoms: N_2  and  C_20
REMARK    2  A    between atoms: C_3  and  C_8
REMARK    3  A    between atoms: C_5  and  O_13
REMARK    4  A    between atoms: O_13  and  C_14
REMARK    5  A    between atoms: C_14  and  C_15
REMARK    6  A    between atoms: C_15  and  N_16
REMARK    7  A    between atoms: C_21  and  O_26
REMARK    8  A    between atoms: C_23  and  O_29
REMARK    9  A    between atoms: O_26  and  C_27
REMARK   10  A    between atoms: O_29  and  C_30
REMARK                            x       y       z     vdW  Elec       q    Type
REMARK                         _______ _______ _______ _____ _____    ______ ____
ROOT
ATOM      1  O   UNL     1      33.923 -23.816 -18.089  0.00  0.00    -0.270 OA
ATOM      2  N   UNL     1      35.350 -22.560 -16.715  0.00  0.00    -0.278 N 
ATOM      3  C   UNL     1      34.602 -22.799 -17.876  0.00  0.00    +0.250 C 
ATOM      4  H   UNL     1      35.840 -21.706 -16.689  0.00  0.00    +0.155 HD
ENDROOT
BRANCH   3   8
ATOM      5  C   UNL     1      34.799 -19.789 -20.861  0.00  0.00    +0.130 C 
ATOM      6  C   UNL     1      33.562 -20.285 -20.451  0.00  0.00    +0.012 C 
ATOM      7  C   UNL     1      35.972 -20.282 -20.291  0.00  0.00    +0.012 C 
ATOM      8  C   UNL     1      34.670 -21.768 -18.898  0.00  0.00    +0.053 C 
ATOM      9  C   UNL     1      33.497 -21.274 -19.470  0.00  0.00    +0.003 C 
ATOM     10  C   UNL     1      35.907 -21.272 -19.308  0.00  0.00    +0.003 C 
ATOM     11  C   UNL     1      32.295 -19.770 -21.051  0.00  0.00    +0.034 C 
ATOM     12  C   UNL     1      37.306 -19.764 -20.716  0.00  0.00    +0.034 C 
BRANCH   5  13
ATOM     13  O   UNL     1      34.862 -18.821 -21.821  0.00  0.00    -0.478 OA
BRANCH  13  14
ATOM     14  C   UNL     1      34.894 -19.257 -23.177  0.00  0.00    +0.182 C 
BRANCH  14  15
ATOM     15  C   UNL     1      34.886 -18.036 -24.083  0.00  0.00    -0.038 C 
BRANCH  15  16
ATOM     16  N   UNL     1      35.641 -16.946 -23.484  0.00  0.00    +0.383 N 
ATOM     17  H   UNL     1      35.479 -16.934 -22.477  0.00  0.00    -0.089 HD
ATOM     18  H   UNL     1      35.337 -16.060 -23.889  0.00  0.00    -0.089 HD
ATOM     19  H   UNL     1      36.635 -17.079 -23.668  0.00  0.00    -0.089 HD
ENDBRANCH  15  16
ENDBRANCH  14  15
ENDBRANCH  13  14
ENDBRANCH   5  13
ENDBRANCH   3   8
BRANCH   2  20
ATOM     20  C   UNL     1      35.494 -23.386 -15.573  0.00  0.00    +0.088 C 
ATOM     21  C   UNL     1      34.440 -23.531 -14.686  0.00  0.00    +0.152 C 
ATOM     22  C   UNL     1      36.702 -24.035 -15.371  0.00  0.00    +0.055 C 
ATOM     23  C   UNL     1      36.859 -24.852 -14.251  0.00  0.00    +0.140 C 
ATOM     24  C   UNL     1      34.597 -24.347 -13.567  0.00  0.00    +0.041 C 
ATOM     25  C   UNL     1      35.806 -25.008 -13.349  0.00  0.00    +0.040 C 
BRANCH  21  26
ATOM     26  O   UNL     1      33.251 -22.894 -14.881  0.00  0.00    -0.474 OA
BRANCH  26  27
ATOM     27  C   UNL     1      32.082 -23.707 -14.939  0.00  0.00    +0.206 C 
ATOM     28  C   UNL     1      31.177 -23.194 -16.038  0.00  0.00    +0.051 C 
ENDBRANCH  26  27
ENDBRANCH  21  26
BRANCH  23  29
ATOM     29  O   UNL     1      38.038 -25.496 -14.038  0.00  0.00    -0.475 OA
BRANCH  29  30
ATOM     30  C   UNL     1      39.152 -25.090 -14.831  0.00  0.00    +0.206 C 
ATOM     31  C   UNL     1      40.393 -25.810 -14.345  0.00  0.00    +0.051 C 
ENDBRANCH  29  30
ENDBRANCH  23  29
ENDBRANCH   2  20
TORSDOF 10
ENDMDL
MODEL 5
REMARK VINA RESULT:      -9.1      5.564     10.320
REMARK  Name = 23653531
REMARK  10 active torsions:
REMARK  status: ('A' for Active; 'I' for Inactive)
REMARK    1  A    between atoms: N_2  and  C_20
REMARK    2  A    between atoms: C_3  and  C_8
REMARK    3  A    between atoms: C_5  and  O_13
REMARK    4  A    between atoms: O_13  and  C_14
REMARK    5  A    between atoms: C_14  and  C_15
REMARK    6  A    between atoms: C_15  and  N_16
REMARK    7  A    between atoms: C_21  and  O_26
REMARK    8  A    between atoms: C_23  and  O_29
REMARK    9  A    between atoms: O_26  and  C_27
REMARK   10  A    between atoms: O_29  and  C_30
REMARK                            x       y       z     vdW  Elec       q    Type
REMARK                         _______ _______ _______ _____ _____    ______ ____
ROOT
ATOM      1  O   UNL     1      33.916 -23.839 -18.110  0.00  0.00    -0.270 OA
ATOM      2  N   UNL     1      35.288 -22.564 -16.697  0.00  0.00    -0.278 N 
ATOM      3  C   UNL     1      34.576 -22.813 -17.878  0.00  0.00    +0.250 C 
ATOM      4  H   UNL     1      35.765 -21.703 -16.658  0.00  0.00    +0.155 HD
ENDROOT
BRANCH   3   8
ATOM      5  C   UNL     1      34.820 -19.801 -20.858  0.00  0.00    +0.130 C 
ATOM      6  C   UNL     1      35.982 -20.292 -20.266  0.00  0.00    +0.012 C 
ATOM      7  C   UNL     1      33.576 -20.299 -20.470  0.00  0.00    +0.012 C 
ATOM      8  C   UNL     1      34.658 -21.781 -18.899  0.00  0.00    +0.053 C 
ATOM      9  C   UNL     1      35.902 -21.282 -19.287  0.00  0.00    +0.003 C 
ATOM     10  C   UNL     1      33.496 -21.289 -19.491  0.00  0.00    +0.003 C 
ATOM     11  C   UNL     1      37.324 -19.771 -20.668  0.00  0.00    +0.034 C 
ATOM     12  C   UNL     1      32.319 -19.785 -21.092  0.00  0.00    +0.034 C 
BRANCH   5  13
ATOM     13  O   UNL     1      34.898 -18.833 -21.816  0.00  0.00    -0.478 OA
BRANCH  13  14
ATOM     14  C   UNL     1      34.938 -17.481 -21.368  0.00  0.00    +0.182 C 
BRANCH  14  15
ATOM     15  C   UNL     1      34.770 -16.562 -22.567  0.00  0.00    -0.038 C 
BRANCH  15  16
ATOM     16  N   UNL     1      35.694 -16.930 -23.630  0.00  0.00    +0.383 N 
ATOM     17  H   UNL     1      35.280 -17.668 -24.200  0.00  0.00    -0.089 HD
ATOM     18  H   UNL     1      36.566 -17.265 -23.220  0.00  0.00    -0.089 HD
ATOM     19  H   UNL     1      35.883 -16.115 -24.213  0.00  0.00    -0.089 HD
ENDBRANCH  15  16
ENDBRANCH  14  15
ENDBRANCH  13  14
ENDBRANCH   5  13
ENDBRANCH   3   8
BRANCH   2  20
ATOM     20  C   UNL     1      35.411 -23.387 -15.551  0.00  0.00    +0.088 C 
ATOM     21  C   UNL     1      34.338 -23.537 -14.688  0.00  0.00    +0.152 C 
ATOM     22  C   UNL     1      36.618 -24.028 -15.321  0.00  0.00    +0.055 C 
ATOM     23  C   UNL     1      36.754 -24.842 -14.196  0.00  0.00    +0.140 C 
ATOM     24  C   UNL     1      34.475 -24.351 -13.564  0.00  0.00    +0.041 C 
ATOM     25  C   UNL     1      35.683 -25.004 -13.318  0.00  0.00    +0.040 C 
BRANCH  21  26
ATOM     26  O   UNL     1      33.149 -22.908 -14.910  0.00  0.00    -0.474 OA
BRANCH  26  27
ATOM     27  C   UNL     1      32.005 -23.735 -15.108  0.00  0.00    +0.206 C 
ATOM     28  C   UNL     1      31.121 -23.110 -16.165  0.00  0.00    +0.051 C 
ENDBRANCH  26  27
ENDBRANCH  21  26
BRANCH  23  29
ATOM     29  O   UNL     1      37.932 -25.479 -13.956  0.00  0.00    -0.475 OA
BRANCH  29  30
ATOM     30  C   UNL     1      39.058 -25.077 -14.734  0.00  0.00    +0.206 C 
ATOM     31  C   UNL     1      40.293 -25.785 -14.218  0.00  0.00    +0.051 C 
ENDBRANCH  29  30
ENDBRANCH  23  29
ENDBRANCH   2  20
TORSDOF 10
ENDMDL
MODEL 6
REMARK VINA RESULT:      -8.9      2.801      9.531
REMARK  Name = 23653531
REMARK  10 active torsions:
REMARK  status: ('A' for Active; 'I' for Inactive)
REMARK    1  A    between atoms: N_2  and  C_20
REMARK    2  A    between atoms: C_3  and  C_8
REMARK    3  A    between atoms: C_5  and  O_13
REMARK    4  A    between atoms: O_13  and  C_14
REMARK    5  A    between atoms: C_14  and  C_15
REMARK    6  A    between atoms: C_15  and  N_16
REMARK    7  A    between atoms: C_21  and  O_26
REMARK    8  A    between atoms: C_23  and  O_29
REMARK    9  A    between atoms: O_26  and  C_27
REMARK   10  A    between atoms: O_29  and  C_30
REMARK                            x       y       z     vdW  Elec       q    Type
REMARK                         _______ _______ _______ _____ _____    ______ ____
ROOT
ATOM      1  O   UNL     1      34.444  -9.511 -23.874  0.00  0.00    -0.270 OA
ATOM      2  N   UNL     1      32.207  -9.665 -23.186  0.00  0.00    -0.278 N 
ATOM      3  C   UNL     1      33.402 -10.168 -23.716  0.00  0.00    +0.250 C 
ATOM      4  H   UNL     1      31.463 -10.307 -23.122  0.00  0.00    +0.155 HD
ENDROOT
BRANCH   3   8
ATOM      5  C   UNL     1      33.332 -14.240 -24.909  0.00  0.00    +0.130 C 
ATOM      6  C   UNL     1      33.265 -13.908 -23.557  0.00  0.00    +0.012 C 
ATOM      7  C   UNL     1      33.422 -13.234 -25.871  0.00  0.00    +0.012 C 
ATOM      8  C   UNL     1      33.378 -11.563 -24.126  0.00  0.00    +0.053 C 
ATOM      9  C   UNL     1      33.287 -12.570 -23.165  0.00  0.00    +0.003 C 
ATOM     10  C   UNL     1      33.445 -11.894 -25.478  0.00  0.00    +0.003 C 
ATOM     11  C   UNL     1      33.168 -14.972 -22.513  0.00  0.00    +0.034 C 
ATOM     12  C   UNL     1      33.494 -13.568 -27.324  0.00  0.00    +0.034 C 
BRANCH   5  13
ATOM     13  O   UNL     1      33.309 -15.549 -25.293  0.00  0.00    -0.478 OA
BRANCH  13  14
ATOM     14  C   UNL     1      34.563 -16.218 -25.383  0.00  0.00    +0.182 C 
BRANCH  14  15
ATOM     15  C   UNL     1      34.408 -17.626 -24.830  0.00  0.00    -0.038 C 
BRANCH  15  16
ATOM     16  N   UNL     1      35.485 -17.936 -23.901  0.00  0.00    +0.383 N 
ATOM     17  H   UNL     1      35.619 -17.151 -23.263  0.00  0.00    -0.089 HD
ATOM     18  H   UNL     1      36.345 -18.101 -24.424  0.00  0.00    -0.089 HD
ATOM     19  H   UNL     1      35.245 -18.771 -23.369  0.00  0.00    -0.089 HD
ENDBRANCH  15  16
ENDBRANCH  14  15
ENDBRANCH  13  14
ENDBRANCH   5  13
ENDBRANCH   3   8
BRANCH   2  20
ATOM     20  C   UNL     1      31.927  -8.353 -22.730  0.00  0.00    +0.088 C 
ATOM     21  C   UNL     1      32.157  -8.017 -21.406  0.00  0.00    +0.152 C 
ATOM     22  C   UNL     1      31.423  -7.430 -23.633  0.00  0.00    +0.055 C 
ATOM     23  C   UNL     1      31.143  -6.134 -23.198  0.00  0.00    +0.140 C 
ATOM     24  C   UNL     1      31.877  -6.721 -20.972  0.00  0.00    +0.041 C 
ATOM     25  C   UNL     1      31.370  -5.780 -21.868  0.00  0.00    +0.040 C 
BRANCH  21  26
ATOM     26  O   UNL     1      32.652  -8.922 -20.515  0.00  0.00    -0.474 OA
BRANCH  26  27
ATOM     27  C   UNL     1      31.738  -9.458 -19.562  0.00  0.00    +0.206 C 
ATOM     28  C   UNL     1      31.552 -10.936 -19.833  0.00  0.00    +0.051 C 
ENDBRANCH  26  27
ENDBRANCH  21  26
BRANCH  23  29
ATOM     29  O   UNL     1      30.648  -5.215 -24.071  0.00  0.00    -0.475 OA
BRANCH  29  30
ATOM     30  C   UNL     1      31.496  -4.119 -24.410  0.00  0.00    +0.206 C 
ATOM     31  C   UNL     1      32.266  -4.460 -25.669  0.00  0.00    +0.051 C 
ENDBRANCH  29  30
ENDBRANCH  23  29
ENDBRANCH   2  20
TORSDOF 10
ENDMDL
MODEL 7
REMARK VINA RESULT:      -8.7      5.421     10.403
REMARK  Name = 23653531
REMARK  10 active torsions:
REMARK  status: ('A' for Active; 'I' for Inactive)
REMARK    1  A    between atoms: N_2  and  C_20
REMARK    2  A    between atoms: C_3  and  C_8
REMARK    3  A    between atoms: C_5  and  O_13
REMARK    4  A    between atoms: O_13  and  C_14
REMARK    5  A    between atoms: C_14  and  C_15
REMARK    6  A    between atoms: C_15  and  N_16
REMARK    7  A    between atoms: C_21  and  O_26
REMARK    8  A    between atoms: C_23  and  O_29
REMARK    9  A    between atoms: O_26  and  C_27
REMARK   10  A    between atoms: O_29  and  C_30
REMARK                            x       y       z     vdW  Elec       q    Type
REMARK                         _______ _______ _______ _____ _____    ______ ____
ROOT
ATOM      1  O   UNL     1      33.700 -24.224 -18.430  0.00  0.00    -0.270 OA
ATOM      2  N   UNL     1      32.762 -22.604 -17.018  0.00  0.00    -0.278 N 
ATOM      3  C   UNL     1      33.464 -23.038 -18.149  0.00  0.00    +0.250 C 
ATOM      4  H   UNL     1      32.653 -21.629 -16.928  0.00  0.00    +0.155 HD
ENDROOT
BRANCH   3   8
ATOM      5  C   UNL     1      34.921 -19.983 -20.710  0.00  0.00    +0.130 C 
ATOM      6  C   UNL     1      33.548 -20.165 -20.553  0.00  0.00    +0.012 C 
ATOM      7  C   UNL     1      35.816 -20.804 -20.026  0.00  0.00    +0.012 C 
ATOM      8  C   UNL     1      33.964 -21.991 -19.026  0.00  0.00    +0.053 C 
ATOM      9  C   UNL     1      33.069 -21.169 -19.711  0.00  0.00    +0.003 C 
ATOM     10  C   UNL     1      35.337 -21.809 -19.183  0.00  0.00    +0.003 C 
ATOM     11  C   UNL     1      32.573 -19.295 -21.277  0.00  0.00    +0.034 C 
ATOM     12  C   UNL     1      37.291 -20.625 -20.181  0.00  0.00    +0.034 C 
BRANCH   5  13
ATOM     13  O   UNL     1      35.389 -19.000 -21.533  0.00  0.00    -0.478 OA
BRANCH  13  14
ATOM     14  C   UNL     1      35.364 -17.668 -21.029  0.00  0.00    +0.182 C 
BRANCH  14  15
ATOM     15  C   UNL     1      35.123 -16.711 -22.185  0.00  0.00    -0.038 C 
BRANCH  15  16
ATOM     16  N   UNL     1      33.901 -15.948 -21.975  0.00  0.00    +0.383 N 
ATOM     17  H   UNL     1      33.658 -15.453 -22.833  0.00  0.00    -0.089 HD
ATOM     18  H   UNL     1      34.048 -15.275 -21.223  0.00  0.00    -0.089 HD
ATOM     19  H   UNL     1      33.144 -16.582 -21.721  0.00  0.00    -0.089 HD
ENDBRANCH  15  16
ENDBRANCH  14  15
ENDBRANCH  13  14
ENDBRANCH   5  13
ENDBRANCH   3   8
BRANCH   2  20
ATOM     20  C   UNL     1      32.185 -23.384 -15.985  0.00  0.00    +0.088 C 
ATOM     21  C   UNL     1      32.979 -23.864 -14.955  0.00  0.00    +0.152 C 
ATOM     22  C   UNL     1      30.826 -23.648 -16.033  0.00  0.00    +0.055 C 
ATOM     23  C   UNL     1      30.244 -24.415 -15.022  0.00  0.00    +0.140 C 
ATOM     24  C   UNL     1      32.397 -24.630 -13.946  0.00  0.00    +0.041 C 
ATOM     25  C   UNL     1      31.030 -24.905 -13.978  0.00  0.00    +0.040 C 
BRANCH  21  26
ATOM     26  O   UNL     1      34.316 -23.607 -14.905  0.00  0.00    -0.474 OA
BRANCH  26  27
ATOM     27  C   UNL     1      35.196 -24.697 -15.166  0.00  0.00    +0.206 C 
ATOM     28  C   UNL     1      36.161 -24.842 -14.009  0.00  0.00    +0.051 C 
ENDBRANCH  26  27
ENDBRANCH  21  26
BRANCH  23  29
ATOM     29  O   UNL     1      28.911 -24.683 -15.054  0.00  0.00    -0.475 OA
BRANCH  29  30
ATOM     30  C   UNL     1      28.166 -24.145 -16.145  0.00  0.00    +0.206 C 
ATOM     31  C   UNL     1      27.667 -22.765 -15.769  0.00  0.00    +0.051 C 
ENDBRANCH  29  30
ENDBRANCH  23  29
ENDBRANCH   2  20
TORSDOF 10
ENDMDL
MODEL 8
REMARK VINA RESULT:      -8.6      2.287      8.776
REMARK  Name = 23653531
REMARK  10 active torsions:
REMARK  status: ('A' for Active; 'I' for Inactive)
REMARK    1  A    between atoms: N_2  and  C_20
REMARK    2  A    between atoms: C_3  and  C_8
REMARK    3  A    between atoms: C_5  and  O_13
REMARK    4  A    between atoms: O_13  and  C_14
REMARK    5  A    between atoms: C_14  and  C_15
REMARK    6  A    between atoms: C_15  and  N_16
REMARK    7  A    between atoms: C_21  and  O_26
REMARK    8  A    between atoms: C_23  and  O_29
REMARK    9  A    between atoms: O_26  and  C_27
REMARK   10  A    between atoms: O_29  and  C_30
REMARK                            x       y       z     vdW  Elec       q    Type
REMARK                         _______ _______ _______ _____ _____    ______ ____
ROOT
ATOM      1  O   UNL     1      33.375 -13.224 -25.349  0.00  0.00    -0.270 OA
ATOM      2  N   UNL     1      33.562 -12.420 -23.153  0.00  0.00    -0.278 N 
ATOM      3  C   UNL     1      33.632 -13.404 -24.147  0.00  0.00    +0.250 C 
ATOM      4  H   UNL     1      33.796 -12.713 -22.243  0.00  0.00    +0.155 HD
ENDROOT
BRANCH   3   8
ATOM      5  C   UNL     1      34.748 -17.283 -22.835  0.00  0.00    +0.130 C 
ATOM      6  C   UNL     1      34.671 -16.233 -21.921  0.00  0.00    +0.012 C 
ATOM      7  C   UNL     1      34.459 -17.059 -24.181  0.00  0.00    +0.012 C 
ATOM      8  C   UNL     1      34.014 -14.733 -23.699  0.00  0.00    +0.053 C 
ATOM      9  C   UNL     1      34.304 -14.958 -22.352  0.00  0.00    +0.003 C 
ATOM     10  C   UNL     1      34.092 -15.784 -24.612  0.00  0.00    +0.003 C 
ATOM     11  C   UNL     1      34.978 -16.453 -20.476  0.00  0.00    +0.034 C 
ATOM     12  C   UNL     1      34.536 -18.171 -25.175  0.00  0.00    +0.034 C 
BRANCH   5  13
ATOM     13  O   UNL     1      35.107 -18.530 -22.413  0.00  0.00    -0.478 OA
BRANCH  13  14
ATOM     14  C   UNL     1      34.077 -19.347 -21.863  0.00  0.00    +0.182 C 
BRANCH  14  15
ATOM     15  C   UNL     1      34.646 -20.125 -20.687  0.00  0.00    -0.038 C 
BRANCH  15  16
ATOM     16  N   UNL     1      36.029 -19.746 -20.440  0.00  0.00    +0.383 N 
ATOM     17  H   UNL     1      36.074 -18.751 -20.217  0.00  0.00    -0.089 HD
ATOM     18  H   UNL     1      36.586 -19.934 -21.274  0.00  0.00    -0.089 HD
ATOM     19  H   UNL     1      36.395 -20.288 -19.657  0.00  0.00    -0.089 HD
ENDBRANCH  15  16
ENDBRANCH  14  15
ENDBRANCH  13  14
ENDBRANCH   5  13
ENDBRANCH   3   8
BRANCH   2  20
ATOM     20  C   UNL     1      33.198 -11.057 -23.286  0.00  0.00    +0.088 C 
ATOM     21  C   UNL     1      31.975 -10.616 -22.806  0.00  0.00    +0.152 C 
ATOM     22  C   UNL     1      34.087 -10.190 -23.901  0.00  0.00    +0.055 C 
ATOM     23  C   UNL     1      33.743  -8.844 -24.039  0.00  0.00    +0.140 C 
ATOM     24  C   UNL     1      31.632  -9.272 -22.944  0.00  0.00    +0.041 C 
ATOM     25  C   UNL     1      32.516  -8.386 -23.560  0.00  0.00    +0.040 C 
BRANCH  21  26
ATOM     26  O   UNL     1      31.098 -11.466 -22.202  0.00  0.00    -0.474 OA
BRANCH  26  27
ATOM     27  C   UNL     1      30.660 -11.120 -20.890  0.00  0.00    +0.206 C 
ATOM     28  C   UNL     1      31.667 -11.631 -19.882  0.00  0.00    +0.051 C 
ENDBRANCH  26  27
ENDBRANCH  21  26
BRANCH  23  29
ATOM     29  O   UNL     1      34.605  -7.980 -24.639  0.00  0.00    -0.475 OA
BRANCH  29  30
ATOM     30  C   UNL     1      34.317  -6.587 -24.518  0.00  0.00    +0.206 C 
ATOM     31  C   UNL     1      34.410  -5.943 -25.886  0.00  0.00    +0.051 C 
ENDBRANCH  29  30
ENDBRANCH  23  29
ENDBRANCH   2  20
TORSDOF 10
ENDMDL
MODEL 9
REMARK VINA RESULT:      -8.6      2.329      9.299
REMARK  Name = 23653531
REMARK  10 active torsions:
REMARK  status: ('A' for Active; 'I' for Inactive)
REMARK    1  A    between atoms: N_2  and  C_20
REMARK    2  A    between atoms: C_3  and  C_8
REMARK    3  A    between atoms: C_5  and  O_13
REMARK    4  A    between atoms: O_13  and  C_14
REMARK    5  A    between atoms: C_14  and  C_15
REMARK    6  A    between atoms: C_15  and  N_16
REMARK    7  A    between atoms: C_21  and  O_26
REMARK    8  A    between atoms: C_23  and  O_29
REMARK    9  A    between atoms: O_26  and  C_27
REMARK   10  A    between atoms: O_29  and  C_30
REMARK                            x       y       z     vdW  Elec       q    Type
REMARK                         _______ _______ _______ _____ _____    ______ ____
ROOT
ATOM      1  O   UNL     1      30.422 -11.188 -22.009  0.00  0.00    -0.270 OA
ATOM      2  N   UNL     1      32.501 -10.226 -22.513  0.00  0.00    -0.278 N 
ATOM      3  C   UNL     1      31.622 -11.298 -22.310  0.00  0.00    +0.250 C 
ATOM      4  H   UNL     1      33.426 -10.469 -22.746  0.00  0.00    +0.155 HD
ENDROOT
BRANCH   3   8
ATOM      5  C   UNL     1      33.304 -15.174 -22.701  0.00  0.00    +0.130 C 
ATOM      6  C   UNL     1      33.130 -14.373 -23.828  0.00  0.00    +0.012 C 
ATOM      7  C   UNL     1      32.926 -14.702 -21.444  0.00  0.00    +0.012 C 
ATOM      8  C   UNL     1      32.198 -12.626 -22.443  0.00  0.00    +0.053 C 
ATOM      9  C   UNL     1      32.577 -13.099 -23.700  0.00  0.00    +0.003 C 
ATOM     10  C   UNL     1      32.373 -13.427 -21.315  0.00  0.00    +0.003 C 
ATOM     11  C   UNL     1      33.529 -14.861 -25.182  0.00  0.00    +0.034 C 
ATOM     12  C   UNL     1      33.105 -15.545 -20.224  0.00  0.00    +0.034 C 
BRANCH   5  13
ATOM     13  O   UNL     1      33.846 -16.420 -22.827  0.00  0.00    -0.478 OA
BRANCH  13  14
ATOM     14  C   UNL     1      35.253 -16.536 -22.639  0.00  0.00    +0.182 C 
BRANCH  14  15
ATOM     15  C   UNL     1      35.576 -17.963 -22.227  0.00  0.00    -0.038 C 
BRANCH  15  16
ATOM     16  N   UNL     1      35.647 -18.076 -20.777  0.00  0.00    +0.383 N 
ATOM     17  H   UNL     1      35.352 -17.196 -20.353  0.00  0.00    -0.089 HD
ATOM     18  H   UNL     1      36.607 -18.283 -20.500  0.00  0.00    -0.089 HD
ATOM     19  H   UNL     1      35.033 -18.828 -20.465  0.00  0.00    -0.089 HD
ENDBRANCH  15  16
ENDBRANCH  14  15
ENDBRANCH  13  14
ENDBRANCH   5  13
ENDBRANCH   3   8
BRANCH   2  20
ATOM     20  C   UNL     1      32.233  -8.837 -22.428  0.00  0.00    +0.088 C 
ATOM     21  C   UNL     1      32.296  -8.194 -21.202  0.00  0.00    +0.152 C 
ATOM     22  C   UNL     1      31.911  -8.151 -23.587  0.00  0.00    +0.055 C 
ATOM     23  C   UNL     1      31.646  -6.783 -23.519  0.00  0.00    +0.140 C 
ATOM     24  C   UNL     1      32.030  -6.827 -21.134  0.00  0.00    +0.041 C 
ATOM     25  C   UNL     1      31.705  -6.121 -22.292  0.00  0.00    +0.040 C 
BRANCH  21  26
ATOM     26  O   UNL     1      32.611  -8.866 -20.058  0.00  0.00    -0.474 OA
BRANCH  26  27
ATOM     27  C   UNL     1      31.529  -9.254 -19.216  0.00  0.00    +0.206 C 
ATOM     28  C   UNL     1      31.675 -10.720 -18.866  0.00  0.00    +0.051 C 
ENDBRANCH  26  27
ENDBRANCH  21  26
BRANCH  23  29
ATOM     29  O   UNL     1      31.329  -6.094 -24.648  0.00  0.00    -0.475 OA
BRANCH  29  30
ATOM     30  C   UNL     1      32.078  -4.910 -24.919  0.00  0.00    +0.206 C 
ATOM     31  C   UNL     1      33.117  -5.214 -25.978  0.00  0.00    +0.051 C 
ENDBRANCH  29  30
ENDBRANCH  23  29
ENDBRANCH   2  20
TORSDOF 10
ENDMDL
