MODEL 1
REMARK VINA RESULT:      -9.2      0.000      0.000
REMARK  Name = 3275
REMARK  10 active torsions:
REMARK  status: ('A' for Active; 'I' for Inactive)
REMARK    1  A    between atoms: C_1  and  C_8
REMARK    2  A    between atoms: C_2  and  O_17
REMARK    3  A    between atoms: C_8  and  C_9
REMARK    4  A    between atoms: C_9  and  C_10
REMARK    5  A    between atoms: C_10  and  C_11
REMARK    6  A    between atoms: O_17  and  C_18
REMARK    7  A    between atoms: C_18  and  C_19
REMARK    8  A    between atoms: C_19  and  N_20
REMARK    9  A    between atoms: N_20  and  C_22
REMARK   10  A    between atoms: N_20  and  C_24
REMARK                            x       y       z     vdW  Elec       q    Type
REMARK                         _______ _______ _______ _____ _____    ______ ____
ROOT
ATOM      1  C   UNL     1      34.003 -15.615 -22.247  0.00  0.00    +0.069 C 
ATOM      2  C   UNL     1      33.537 -14.413 -22.779  0.00  0.00    +0.141 C 
ATOM      3  C   UNL     1      33.653 -15.986 -20.949  0.00  0.00    +0.006 C 
ATOM      4  C   UNL     1      32.719 -13.582 -22.013  0.00  0.00    +0.037 C 
ATOM      5  C   UNL     1      32.835 -15.155 -20.183  0.00  0.00    +0.000 C 
ATOM      6  C   UNL     1      32.369 -13.953 -20.715  0.00  0.00    +0.003 C 
ENDROOT
BRANCH   1   8
ATOM      7  O   UNL     1      35.758 -16.029 -23.757  0.00  0.00    -0.291 OA
ATOM      8  C   UNL     1      34.859 -16.496 -23.029  0.00  0.00    +0.176 C 
BRANCH   8   9
ATOM      9  C   UNL     1      34.657 -18.020 -22.961  0.00  0.00    +0.074 C 
BRANCH   9  10
ATOM     10  C   UNL     1      35.643 -18.722 -22.024  0.00  0.00    +0.034 C 
BRANCH  10  11
ATOM     11  C   UNL     1      34.947 -19.692 -21.107  0.00  0.00    -0.022 C 
ATOM     12  C   UNL     1      35.690 -20.634 -20.394  0.00  0.00    -0.004 C 
ATOM     13  C   UNL     1      33.560 -19.649 -20.967  0.00  0.00    -0.004 C 
ATOM     14  C   UNL     1      35.046 -21.533 -19.544  0.00  0.00    -0.000 C 
ATOM     15  C   UNL     1      32.916 -20.548 -20.116  0.00  0.00    -0.000 C 
ATOM     16  C   UNL     1      33.659 -21.489 -19.405  0.00  0.00    -0.000 C 
ENDBRANCH  10  11
ENDBRANCH   9  10
ENDBRANCH   8   9
ENDBRANCH   1   8
BRANCH   2  17
ATOM     17  O   UNL     1      33.871 -14.029 -24.051  0.00  0.00    -0.478 OA
BRANCH  17  18
ATOM     18  C   UNL     1      33.087 -12.999 -24.637  0.00  0.00    +0.183 C 
BRANCH  18  19
ATOM     19  C   UNL     1      34.018 -11.944 -25.214  0.00  0.00    -0.029 C 
BRANCH  19  20
ATOM     20  N   UNL     1      34.343 -10.936 -24.206  0.00  0.00    +0.389 N 
ATOM     21  H   UNL     1      34.888 -11.381 -23.468  0.00  0.00    -0.080 HD
BRANCH  20  22
ATOM     22  C   UNL     1      35.149  -9.866 -24.794  0.00  0.00    -0.077 C 
ATOM     23  C   UNL     1      35.722 -10.287 -26.137  0.00  0.00    -0.025 C 
ENDBRANCH  20  22
BRANCH  20  24
ATOM     24  C   UNL     1      33.121 -10.390 -23.616  0.00  0.00    -0.077 C 
ATOM     25  C   UNL     1      33.291  -8.923 -23.262  0.00  0.00    -0.025 C 
ENDBRANCH  20  24
ENDBRANCH  19  20
ENDBRANCH  18  19
ENDBRANCH  17  18
ENDBRANCH   2  17
TORSDOF 10
ENDMDL
MODEL 2
REMARK VINA RESULT:      -9.2      6.593     11.581
REMARK  Name = 3275
REMARK  10 active torsions:
REMARK  status: ('A' for Active; 'I' for Inactive)
REMARK    1  A    between atoms: C_1  and  C_8
REMARK    2  A    between atoms: C_2  and  O_17
REMARK    3  A    between atoms: C_8  and  C_9
REMARK    4  A    between atoms: C_9  and  C_10
REMARK    5  A    between atoms: C_10  and  C_11
REMARK    6  A    between atoms: O_17  and  C_18
REMARK    7  A    between atoms: C_18  and  C_19
REMARK    8  A    between atoms: C_19  and  N_20
REMARK    9  A    between atoms: N_20  and  C_22
REMARK   10  A    between atoms: N_20  and  C_24
REMARK                            x       y       z     vdW  Elec       q    Type
REMARK                         _______ _______ _______ _____ _____    ______ ____
ROOT
ATOM      1  C   UNL     1      33.205 -23.140 -17.153  0.00  0.00    +0.069 C 
ATOM      2  C   UNL     1      34.141 -23.321 -16.135  0.00  0.00    +0.141 C 
ATOM      3  C   UNL     1      31.848 -23.048 -16.845  0.00  0.00    +0.006 C 
ATOM      4  C   UNL     1      33.720 -23.409 -14.808  0.00  0.00    +0.037 C 
ATOM      5  C   UNL     1      31.427 -23.136 -15.518  0.00  0.00    +0.000 C 
ATOM      6  C   UNL     1      32.363 -23.317 -14.500  0.00  0.00    +0.003 C 
ENDROOT
BRANCH   1   8
ATOM      7  O   UNL     1      33.861 -24.077 -19.209  0.00  0.00    -0.291 OA
ATOM      8  C   UNL     1      33.624 -23.047 -18.545  0.00  0.00    +0.176 C 
BRANCH   8   9
ATOM      9  C   UNL     1      33.777 -21.668 -19.209  0.00  0.00    +0.074 C 
BRANCH   9  10
ATOM     10  C   UNL     1      35.236 -21.272 -19.455  0.00  0.00    +0.034 C 
BRANCH  10  11
ATOM     11  C   UNL     1      35.355 -20.213 -20.519  0.00  0.00    -0.022 C 
ATOM     12  C   UNL     1      36.575 -19.571 -20.730  0.00  0.00    -0.004 C 
ATOM     13  C   UNL     1      34.246 -19.876 -21.296  0.00  0.00    -0.004 C 
ATOM     14  C   UNL     1      36.687 -18.590 -21.716  0.00  0.00    -0.000 C 
ATOM     15  C   UNL     1      34.358 -18.895 -22.282  0.00  0.00    -0.000 C 
ATOM     16  C   UNL     1      35.577 -18.253 -22.492  0.00  0.00    -0.000 C 
ENDBRANCH  10  11
ENDBRANCH   9  10
ENDBRANCH   8   9
ENDBRANCH   1   8
BRANCH   2  17
ATOM     17  O   UNL     1      35.478 -23.416 -16.417  0.00  0.00    -0.478 OA
BRANCH  17  18
ATOM     18  C   UNL     1      36.375 -22.849 -15.470  0.00  0.00    +0.183 C 
BRANCH  18  19
ATOM     19  C   UNL     1      37.513 -23.828 -15.228  0.00  0.00    -0.029 C 
BRANCH  19  20
ATOM     20  N   UNL     1      37.485 -24.320 -13.851  0.00  0.00    +0.389 N 
ATOM     21  H   UNL     1      38.442 -24.521 -13.561  0.00  0.00    -0.080 HD
BRANCH  20  22
ATOM     22  C   UNL     1      36.934 -23.303 -12.956  0.00  0.00    -0.077 C 
ATOM     23  C   UNL     1      35.975 -23.920 -11.950  0.00  0.00    -0.025 C 
ENDBRANCH  20  22
BRANCH  20  24
ATOM     24  C   UNL     1      36.705 -25.555 -13.765  0.00  0.00    -0.077 C 
ATOM     25  C   UNL     1      36.971 -26.456 -14.959  0.00  0.00    -0.025 C 
ENDBRANCH  20  24
ENDBRANCH  19  20
ENDBRANCH  18  19
ENDBRANCH  17  18
ENDBRANCH   2  17
TORSDOF 10
ENDMDL
MODEL 3
REMARK VINA RESULT:      -9.1      2.149      4.237
REMARK  Name = 3275
REMARK  10 active torsions:
REMARK  status: ('A' for Active; 'I' for Inactive)
REMARK    1  A    between atoms: C_1  and  C_8
REMARK    2  A    between atoms: C_2  and  O_17
REMARK    3  A    between atoms: C_8  and  C_9
REMARK    4  A    between atoms: C_9  and  C_10
REMARK    5  A    between atoms: C_10  and  C_11
REMARK    6  A    between atoms: O_17  and  C_18
REMARK    7  A    between atoms: C_18  and  C_19
REMARK    8  A    between atoms: C_19  and  N_20
REMARK    9  A    between atoms: N_20  and  C_22
REMARK   10  A    between atoms: N_20  and  C_24
REMARK                            x       y       z     vdW  Elec       q    Type
REMARK                         _______ _______ _______ _____ _____    ______ ____
ROOT
ATOM      1  C   UNL     1      33.329 -13.603 -24.202  0.00  0.00    +0.069 C 
ATOM      2  C   UNL     1      33.657 -12.307 -24.599  0.00  0.00    +0.141 C 
ATOM      3  C   UNL     1      33.049 -14.577 -25.160  0.00  0.00    +0.006 C 
ATOM      4  C   UNL     1      33.704 -11.984 -25.955  0.00  0.00    +0.037 C 
ATOM      5  C   UNL     1      33.096 -14.254 -26.516  0.00  0.00    +0.000 C 
ATOM      6  C   UNL     1      33.424 -12.957 -26.914  0.00  0.00    +0.003 C 
ENDROOT
BRANCH   1   8
ATOM      7  O   UNL     1      32.199 -13.895 -22.160  0.00  0.00    -0.291 OA
ATOM      8  C   UNL     1      33.273 -13.961 -22.791  0.00  0.00    +0.176 C 
BRANCH   8   9
ATOM      9  C   UNL     1      34.549 -14.425 -22.066  0.00  0.00    +0.074 C 
BRANCH   9  10
ATOM     10  C   UNL     1      34.322 -15.631 -21.151  0.00  0.00    +0.034 C 
BRANCH  10  11
ATOM     11  C   UNL     1      34.521 -16.932 -21.884  0.00  0.00    -0.022 C 
ATOM     12  C   UNL     1      35.057 -16.932 -23.172  0.00  0.00    -0.004 C 
ATOM     13  C   UNL     1      34.171 -18.137 -21.275  0.00  0.00    -0.004 C 
ATOM     14  C   UNL     1      35.242 -18.136 -23.852  0.00  0.00    -0.000 C 
ATOM     15  C   UNL     1      34.356 -19.341 -21.954  0.00  0.00    -0.000 C 
ATOM     16  C   UNL     1      34.891 -19.341 -23.242  0.00  0.00    -0.000 C 
ENDBRANCH  10  11
ENDBRANCH   9  10
ENDBRANCH   8   9
ENDBRANCH   1   8
BRANCH   2  17
ATOM     17  O   UNL     1      33.933 -11.336 -23.673  0.00  0.00    -0.478 OA
BRANCH  17  18
ATOM     18  C   UNL     1      33.058 -10.216 -23.637  0.00  0.00    +0.183 C 
BRANCH  18  19
ATOM     19  C   UNL     1      32.048 -10.421 -22.520  0.00  0.00    -0.029 C 
BRANCH  19  20
ATOM     20  N   UNL     1      31.885  -9.193 -21.741  0.00  0.00    +0.389 N 
ATOM     21  H   UNL     1      30.965  -8.802 -21.943  0.00  0.00    -0.080 HD
BRANCH  20  22
ATOM     22  C   UNL     1      31.960  -9.484 -20.309  0.00  0.00    -0.077 C 
ATOM     23  C   UNL     1      31.158 -10.726 -19.959  0.00  0.00    -0.025 C 
ENDBRANCH  20  22
BRANCH  20  24
ATOM     24  C   UNL     1      32.900  -8.210 -22.117  0.00  0.00    -0.077 C 
ATOM     25  C   UNL     1      32.389  -6.793 -21.924  0.00  0.00    -0.025 C 
ENDBRANCH  20  24
ENDBRANCH  19  20
ENDBRANCH  18  19
ENDBRANCH  17  18
ENDBRANCH   2  17
TORSDOF 10
ENDMDL
MODEL 4
REMARK VINA RESULT:      -9.1      6.950     11.731
REMARK  Name = 3275
REMARK  10 active torsions:
REMARK  status: ('A' for Active; 'I' for Inactive)
REMARK    1  A    between atoms: C_1  and  C_8
REMARK    2  A    between atoms: C_2  and  O_17
REMARK    3  A    between atoms: C_8  and  C_9
REMARK    4  A    between atoms: C_9  and  C_10
REMARK    5  A    between atoms: C_10  and  C_11
REMARK    6  A    between atoms: O_17  and  C_18
REMARK    7  A    between atoms: C_18  and  C_19
REMARK    8  A    between atoms: C_19  and  N_20
REMARK    9  A    between atoms: N_20  and  C_22
REMARK   10  A    between atoms: N_20  and  C_24
REMARK                            x       y       z     vdW  Elec       q    Type
REMARK                         _______ _______ _______ _____ _____    ______ ____
ROOT
ATOM      1  C   UNL     1      32.466 -23.489 -15.832  0.00  0.00    +0.069 C 
ATOM      2  C   UNL     1      32.836 -24.062 -14.615  0.00  0.00    +0.141 C 
ATOM      3  C   UNL     1      31.166 -23.016 -16.014  0.00  0.00    +0.006 C 
ATOM      4  C   UNL     1      31.906 -24.162 -13.580  0.00  0.00    +0.037 C 
ATOM      5  C   UNL     1      30.236 -23.117 -14.978  0.00  0.00    +0.000 C 
ATOM      6  C   UNL     1      30.607 -23.690 -13.762  0.00  0.00    +0.003 C 
ENDROOT
BRANCH   1   8
ATOM      7  O   UNL     1      34.501 -23.997 -16.895  0.00  0.00    -0.291 OA
ATOM      8  C   UNL     1      33.420 -23.375 -16.926  0.00  0.00    +0.176 C 
BRANCH   8   9
ATOM      9  C   UNL     1      33.098 -22.480 -18.135  0.00  0.00    +0.074 C 
BRANCH   9  10
ATOM     10  C   UNL     1      34.128 -22.588 -19.262  0.00  0.00    +0.034 C 
BRANCH  10  11
ATOM     11  C   UNL     1      34.353 -21.262 -19.941  0.00  0.00    -0.022 C 
ATOM     12  C   UNL     1      35.650 -20.836 -20.225  0.00  0.00    -0.004 C 
ATOM     13  C   UNL     1      33.264 -20.463 -20.288  0.00  0.00    -0.004 C 
ATOM     14  C   UNL     1      35.860 -19.608 -20.855  0.00  0.00    -0.000 C 
ATOM     15  C   UNL     1      33.474 -19.235 -20.918  0.00  0.00    -0.000 C 
ATOM     16  C   UNL     1      34.770 -18.809 -21.201  0.00  0.00    -0.000 C 
ENDBRANCH  10  11
ENDBRANCH   9  10
ENDBRANCH   8   9
ENDBRANCH   1   8
BRANCH   2  17
ATOM     17  O   UNL     1      34.107 -24.533 -14.417  0.00  0.00    -0.478 OA
BRANCH  17  18
ATOM     18  C   UNL     1      34.798 -24.052 -13.272  0.00  0.00    +0.183 C 
BRANCH  18  19
ATOM     19  C   UNL     1      36.112 -23.431 -13.719  0.00  0.00    -0.029 C 
BRANCH  19  20
ATOM     20  N   UNL     1      36.691 -24.192 -14.826  0.00  0.00    +0.389 N 
ATOM     21  H   UNL     1      35.951 -24.405 -15.494  0.00  0.00    -0.080 HD
BRANCH  20  22
ATOM     22  C   UNL     1      37.717 -23.402 -15.507  0.00  0.00    -0.077 C 
ATOM     23  C   UNL     1      37.140 -22.104 -16.047  0.00  0.00    -0.025 C 
ENDBRANCH  20  22
BRANCH  20  24
ATOM     24  C   UNL     1      37.255 -25.452 -14.340  0.00  0.00    -0.077 C 
ATOM     25  C   UNL     1      36.851 -26.613 -15.232  0.00  0.00    -0.025 C 
ENDBRANCH  20  24
ENDBRANCH  19  20
ENDBRANCH  18  19
ENDBRANCH  17  18
ENDBRANCH   2  17
TORSDOF 10
ENDMDL
MODEL 5
REMARK VINA RESULT:      -9.0      2.045      4.082
REMARK  Name = 3275
REMARK  10 active torsions:
REMARK  status: ('A' for Active; 'I' for Inactive)
REMARK    1  A    between atoms: C_1  and  C_8
REMARK    2  A    between atoms: C_2  and  O_17
REMARK    3  A    between atoms: C_8  and  C_9
REMARK    4  A    between atoms: C_9  and  C_10
REMARK    5  A    between atoms: C_10  and  C_11
REMARK    6  A    between atoms: O_17  and  C_18
REMARK    7  A    between atoms: C_18  and  C_19
REMARK    8  A    between atoms: C_19  and  N_20
REMARK    9  A    between atoms: N_20  and  C_22
REMARK   10  A    between atoms: N_20  and  C_24
REMARK                            x       y       z     vdW  Elec       q    Type
REMARK                         _______ _______ _______ _____ _____    ______ ____
ROOT
ATOM      1  C   UNL     1      33.339 -13.667 -24.248  0.00  0.00    +0.069 C 
ATOM      2  C   UNL     1      33.666 -12.367 -24.635  0.00  0.00    +0.141 C 
ATOM      3  C   UNL     1      33.060 -14.633 -25.215  0.00  0.00    +0.006 C 
ATOM      4  C   UNL     1      33.714 -12.034 -25.988  0.00  0.00    +0.037 C 
ATOM      5  C   UNL     1      33.109 -14.300 -26.568  0.00  0.00    +0.000 C 
ATOM      6  C   UNL     1      33.436 -13.000 -26.955  0.00  0.00    +0.003 C 
ENDROOT
BRANCH   1   8
ATOM      7  O   UNL     1      32.199 -14.012 -22.220  0.00  0.00    -0.291 OA
ATOM      8  C   UNL     1      33.281 -14.036 -22.840  0.00  0.00    +0.176 C 
BRANCH   8   9
ATOM      9  C   UNL     1      34.565 -14.459 -22.105  0.00  0.00    +0.074 C 
BRANCH   9  10
ATOM     10  C   UNL     1      34.363 -15.656 -21.173  0.00  0.00    +0.034 C 
BRANCH  10  11
ATOM     11  C   UNL     1      34.544 -16.964 -21.898  0.00  0.00    -0.022 C 
ATOM     12  C   UNL     1      34.206 -18.162 -21.268  0.00  0.00    -0.004 C 
ATOM     13  C   UNL     1      35.046 -16.977 -23.199  0.00  0.00    -0.004 C 
ATOM     14  C   UNL     1      34.372 -19.374 -21.939  0.00  0.00    -0.000 C 
ATOM     15  C   UNL     1      35.212 -18.189 -23.870  0.00  0.00    -0.000 C 
ATOM     16  C   UNL     1      34.875 -19.387 -23.240  0.00  0.00    -0.000 C 
ENDBRANCH  10  11
ENDBRANCH   9  10
ENDBRANCH   8   9
ENDBRANCH   1   8
BRANCH   2  17
ATOM     17  O   UNL     1      33.940 -11.403 -23.701  0.00  0.00    -0.478 OA
BRANCH  17  18
ATOM     18  C   UNL     1      33.802 -10.051 -24.117  0.00  0.00    +0.183 C 
BRANCH  18  19
ATOM     19  C   UNL     1      32.522  -9.486 -23.523  0.00  0.00    -0.029 C 
BRANCH  19  20
ATOM     20  N   UNL     1      32.338  -9.957 -22.151  0.00  0.00    +0.389 N 
ATOM     21  H   UNL     1      33.113 -10.575 -21.915  0.00  0.00    -0.080 HD
BRANCH  20  22
ATOM     22  C   UNL     1      32.345  -8.829 -21.218  0.00  0.00    -0.077 C 
ATOM     23  C   UNL     1      32.184  -7.509 -21.953  0.00  0.00    -0.025 C 
ENDBRANCH  20  22
BRANCH  20  24
ATOM     24  C   UNL     1      31.090 -10.711 -22.032  0.00  0.00    -0.077 C 
ATOM     25  C   UNL     1      30.869 -11.184 -20.606  0.00  0.00    -0.025 C 
ENDBRANCH  20  24
ENDBRANCH  19  20
ENDBRANCH  18  19
ENDBRANCH  17  18
ENDBRANCH   2  17
TORSDOF 10
ENDMDL
MODEL 6
REMARK VINA RESULT:      -8.9      2.052      3.246
REMARK  Name = 3275
REMARK  10 active torsions:
REMARK  status: ('A' for Active; 'I' for Inactive)
REMARK    1  A    between atoms: C_1  and  C_8
REMARK    2  A    between atoms: C_2  and  O_17
REMARK    3  A    between atoms: C_8  and  C_9
REMARK    4  A    between atoms: C_9  and  C_10
REMARK    5  A    between atoms: C_10  and  C_11
REMARK    6  A    between atoms: O_17  and  C_18
REMARK    7  A    between atoms: C_18  and  C_19
REMARK    8  A    between atoms: C_19  and  N_20
REMARK    9  A    between atoms: N_20  and  C_22
REMARK   10  A    between atoms: N_20  and  C_24
REMARK                            x       y       z     vdW  Elec       q    Type
REMARK                         _______ _______ _______ _____ _____    ______ ____
ROOT
ATOM      1  C   UNL     1      34.019 -15.616 -23.078  0.00  0.00    +0.069 C 
ATOM      2  C   UNL     1      33.343 -14.417 -23.305  0.00  0.00    +0.141 C 
ATOM      3  C   UNL     1      34.342 -16.449 -24.150  0.00  0.00    +0.006 C 
ATOM      4  C   UNL     1      32.991 -14.050 -24.604  0.00  0.00    +0.037 C 
ATOM      5  C   UNL     1      33.989 -16.081 -25.449  0.00  0.00    +0.000 C 
ATOM      6  C   UNL     1      33.314 -14.882 -25.676  0.00  0.00    +0.003 C 
ENDROOT
BRANCH   1   8
ATOM      7  O   UNL     1      35.033 -15.246 -20.989  0.00  0.00    -0.291 OA
ATOM      8  C   UNL     1      34.394 -16.019 -21.730  0.00  0.00    +0.176 C 
BRANCH   8   9
ATOM      9  C   UNL     1      34.002 -17.413 -21.209  0.00  0.00    +0.074 C 
BRANCH   9  10
ATOM     10  C   UNL     1      35.071 -18.479 -21.463  0.00  0.00    +0.034 C 
BRANCH  10  11
ATOM     11  C   UNL     1      34.783 -19.749 -20.706  0.00  0.00    -0.022 C 
ATOM     12  C   UNL     1      35.836 -20.546 -20.257  0.00  0.00    -0.004 C 
ATOM     13  C   UNL     1      33.465 -20.127 -20.453  0.00  0.00    -0.004 C 
ATOM     14  C   UNL     1      35.571 -21.723 -19.556  0.00  0.00    -0.000 C 
ATOM     15  C   UNL     1      33.200 -21.304 -19.751  0.00  0.00    -0.000 C 
ATOM     16  C   UNL     1      34.252 -22.101 -19.303  0.00  0.00    -0.000 C 
ENDBRANCH  10  11
ENDBRANCH   9  10
ENDBRANCH   8   9
ENDBRANCH   1   8
BRANCH   2  17
ATOM     17  O   UNL     1      33.015 -13.587 -22.266  0.00  0.00    -0.478 OA
BRANCH  17  18
ATOM     18  C   UNL     1      31.982 -12.640 -22.503  0.00  0.00    +0.183 C 
BRANCH  18  19
ATOM     19  C   UNL     1      31.596 -11.996 -21.181  0.00  0.00    -0.029 C 
BRANCH  19  20
ATOM     20  N   UNL     1      31.393 -10.557 -21.349  0.00  0.00    +0.389 N 
ATOM     21  H   UNL     1      30.421 -10.397 -21.613  0.00  0.00    -0.080 HD
BRANCH  20  22
ATOM     22  C   UNL     1      31.652  -9.855 -20.091  0.00  0.00    -0.077 C 
ATOM     23  C   UNL     1      31.466 -10.780 -18.899  0.00  0.00    -0.025 C 
ENDBRANCH  20  22
BRANCH  20  24
ATOM     24  C   UNL     1      32.255 -10.040 -22.410  0.00  0.00    -0.077 C 
ATOM     25  C   UNL     1      31.566  -8.929 -23.184  0.00  0.00    -0.025 C 
ENDBRANCH  20  24
ENDBRANCH  19  20
ENDBRANCH  18  19
ENDBRANCH  17  18
ENDBRANCH   2  17
TORSDOF 10
ENDMDL
MODEL 7
REMARK VINA RESULT:      -8.9      7.302     10.974
REMARK  Name = 3275
REMARK  10 active torsions:
REMARK  status: ('A' for Active; 'I' for Inactive)
REMARK    1  A    between atoms: C_1  and  C_8
REMARK    2  A    between atoms: C_2  and  O_17
REMARK    3  A    between atoms: C_8  and  C_9
REMARK    4  A    between atoms: C_9  and  C_10
REMARK    5  A    between atoms: C_10  and  C_11
REMARK    6  A    between atoms: O_17  and  C_18
REMARK    7  A    between atoms: C_18  and  C_19
REMARK    8  A    between atoms: C_19  and  N_20
REMARK    9  A    between atoms: N_20  and  C_22
REMARK   10  A    between atoms: N_20  and  C_24
REMARK                            x       y       z     vdW  Elec       q    Type
REMARK                         _______ _______ _______ _____ _____    ______ ____
ROOT
ATOM      1  C   UNL     1      34.486 -21.917 -19.187  0.00  0.00    +0.069 C 
ATOM      2  C   UNL     1      35.832 -21.618 -18.978  0.00  0.00    +0.141 C 
ATOM      3  C   UNL     1      33.733 -21.156 -20.082  0.00  0.00    +0.006 C 
ATOM      4  C   UNL     1      36.426 -20.558 -19.663  0.00  0.00    +0.037 C 
ATOM      5  C   UNL     1      34.327 -20.096 -20.767  0.00  0.00    +0.000 C 
ATOM      6  C   UNL     1      35.673 -19.797 -20.558  0.00  0.00    +0.003 C 
ENDROOT
BRANCH   1   8
ATOM      7  O   UNL     1      33.759 -24.146 -19.006  0.00  0.00    -0.291 OA
ATOM      8  C   UNL     1      33.846 -23.018 -18.481  0.00  0.00    +0.176 C 
BRANCH   8   9
ATOM      9  C   UNL     1      33.269 -22.793 -17.073  0.00  0.00    +0.074 C 
BRANCH   9  10
ATOM     10  C   UNL     1      31.742 -22.892 -17.020  0.00  0.00    +0.034 C 
BRANCH  10  11
ATOM     11  C   UNL     1      31.266 -23.483 -15.719  0.00  0.00    -0.022 C 
ATOM     12  C   UNL     1      30.433 -24.602 -15.725  0.00  0.00    -0.004 C 
ATOM     13  C   UNL     1      31.658 -22.913 -14.508  0.00  0.00    -0.004 C 
ATOM     14  C   UNL     1      29.992 -25.151 -14.521  0.00  0.00    -0.000 C 
ATOM     15  C   UNL     1      31.217 -23.461 -13.303  0.00  0.00    -0.000 C 
ATOM     16  C   UNL     1      30.384 -24.579 -13.310  0.00  0.00    -0.000 C 
ENDBRANCH  10  11
ENDBRANCH   9  10
ENDBRANCH   8   9
ENDBRANCH   1   8
BRANCH   2  17
ATOM     17  O   UNL     1      36.588 -22.352 -18.102  0.00  0.00    -0.478 OA
BRANCH  17  18
ATOM     18  C   UNL     1      36.993 -21.702 -16.905  0.00  0.00    +0.183 C 
BRANCH  18  19
ATOM     19  C   UNL     1      37.549 -22.744 -15.948  0.00  0.00    -0.029 C 
BRANCH  19  20
ATOM     20  N   UNL     1      36.500 -23.676 -15.534  0.00  0.00    +0.389 N 
ATOM     21  H   UNL     1      35.904 -23.869 -16.339  0.00  0.00    -0.080 HD
BRANCH  20  22
ATOM     22  C   UNL     1      37.086 -24.937 -15.080  0.00  0.00    -0.077 C 
ATOM     23  C   UNL     1      38.562 -24.770 -14.756  0.00  0.00    -0.025 C 
ENDBRANCH  20  22
BRANCH  20  24
ATOM     24  C   UNL     1      35.678 -23.085 -14.479  0.00  0.00    -0.077 C 
ATOM     25  C   UNL     1      34.987 -24.158 -13.655  0.00  0.00    -0.025 C 
ENDBRANCH  20  24
ENDBRANCH  19  20
ENDBRANCH  18  19
ENDBRANCH  17  18
ENDBRANCH   2  17
TORSDOF 10
ENDMDL
MODEL 8
REMARK VINA RESULT:      -8.9      2.063      4.127
REMARK  Name = 3275
REMARK  10 active torsions:
REMARK  status: ('A' for Active; 'I' for Inactive)
REMARK    1  A    between atoms: C_1  and  C_8
REMARK    2  A    between atoms: C_2  and  O_17
REMARK    3  A    between atoms: C_8  and  C_9
REMARK    4  A    between atoms: C_9  and  C_10
REMARK    5  A    between atoms: C_10  and  C_11
REMARK    6  A    between atoms: O_17  and  C_18
REMARK    7  A    between atoms: C_18  and  C_19
REMARK    8  A    between atoms: C_19  and  N_20
REMARK    9  A    between atoms: N_20  and  C_22
REMARK   10  A    between atoms: N_20  and  C_24
REMARK                            x       y       z     vdW  Elec       q    Type
REMARK                         _______ _______ _______ _____ _____    ______ ____
ROOT
ATOM      1  C   UNL     1      33.309 -13.677 -24.264  0.00  0.00    +0.069 C 
ATOM      2  C   UNL     1      33.684 -12.393 -24.661  0.00  0.00    +0.141 C 
ATOM      3  C   UNL     1      32.969 -14.632 -25.222  0.00  0.00    +0.006 C 
ATOM      4  C   UNL     1      33.718 -12.065 -26.017  0.00  0.00    +0.037 C 
ATOM      5  C   UNL     1      33.003 -14.303 -26.577  0.00  0.00    +0.000 C 
ATOM      6  C   UNL     1      33.378 -13.020 -26.974  0.00  0.00    +0.003 C 
ENDROOT
BRANCH   1   8
ATOM      7  O   UNL     1      32.192 -13.998 -22.220  0.00  0.00    -0.291 OA
ATOM      8  C   UNL     1      33.265 -14.040 -22.854  0.00  0.00    +0.176 C 
BRANCH   8   9
ATOM      9  C   UNL     1      34.552 -14.479 -22.135  0.00  0.00    +0.074 C 
BRANCH   9  10
ATOM     10  C   UNL     1      34.350 -15.681 -21.209  0.00  0.00    +0.034 C 
BRANCH  10  11
ATOM     11  C   UNL     1      34.545 -16.985 -21.937  0.00  0.00    -0.022 C 
ATOM     12  C   UNL     1      34.994 -16.986 -23.258  0.00  0.00    -0.004 C 
ATOM     13  C   UNL     1      34.281 -18.192 -21.289  0.00  0.00    -0.004 C 
ATOM     14  C   UNL     1      35.176 -18.194 -23.933  0.00  0.00    -0.000 C 
ATOM     15  C   UNL     1      34.464 -19.400 -21.964  0.00  0.00    -0.000 C 
ATOM     16  C   UNL     1      34.910 -19.400 -23.285  0.00  0.00    -0.000 C 
ENDBRANCH  10  11
ENDBRANCH   9  10
ENDBRANCH   8   9
ENDBRANCH   1   8
BRANCH   2  17
ATOM     17  O   UNL     1      34.020 -11.440 -23.736  0.00  0.00    -0.478 OA
BRANCH  17  18
ATOM     18  C   UNL     1      33.882 -10.083 -24.135  0.00  0.00    +0.183 C 
BRANCH  18  19
ATOM     19  C   UNL     1      32.909  -9.393 -23.194  0.00  0.00    -0.029 C 
BRANCH  19  20
ATOM     20  N   UNL     1      33.210  -7.965 -23.096  0.00  0.00    +0.389 N 
ATOM     21  H   UNL     1      32.524  -7.451 -23.648  0.00  0.00    -0.080 HD
BRANCH  20  22
ATOM     22  C   UNL     1      33.115  -7.517 -21.706  0.00  0.00    -0.077 C 
ATOM     23  C   UNL     1      31.978  -6.524 -21.527  0.00  0.00    -0.025 C 
ENDBRANCH  20  22
BRANCH  20  24
ATOM     24  C   UNL     1      34.541  -7.685 -23.633  0.00  0.00    -0.077 C 
ATOM     25  C   UNL     1      34.483  -6.628 -24.722  0.00  0.00    -0.025 C 
ENDBRANCH  20  24
ENDBRANCH  19  20
ENDBRANCH  18  19
ENDBRANCH  17  18
ENDBRANCH   2  17
TORSDOF 10
ENDMDL
MODEL 9
REMARK VINA RESULT:      -8.8      5.463     10.889
REMARK  Name = 3275
REMARK  10 active torsions:
REMARK  status: ('A' for Active; 'I' for Inactive)
REMARK    1  A    between atoms: C_1  and  C_8
REMARK    2  A    between atoms: C_2  and  O_17
REMARK    3  A    between atoms: C_8  and  C_9
REMARK    4  A    between atoms: C_9  and  C_10
REMARK    5  A    between atoms: C_10  and  C_11
REMARK    6  A    between atoms: O_17  and  C_18
REMARK    7  A    between atoms: C_18  and  C_19
REMARK    8  A    between atoms: C_19  and  N_20
REMARK    9  A    between atoms: N_20  and  C_22
REMARK   10  A    between atoms: N_20  and  C_24
REMARK                            x       y       z     vdW  Elec       q    Type
REMARK                         _______ _______ _______ _____ _____    ______ ____
ROOT
ATOM      1  C   UNL     1      34.981 -22.247 -18.057  0.00  0.00    +0.069 C 
ATOM      2  C   UNL     1      34.380 -22.997 -17.047  0.00  0.00    +0.141 C 
ATOM      3  C   UNL     1      36.306 -21.832 -17.923  0.00  0.00    +0.006 C 
ATOM      4  C   UNL     1      35.103 -23.332 -15.902  0.00  0.00    +0.037 C 
ATOM      5  C   UNL     1      37.029 -22.166 -16.779  0.00  0.00    +0.000 C 
ATOM      6  C   UNL     1      36.427 -22.916 -15.768  0.00  0.00    +0.003 C 
ENDROOT
BRANCH   1   8
ATOM      7  O   UNL     1      33.180 -22.469 -19.554  0.00  0.00    -0.291 OA
ATOM      8  C   UNL     1      34.243 -21.886 -19.260  0.00  0.00    +0.176 C 
BRANCH   8   9
ATOM      9  C   UNL     1      34.776 -20.775 -20.182  0.00  0.00    +0.074 C 
BRANCH   9  10
ATOM     10  C   UNL     1      33.674 -19.881 -20.755  0.00  0.00    +0.034 C 
BRANCH  10  11
ATOM     11  C   UNL     1      34.231 -18.829 -21.677  0.00  0.00    -0.022 C 
ATOM     12  C   UNL     1      34.245 -17.491 -21.281  0.00  0.00    -0.004 C 
ATOM     13  C   UNL     1      34.737 -19.192 -22.925  0.00  0.00    -0.004 C 
ATOM     14  C   UNL     1      34.761 -16.516 -22.134  0.00  0.00    -0.000 C 
ATOM     15  C   UNL     1      35.253 -18.216 -23.779  0.00  0.00    -0.000 C 
ATOM     16  C   UNL     1      35.266 -16.879 -23.383  0.00  0.00    -0.000 C 
ENDBRANCH  10  11
ENDBRANCH   9  10
ENDBRANCH   8   9
ENDBRANCH   1   8
BRANCH   2  17
ATOM     17  O   UNL     1      33.079 -23.413 -17.158  0.00  0.00    -0.478 OA
BRANCH  17  18
ATOM     18  C   UNL     1      32.263 -23.285 -16.001  0.00  0.00    +0.183 C 
BRANCH  18  19
ATOM     19  C   UNL     1      30.872 -22.846 -16.431  0.00  0.00    -0.029 C 
BRANCH  19  20
ATOM     20  N   UNL     1      29.890 -23.161 -15.394  0.00  0.00    +0.389 N 
ATOM     21  H   UNL     1      29.717 -22.318 -14.847  0.00  0.00    -0.080 HD
BRANCH  20  22
ATOM     22  C   UNL     1      28.627 -23.587 -15.999  0.00  0.00    -0.077 C 
ATOM     23  C   UNL     1      27.584 -22.485 -15.922  0.00  0.00    -0.025 C 
ENDBRANCH  20  22
BRANCH  20  24
ATOM     24  C   UNL     1      30.404 -24.198 -14.500  0.00  0.00    -0.077 C 
ATOM     25  C   UNL     1      29.657 -25.507 -14.692  0.00  0.00    -0.025 C 
ENDBRANCH  20  24
ENDBRANCH  19  20
ENDBRANCH  18  19
ENDBRANCH  17  18
ENDBRANCH   2  17
TORSDOF 10
ENDMDL
