MODEL 1
REMARK VINA RESULT:      -6.3      0.000      0.000
REMARK  Name = 5287843
REMARK  8 active torsions:
REMARK  status: ('A' for Active; 'I' for Inactive)
REMARK    1  A    between atoms: C_1  and  C_3
REMARK    2  A    between atoms: C_1  and  C_6
REMARK    3  A    between atoms: C_1  and  C_10
REMARK    4  A    between atoms: C_3  and  O_4
REMARK    5  A    between atoms: C_6  and  C_7
REMARK    6  A    between atoms: C_7  and  C_8
REMARK    7  A    between atoms: C_10  and  N_12
REMARK    8  A    between atoms: N_12  and  O_14
REMARK                            x       y       z     vdW  Elec       q    Type
REMARK                         _______ _______ _______ _____ _____    ______ ____
ROOT
ATOM      1  C   UNL     1      34.471 -18.327 -22.015  0.00  0.00    +0.121 C 
ENDROOT
BRANCH   1   3
ATOM      2  O   UNL     1      36.363 -18.653 -20.520  0.00  0.00    -0.250 OA
ATOM      3  C   UNL     1      35.462 -17.931 -20.930  0.00  0.00    +0.315 C 
BRANCH   3   4
ATOM      4  O   UNL     1      35.237 -16.685 -20.441  0.00  0.00    -0.480 OA
ATOM      5  H   UNL     1      35.959 -16.126 -20.234  0.00  0.00    +0.295 HD
ENDBRANCH   3   4
ENDBRANCH   1   3
BRANCH   1   6
ATOM      6  C   UNL     1      33.927 -19.738 -21.731  0.00  0.00    +0.013 C 
BRANCH   6   7
ATOM      7  C   UNL     1      32.908 -19.822 -20.586  0.00  0.00    +0.001 C 
BRANCH   7   8
ATOM      8  C   UNL     1      33.119 -21.029 -19.671  0.00  0.00    +0.000 C 
ATOM      9  C   UNL     1      34.584 -21.433 -19.615  0.00  0.00    +0.000 C 
ENDBRANCH   7   8
ENDBRANCH   6   7
ENDBRANCH   1   6
BRANCH   1  10
ATOM     10  C   UNL     1      35.165 -18.289 -23.384  0.00  0.00    +0.135 C 
BRANCH  10  12
ATOM     11  O   UNL     1      33.638 -17.741 -25.777  0.00  0.00    -0.263 OA
ATOM     12  N   UNL     1      34.997 -17.021 -24.044  0.00  0.00    -0.164 N 
ATOM     13  C   UNL     1      34.251 -16.866 -25.176  0.00  0.00    +0.327 C 
BRANCH  12  14
ATOM     14  O   UNL     1      35.667 -15.960 -23.420  0.00  0.00    -0.291 OA
ATOM     15  H   UNL     1      35.727 -16.130 -22.467  0.00  0.00    +0.242 HD
ENDBRANCH  12  14
ENDBRANCH  10  12
ENDBRANCH   1  10
TORSDOF 8
ENDMDL
MODEL 2
REMARK VINA RESULT:      -6.2      9.024     11.470
REMARK  Name = 5287843
REMARK  8 active torsions:
REMARK  status: ('A' for Active; 'I' for Inactive)
REMARK    1  A    between atoms: C_1  and  C_3
REMARK    2  A    between atoms: C_1  and  C_6
REMARK    3  A    between atoms: C_1  and  C_10
REMARK    4  A    between atoms: C_3  and  O_4
REMARK    5  A    between atoms: C_6  and  C_7
REMARK    6  A    between atoms: C_7  and  C_8
REMARK    7  A    between atoms: C_10  and  N_12
REMARK    8  A    between atoms: N_12  and  O_14
REMARK                            x       y       z     vdW  Elec       q    Type
REMARK                         _______ _______ _______ _____ _____    ______ ____
ROOT
ATOM      1  C   UNL     1      36.714 -25.314 -14.244  0.00  0.00    +0.121 C 
ENDROOT
BRANCH   1   3
ATOM      2  O   UNL     1      38.199 -27.191 -14.681  0.00  0.00    -0.250 OA
ATOM      3  C   UNL     1      37.173 -26.579 -14.953  0.00  0.00    +0.315 C 
BRANCH   3   4
ATOM      4  O   UNL     1      36.330 -26.962 -15.946  0.00  0.00    -0.480 OA
ATOM      5  H   UNL     1      36.478 -26.671 -16.824  0.00  0.00    +0.295 HD
ENDBRANCH   3   4
ENDBRANCH   1   3
BRANCH   1   6
ATOM      6  C   UNL     1      37.444 -24.094 -14.833  0.00  0.00    +0.013 C 
BRANCH   6   7
ATOM      7  C   UNL     1      36.576 -23.177 -15.703  0.00  0.00    +0.001 C 
BRANCH   7   8
ATOM      8  C   UNL     1      37.370 -22.078 -16.411  0.00  0.00    +0.000 C 
ATOM      9  C   UNL     1      36.735 -21.705 -17.742  0.00  0.00    +0.000 C 
ENDBRANCH   7   8
ENDBRANCH   6   7
ENDBRANCH   1   6
BRANCH   1  10
ATOM     10  C   UNL     1      37.003 -25.434 -12.741  0.00  0.00    +0.135 C 
BRANCH  10  12
ATOM     11  O   UNL     1      37.782 -23.002 -11.383  0.00  0.00    -0.263 OA
ATOM     12  N   UNL     1      36.169 -24.564 -11.954  0.00  0.00    -0.164 N 
ATOM     13  C   UNL     1      36.635 -23.432 -11.351  0.00  0.00    +0.327 C 
BRANCH  12  14
ATOM     14  O   UNL     1      34.834 -24.982 -11.865  0.00  0.00    -0.291 OA
ATOM     15  H   UNL     1      34.793 -25.841 -11.415  0.00  0.00    +0.242 HD
ENDBRANCH  12  14
ENDBRANCH  10  12
ENDBRANCH   1  10
TORSDOF 8
ENDMDL
MODEL 3
REMARK VINA RESULT:      -6.1      9.147     11.131
REMARK  Name = 5287843
REMARK  8 active torsions:
REMARK  status: ('A' for Active; 'I' for Inactive)
REMARK    1  A    between atoms: C_1  and  C_3
REMARK    2  A    between atoms: C_1  and  C_6
REMARK    3  A    between atoms: C_1  and  C_10
REMARK    4  A    between atoms: C_3  and  O_4
REMARK    5  A    between atoms: C_6  and  C_7
REMARK    6  A    between atoms: C_7  and  C_8
REMARK    7  A    between atoms: C_10  and  N_12
REMARK    8  A    between atoms: N_12  and  O_14
REMARK                            x       y       z     vdW  Elec       q    Type
REMARK                         _______ _______ _______ _____ _____    ______ ____
ROOT
ATOM      1  C   UNL     1      37.625 -23.970 -13.348  0.00  0.00    +0.121 C 
ENDROOT
BRANCH   1   3
ATOM      2  O   UNL     1      37.397 -24.118 -10.930  0.00  0.00    -0.250 OA
ATOM      3  C   UNL     1      37.645 -23.442 -11.921  0.00  0.00    +0.315 C 
BRANCH   3   4
ATOM      4  O   UNL     1      37.954 -22.122 -11.852  0.00  0.00    -0.480 OA
ATOM      5  H   UNL     1      37.360 -21.483 -12.193  0.00  0.00    +0.295 HD
ENDBRANCH   3   4
ENDBRANCH   1   3
BRANCH   1   6
ATOM      6  C   UNL     1      36.184 -23.953 -13.887  0.00  0.00    +0.013 C 
BRANCH   6   7
ATOM      7  C   UNL     1      35.975 -23.106 -15.149  0.00  0.00    +0.001 C 
BRANCH   7   8
ATOM      8  C   UNL     1      37.280 -22.632 -15.789  0.00  0.00    +0.000 C 
ATOM      9  C   UNL     1      37.016 -21.768 -17.012  0.00  0.00    +0.000 C 
ENDBRANCH   7   8
ENDBRANCH   6   7
ENDBRANCH   1   6
BRANCH   1  10
ATOM     10  C   UNL     1      38.187 -25.399 -13.374  0.00  0.00    +0.135 C 
BRANCH  10  12
ATOM     11  O   UNL     1      40.883 -24.802 -14.235  0.00  0.00    -0.263 OA
ATOM     12  N   UNL     1      38.795 -25.721 -14.639  0.00  0.00    -0.164 N 
ATOM     13  C   UNL     1      40.082 -25.395 -14.949  0.00  0.00    +0.327 C 
BRANCH  12  14
ATOM     14  O   UNL     1      37.946 -26.404 -15.522  0.00  0.00    -0.291 OA
ATOM     15  H   UNL     1      38.374 -26.477 -16.389  0.00  0.00    +0.242 HD
ENDBRANCH  12  14
ENDBRANCH  10  12
ENDBRANCH   1  10
TORSDOF 8
ENDMDL
MODEL 4
REMARK VINA RESULT:      -6.1      9.522     11.465
REMARK  Name = 5287843
REMARK  8 active torsions:
REMARK  status: ('A' for Active; 'I' for Inactive)
REMARK    1  A    between atoms: C_1  and  C_3
REMARK    2  A    between atoms: C_1  and  C_6
REMARK    3  A    between atoms: C_1  and  C_10
REMARK    4  A    between atoms: C_3  and  O_4
REMARK    5  A    between atoms: C_6  and  C_7
REMARK    6  A    between atoms: C_7  and  C_8
REMARK    7  A    between atoms: C_10  and  N_12
REMARK    8  A    between atoms: N_12  and  O_14
REMARK                            x       y       z     vdW  Elec       q    Type
REMARK                         _______ _______ _______ _____ _____    ______ ____
ROOT
ATOM      1  C   UNL     1      36.693 -25.428 -14.296  0.00  0.00    +0.121 C 
ENDROOT
BRANCH   1   3
ATOM      2  O   UNL     1      38.400 -27.132 -14.614  0.00  0.00    -0.250 OA
ATOM      3  C   UNL     1      37.361 -26.604 -14.992  0.00  0.00    +0.315 C 
BRANCH   3   4
ATOM      4  O   UNL     1      36.691 -27.010 -16.101  0.00  0.00    -0.480 OA
ATOM      5  H   UNL     1      37.073 -26.890 -16.948  0.00  0.00    +0.295 HD
ENDBRANCH   3   4
ENDBRANCH   1   3
BRANCH   1   6
ATOM      6  C   UNL     1      37.217 -24.108 -14.888  0.00  0.00    +0.013 C 
BRANCH   6   7
ATOM      7  C   UNL     1      36.195 -23.319 -15.716  0.00  0.00    +0.001 C 
BRANCH   7   8
ATOM      8  C   UNL     1      34.745 -23.707 -15.425  0.00  0.00    +0.000 C 
ATOM      9  C   UNL     1      33.832 -23.353 -16.590  0.00  0.00    +0.000 C 
ENDBRANCH   7   8
ENDBRANCH   6   7
ENDBRANCH   1   6
BRANCH   1  10
ATOM     10  C   UNL     1      36.985 -25.490 -12.789  0.00  0.00    +0.135 C 
BRANCH  10  12
ATOM     11  O   UNL     1      37.783 -23.123 -11.332  0.00  0.00    -0.263 OA
ATOM     12  N   UNL     1      36.142 -24.601 -12.034  0.00  0.00    -0.164 N 
ATOM     13  C   UNL     1      36.619 -23.503 -11.379  0.00  0.00    +0.327 C 
BRANCH  12  14
ATOM     14  O   UNL     1      34.788 -24.962 -12.034  0.00  0.00    -0.291 OA
ATOM     15  H   UNL     1      34.634 -25.641 -12.709  0.00  0.00    +0.242 HD
ENDBRANCH  12  14
ENDBRANCH  10  12
ENDBRANCH   1  10
TORSDOF 8
ENDMDL
MODEL 5
REMARK VINA RESULT:      -6.1      1.801      2.363
REMARK  Name = 5287843
REMARK  8 active torsions:
REMARK  status: ('A' for Active; 'I' for Inactive)
REMARK    1  A    between atoms: C_1  and  C_3
REMARK    2  A    between atoms: C_1  and  C_6
REMARK    3  A    between atoms: C_1  and  C_10
REMARK    4  A    between atoms: C_3  and  O_4
REMARK    5  A    between atoms: C_6  and  C_7
REMARK    6  A    between atoms: C_7  and  C_8
REMARK    7  A    between atoms: C_10  and  N_12
REMARK    8  A    between atoms: N_12  and  O_14
REMARK                            x       y       z     vdW  Elec       q    Type
REMARK                         _______ _______ _______ _____ _____    ______ ____
ROOT
ATOM      1  C   UNL     1      34.414 -16.513 -22.189  0.00  0.00    +0.121 C 
ENDROOT
BRANCH   1   3
ATOM      2  O   UNL     1      34.994 -15.973 -19.889  0.00  0.00    -0.250 OA
ATOM      3  C   UNL     1      34.371 -15.696 -20.906  0.00  0.00    +0.315 C 
BRANCH   3   4
ATOM      4  O   UNL     1      33.548 -14.619 -20.994  0.00  0.00    -0.480 OA
ATOM      5  H   UNL     1      32.927 -14.448 -20.315  0.00  0.00    +0.295 HD
ENDBRANCH   3   4
ENDBRANCH   1   3
BRANCH   1   6
ATOM      6  C   UNL     1      35.331 -17.733 -21.997  0.00  0.00    +0.013 C 
BRANCH   6   7
ATOM      7  C   UNL     1      34.648 -19.093 -22.188  0.00  0.00    +0.001 C 
BRANCH   7   8
ATOM      8  C   UNL     1      34.373 -19.827 -20.874  0.00  0.00    +0.000 C 
ATOM      9  C   UNL     1      32.881 -19.928 -20.599  0.00  0.00    +0.000 C 
ENDBRANCH   7   8
ENDBRANCH   6   7
ENDBRANCH   1   6
BRANCH   1  10
ATOM     10  C   UNL     1      34.927 -15.635 -23.340  0.00  0.00    +0.135 C 
BRANCH  10  12
ATOM     11  O   UNL     1      34.578 -16.952 -25.890  0.00  0.00    -0.263 OA
ATOM     12  N   UNL     1      33.910 -15.380 -24.326  0.00  0.00    -0.164 N 
ATOM     13  C   UNL     1      33.831 -16.061 -25.505  0.00  0.00    +0.327 C 
BRANCH  12  14
ATOM     14  O   UNL     1      33.007 -14.370 -23.965  0.00  0.00    -0.291 OA
ATOM     15  H   UNL     1      32.394 -14.709 -23.294  0.00  0.00    +0.242 HD
ENDBRANCH  12  14
ENDBRANCH  10  12
ENDBRANCH   1  10
TORSDOF 8
ENDMDL
MODEL 6
REMARK VINA RESULT:      -6.0      1.594      2.293
REMARK  Name = 5287843
REMARK  8 active torsions:
REMARK  status: ('A' for Active; 'I' for Inactive)
REMARK    1  A    between atoms: C_1  and  C_3
REMARK    2  A    between atoms: C_1  and  C_6
REMARK    3  A    between atoms: C_1  and  C_10
REMARK    4  A    between atoms: C_3  and  O_4
REMARK    5  A    between atoms: C_6  and  C_7
REMARK    6  A    between atoms: C_7  and  C_8
REMARK    7  A    between atoms: C_10  and  N_12
REMARK    8  A    between atoms: N_12  and  O_14
REMARK                            x       y       z     vdW  Elec       q    Type
REMARK                         _______ _______ _______ _____ _____    ______ ____
ROOT
ATOM      1  C   UNL     1      34.611 -16.930 -22.455  0.00  0.00    +0.121 C 
ENDROOT
BRANCH   1   3
ATOM      2  O   UNL     1      35.018 -16.174 -20.179  0.00  0.00    -0.250 OA
ATOM      3  C   UNL     1      34.723 -15.905 -21.337  0.00  0.00    +0.315 C 
BRANCH   3   4
ATOM      4  O   UNL     1      34.442 -14.642 -21.749  0.00  0.00    -0.480 OA
ATOM      5  H   UNL     1      34.190 -14.485 -22.637  0.00  0.00    +0.295 HD
ENDBRANCH   3   4
ENDBRANCH   1   3
BRANCH   1   6
ATOM      6  C   UNL     1      35.338 -18.224 -22.048  0.00  0.00    +0.013 C 
BRANCH   6   7
ATOM      7  C   UNL     1      34.450 -19.473 -21.985  0.00  0.00    +0.001 C 
BRANCH   7   8
ATOM      8  C   UNL     1      33.378 -19.404 -20.896  0.00  0.00    +0.000 C 
ATOM      9  C   UNL     1      33.309 -20.701 -20.104  0.00  0.00    +0.000 C 
ENDBRANCH   7   8
ENDBRANCH   6   7
ENDBRANCH   1   6
BRANCH   1  10
ATOM     10  C   UNL     1      35.224 -16.356 -23.741  0.00  0.00    +0.135 C 
BRANCH  10  12
ATOM     11  O   UNL     1      33.399 -14.251 -24.517  0.00  0.00    -0.263 OA
ATOM     12  N   UNL     1      34.294 -16.364 -24.839  0.00  0.00    -0.164 N 
ATOM     13  C   UNL     1      33.471 -15.313 -25.124  0.00  0.00    +0.327 C 
BRANCH  12  14
ATOM     14  O   UNL     1      34.309 -17.547 -25.591  0.00  0.00    -0.291 OA
ATOM     15  H   UNL     1      33.562 -18.106 -25.330  0.00  0.00    +0.242 HD
ENDBRANCH  12  14
ENDBRANCH  10  12
ENDBRANCH   1  10
TORSDOF 8
ENDMDL
MODEL 7
REMARK VINA RESULT:      -5.9     10.274     11.799
REMARK  Name = 5287843
REMARK  8 active torsions:
REMARK  status: ('A' for Active; 'I' for Inactive)
REMARK    1  A    between atoms: C_1  and  C_3
REMARK    2  A    between atoms: C_1  and  C_6
REMARK    3  A    between atoms: C_1  and  C_10
REMARK    4  A    between atoms: C_3  and  O_4
REMARK    5  A    between atoms: C_6  and  C_7
REMARK    6  A    between atoms: C_7  and  C_8
REMARK    7  A    between atoms: C_10  and  N_12
REMARK    8  A    between atoms: N_12  and  O_14
REMARK                            x       y       z     vdW  Elec       q    Type
REMARK                         _______ _______ _______ _____ _____    ______ ____
ROOT
ATOM      1  C   UNL     1      38.701 -25.193 -14.208  0.00  0.00    +0.121 C 
ENDROOT
BRANCH   1   3
ATOM      2  O   UNL     1      40.801 -26.381 -13.899  0.00  0.00    -0.250 OA
ATOM      3  C   UNL     1      40.000 -25.846 -14.656  0.00  0.00    +0.315 C 
BRANCH   3   4
ATOM      4  O   UNL     1      40.198 -25.762 -15.996  0.00  0.00    -0.480 OA
ATOM      5  H   UNL     1      39.845 -26.419 -16.563  0.00  0.00    +0.295 HD
ENDBRANCH   3   4
ENDBRANCH   1   3
BRANCH   1   6
ATOM      6  C   UNL     1      38.383 -23.993 -15.116  0.00  0.00    +0.013 C 
BRANCH   6   7
ATOM      7  C   UNL     1      36.892 -23.769 -15.398  0.00  0.00    +0.001 C 
BRANCH   7   8
ATOM      8  C   UNL     1      36.031 -25.008 -15.145  0.00  0.00    +0.000 C 
ATOM      9  C   UNL     1      34.700 -24.639 -14.511  0.00  0.00    +0.000 C 
ENDBRANCH   7   8
ENDBRANCH   6   7
ENDBRANCH   1   6
BRANCH   1  10
ATOM     10  C   UNL     1      38.832 -24.737 -12.748  0.00  0.00    +0.135 C 
BRANCH  10  12
ATOM     11  O   UNL     1      37.383 -22.499 -11.629  0.00  0.00    -0.263 OA
ATOM     12  N   UNL     1      37.572 -24.769 -12.052  0.00  0.00    -0.164 N 
ATOM     13  C   UNL     1      36.967 -23.649 -11.560  0.00  0.00    +0.327 C 
BRANCH  12  14
ATOM     14  O   UNL     1      37.021 -26.052 -11.927  0.00  0.00    -0.291 OA
ATOM     15  H   UNL     1      36.054 -25.994 -11.974  0.00  0.00    +0.242 HD
ENDBRANCH  12  14
ENDBRANCH  10  12
ENDBRANCH   1  10
TORSDOF 8
ENDMDL
MODEL 8
REMARK VINA RESULT:      -5.9      1.790      3.855
REMARK  Name = 5287843
REMARK  8 active torsions:
REMARK  status: ('A' for Active; 'I' for Inactive)
REMARK    1  A    between atoms: C_1  and  C_3
REMARK    2  A    between atoms: C_1  and  C_6
REMARK    3  A    between atoms: C_1  and  C_10
REMARK    4  A    between atoms: C_3  and  O_4
REMARK    5  A    between atoms: C_6  and  C_7
REMARK    6  A    between atoms: C_7  and  C_8
REMARK    7  A    between atoms: C_10  and  N_12
REMARK    8  A    between atoms: N_12  and  O_14
REMARK                            x       y       z     vdW  Elec       q    Type
REMARK                         _______ _______ _______ _____ _____    ______ ____
ROOT
ATOM      1  C   UNL     1      34.922 -16.903 -23.606  0.00  0.00    +0.121 C 
ENDROOT
BRANCH   1   3
ATOM      2  O   UNL     1      34.329 -16.036 -25.801  0.00  0.00    -0.250 OA
ATOM      3  C   UNL     1      34.539 -17.001 -25.075  0.00  0.00    +0.315 C 
BRANCH   3   4
ATOM      4  O   UNL     1      34.435 -18.283 -25.508  0.00  0.00    -0.480 OA
ATOM      5  H   UNL     1      33.747 -18.525 -26.095  0.00  0.00    +0.295 HD
ENDBRANCH   3   4
ENDBRANCH   1   3
BRANCH   1   6
ATOM      6  C   UNL     1      35.026 -18.314 -23.001  0.00  0.00    +0.013 C 
BRANCH   6   7
ATOM      7  C   UNL     1      34.579 -18.426 -21.538  0.00  0.00    +0.001 C 
BRANCH   7   8
ATOM      8  C   UNL     1      34.322 -19.865 -21.088  0.00  0.00    +0.000 C 
ATOM      9  C   UNL     1      32.897 -20.043 -20.589  0.00  0.00    +0.000 C 
ENDBRANCH   7   8
ENDBRANCH   6   7
ENDBRANCH   1   6
BRANCH   1  10
ATOM     10  C   UNL     1      33.868 -16.076 -22.855  0.00  0.00    +0.135 C 
BRANCH  10  12
ATOM     11  O   UNL     1      34.761 -15.340 -20.205  0.00  0.00    -0.263 OA
ATOM     12  N   UNL     1      34.380 -14.801 -22.426  0.00  0.00    -0.164 N 
ATOM     13  C   UNL     1      34.778 -14.553 -21.144  0.00  0.00    +0.327 C 
BRANCH  12  14
ATOM     14  O   UNL     1      34.436 -13.838 -23.442  0.00  0.00    -0.291 OA
ATOM     15  H   UNL     1      34.383 -14.276 -24.306  0.00  0.00    +0.242 HD
ENDBRANCH  12  14
ENDBRANCH  10  12
ENDBRANCH   1  10
TORSDOF 8
ENDMDL
MODEL 9
REMARK VINA RESULT:      -5.9      2.505      5.096
REMARK  Name = 5287843
REMARK  8 active torsions:
REMARK  status: ('A' for Active; 'I' for Inactive)
REMARK    1  A    between atoms: C_1  and  C_3
REMARK    2  A    between atoms: C_1  and  C_6
REMARK    3  A    between atoms: C_1  and  C_10
REMARK    4  A    between atoms: C_3  and  O_4
REMARK    5  A    between atoms: C_6  and  C_7
REMARK    6  A    between atoms: C_7  and  C_8
REMARK    7  A    between atoms: C_10  and  N_12
REMARK    8  A    between atoms: N_12  and  O_14
REMARK                            x       y       z     vdW  Elec       q    Type
REMARK                         _______ _______ _______ _____ _____    ______ ____
ROOT
ATOM      1  C   UNL     1      34.104 -16.137 -23.967  0.00  0.00    +0.121 C 
ENDROOT
BRANCH   1   3
ATOM      2  O   UNL     1      33.754 -15.593 -26.312  0.00  0.00    -0.250 OA
ATOM      3  C   UNL     1      34.125 -16.397 -25.466  0.00  0.00    +0.315 C 
BRANCH   3   4
ATOM      4  O   UNL     1      34.586 -17.635 -25.779  0.00  0.00    -0.480 OA
ATOM      5  H   UNL     1      35.432 -17.734 -26.169  0.00  0.00    +0.295 HD
ENDBRANCH   3   4
ENDBRANCH   1   3
BRANCH   1   6
ATOM      6  C   UNL     1      34.132 -14.622 -23.702  0.00  0.00    +0.013 C 
BRANCH   6   7
ATOM      7  C   UNL     1      33.930 -14.216 -22.237  0.00  0.00    +0.001 C 
BRANCH   7   8
ATOM      8  C   UNL     1      32.543 -14.564 -21.694  0.00  0.00    +0.000 C 
ATOM      9  C   UNL     1      32.606 -14.963 -20.228  0.00  0.00    +0.000 C 
ENDBRANCH   7   8
ENDBRANCH   6   7
ENDBRANCH   1   6
BRANCH   1  10
ATOM     10  C   UNL     1      35.315 -16.816 -23.311  0.00  0.00    +0.135 C 
BRANCH  10  12
ATOM     11  O   UNL     1      35.371 -16.934 -20.423  0.00  0.00    -0.263 OA
ATOM     12  N   UNL     1      34.933 -17.921 -22.472  0.00  0.00    -0.164 N 
ATOM     13  C   UNL     1      34.995 -17.876 -21.110  0.00  0.00    +0.327 C 
BRANCH  12  14
ATOM     14  O   UNL     1      34.488 -19.047 -23.179  0.00  0.00    -0.291 OA
ATOM     15  H   UNL     1      34.303 -18.799 -24.099  0.00  0.00    +0.242 HD
ENDBRANCH  12  14
ENDBRANCH  10  12
ENDBRANCH   1  10
TORSDOF 8
ENDMDL
