MODEL 1
REMARK VINA RESULT:      -9.0      0.000      0.000
REMARK  Name = 16758226
REMARK  5 active torsions:
REMARK  status: ('A' for Active; 'I' for Inactive)
REMARK    1  A    between atoms: C_9  and  C_16
REMARK    2  A    between atoms: C_13  and  C_26
REMARK    3  A    between atoms: C_14  and  O_24
REMARK    4  A    between atoms: C_21  and  O_22
REMARK    5  A    between atoms: C_26  and  O_27
REMARK                            x       y       z     vdW  Elec       q    Type
REMARK                         _______ _______ _______ _____ _____    ______ ____
ROOT
ATOM      1  F   UNL     1      36.941 -22.055 -14.105  0.00  0.00    -0.204 F 
ATOM      2  F   UNL     1      37.554 -23.493 -15.623  0.00  0.00    -0.204 F 
ATOM      3  O   UNL     1      32.690 -22.398 -16.830  0.00  0.00    -0.475 OA
ATOM      4  C   UNL     1      34.948 -23.362 -16.779  0.00  0.00    +0.054 C 
ATOM      5  C   UNL     1      34.568 -24.297 -15.607  0.00  0.00    +0.035 C 
ATOM      6  C   UNL     1      35.660 -22.189 -16.097  0.00  0.00    +0.071 C 
ATOM      7  C   UNL     1      35.555 -23.949 -14.468  0.00  0.00    +0.071 C 
ATOM      8  C   UNL     1      36.483 -22.898 -15.046  0.00  0.00    +0.264 C 
ATOM      9  C   UNL     1      33.724 -22.993 -17.626  0.00  0.00    +0.188 C 
ATOM     10  C   UNL     1      33.130 -24.131 -15.176  0.00  0.00    +0.015 C 
ATOM     11  C   UNL     1      32.287 -23.196 -15.790  0.00  0.00    +0.133 C 
ATOM     12  C   UNL     1      32.613 -24.919 -14.135  0.00  0.00    +0.035 C 
ATOM     13  C   UNL     1      30.978 -23.009 -15.337  0.00  0.00    +0.044 C 
ATOM     14  C   UNL     1      31.299 -24.747 -13.697  0.00  0.00    +0.133 C 
ATOM     15  C   UNL     1      30.485 -23.788 -14.293  0.00  0.00    +0.038 C 
ENDROOT
BRANCH   9  16
ATOM     16  C   UNL     1      34.082 -22.080 -18.783  0.00  0.00    +0.017 C 
ATOM     17  C   UNL     1      35.396 -22.020 -19.247  0.00  0.00    +0.002 C 
ATOM     18  C   UNL     1      33.095 -21.297 -19.383  0.00  0.00    +0.002 C 
ATOM     19  C   UNL     1      35.724 -21.178 -20.309  0.00  0.00    +0.036 C 
ATOM     20  C   UNL     1      33.423 -20.454 -20.445  0.00  0.00    +0.036 C 
ATOM     21  C   UNL     1      34.737 -20.395 -20.909  0.00  0.00    +0.134 C 
BRANCH  21  22
ATOM     22  O   UNL     1      35.057 -19.574 -21.946  0.00  0.00    -0.506 OA
ATOM     23  H   UNL     1      35.855 -19.084 -21.927  0.00  0.00    +0.292 HD
ENDBRANCH  21  22
ENDBRANCH   9  16
BRANCH  14  24
ATOM     24  O   UNL     1      30.817 -25.514 -12.681  0.00  0.00    -0.506 OA
ATOM     25  H   UNL     1      29.966 -25.346 -12.328  0.00  0.00    +0.292 HD
ENDBRANCH  14  24
BRANCH  13  26
ATOM     26  C   UNL     1      30.082 -21.991 -15.965  0.00  0.00    +0.172 C 
BRANCH  26  27
ATOM     27  O   UNL     1      29.453 -22.560 -17.105  0.00  0.00    -0.346 OA
ATOM     28  C   UNL     1      28.050 -22.695 -16.914  0.00  0.00    +0.175 C 
ENDBRANCH  26  27
ENDBRANCH  13  26
TORSDOF 5
ENDMDL
MODEL 2
REMARK VINA RESULT:      -9.0      1.836      5.966
REMARK  Name = 16758226
REMARK  5 active torsions:
REMARK  status: ('A' for Active; 'I' for Inactive)
REMARK    1  A    between atoms: C_9  and  C_16
REMARK    2  A    between atoms: C_13  and  C_26
REMARK    3  A    between atoms: C_14  and  O_24
REMARK    4  A    between atoms: C_21  and  O_22
REMARK    5  A    between atoms: C_26  and  O_27
REMARK                            x       y       z     vdW  Elec       q    Type
REMARK                         _______ _______ _______ _____ _____    ______ ____
ROOT
ATOM      1  F   UNL     1      36.949 -26.294 -15.324  0.00  0.00    -0.204 F 
ATOM      2  F   UNL     1      36.427 -25.186 -13.522  0.00  0.00    -0.204 F 
ATOM      3  O   UNL     1      33.501 -23.083 -17.173  0.00  0.00    -0.475 OA
ATOM      4  C   UNL     1      34.611 -23.593 -15.044  0.00  0.00    +0.054 C 
ATOM      5  C   UNL     1      35.898 -22.861 -15.491  0.00  0.00    +0.035 C 
ATOM      6  C   UNL     1      34.916 -25.070 -15.316  0.00  0.00    +0.071 C 
ATOM      7  C   UNL     1      37.022 -23.921 -15.414  0.00  0.00    +0.071 C 
ATOM      8  C   UNL     1      36.358 -25.173 -14.874  0.00  0.00    +0.264 C 
ATOM      9  C   UNL     1      33.370 -23.032 -15.746  0.00  0.00    +0.188 C 
ATOM     10  C   UNL     1      35.777 -22.268 -16.875  0.00  0.00    +0.015 C 
ATOM     11  C   UNL     1      34.610 -22.422 -17.635  0.00  0.00    +0.133 C 
ATOM     12  C   UNL     1      36.849 -21.551 -17.429  0.00  0.00    +0.035 C 
ATOM     13  C   UNL     1      34.536 -21.924 -18.939  0.00  0.00    +0.044 C 
ATOM     14  C   UNL     1      36.767 -21.035 -18.723  0.00  0.00    +0.133 C 
ATOM     15  C   UNL     1      35.614 -21.227 -19.479  0.00  0.00    +0.038 C 
ENDROOT
BRANCH   9  16
ATOM     16  C   UNL     1      32.098 -23.737 -15.313  0.00  0.00    +0.017 C 
ATOM     17  C   UNL     1      32.025 -24.340 -14.057  0.00  0.00    +0.002 C 
ATOM     18  C   UNL     1      31.001 -23.785 -16.174  0.00  0.00    +0.002 C 
ATOM     19  C   UNL     1      30.857 -24.991 -13.662  0.00  0.00    +0.036 C 
ATOM     20  C   UNL     1      29.832 -24.436 -15.779  0.00  0.00    +0.036 C 
ATOM     21  C   UNL     1      29.760 -25.039 -14.523  0.00  0.00    +0.134 C 
BRANCH  21  22
ATOM     22  O   UNL     1      28.619 -25.673 -14.136  0.00  0.00    -0.506 OA
ATOM     23  H   UNL     1      27.947 -25.852 -14.763  0.00  0.00    +0.292 HD
ENDBRANCH  21  22
ENDBRANCH   9  16
BRANCH  14  24
ATOM     24  O   UNL     1      37.819 -20.349 -19.247  0.00  0.00    -0.506 OA
ATOM     25  H   UNL     1      37.669 -19.595 -19.783  0.00  0.00    +0.292 HD
ENDBRANCH  14  24
BRANCH  13  26
ATOM     26  C   UNL     1      33.306 -22.111 -19.768  0.00  0.00    +0.172 C 
BRANCH  26  27
ATOM     27  O   UNL     1      32.506 -20.939 -19.690  0.00  0.00    -0.346 OA
ATOM     28  C   UNL     1      32.755 -20.064 -20.783  0.00  0.00    +0.175 C 
ENDBRANCH  26  27
ENDBRANCH  13  26
TORSDOF 5
ENDMDL
MODEL 3
REMARK VINA RESULT:      -8.7      8.427     12.305
REMARK  Name = 16758226
REMARK  5 active torsions:
REMARK  status: ('A' for Active; 'I' for Inactive)
REMARK    1  A    between atoms: C_9  and  C_16
REMARK    2  A    between atoms: C_13  and  C_26
REMARK    3  A    between atoms: C_14  and  O_24
REMARK    4  A    between atoms: C_21  and  O_22
REMARK    5  A    between atoms: C_26  and  O_27
REMARK                            x       y       z     vdW  Elec       q    Type
REMARK                         _______ _______ _______ _____ _____    ______ ____
ROOT
ATOM      1  F   UNL     1      35.080 -11.362 -26.128  0.00  0.00    -0.204 F 
ATOM      2  F   UNL     1      32.919 -11.206 -26.368  0.00  0.00    -0.204 F 
ATOM      3  O   UNL     1      33.508 -14.375 -22.377  0.00  0.00    -0.475 OA
ATOM      4  C   UNL     1      32.560 -13.009 -24.183  0.00  0.00    +0.054 C 
ATOM      5  C   UNL     1      32.909 -14.085 -25.238  0.00  0.00    +0.035 C 
ATOM      6  C   UNL     1      33.706 -11.996 -24.300  0.00  0.00    +0.071 C 
ATOM      7  C   UNL     1      33.826 -13.375 -26.262  0.00  0.00    +0.071 C 
ATOM      8  C   UNL     1      33.909 -11.934 -25.797  0.00  0.00    +0.264 C 
ATOM      9  C   UNL     1      32.360 -13.624 -22.794  0.00  0.00    +0.188 C 
ATOM     10  C   UNL     1      33.575 -15.297 -24.630  0.00  0.00    +0.015 C 
ATOM     11  C   UNL     1      33.848 -15.369 -23.259  0.00  0.00    +0.133 C 
ATOM     12  C   UNL     1      33.941 -16.380 -25.446  0.00  0.00    +0.035 C 
ATOM     13  C   UNL     1      34.523 -16.469 -22.722  0.00  0.00    +0.044 C 
ATOM     14  C   UNL     1      34.596 -17.488 -24.906  0.00  0.00    +0.133 C 
ATOM     15  C   UNL     1      34.893 -17.528 -23.546  0.00  0.00    +0.038 C 
ENDROOT
BRANCH   9  16
ATOM     16  C   UNL     1      32.012 -12.580 -21.749  0.00  0.00    +0.017 C 
ATOM     17  C   UNL     1      32.175 -12.867 -20.393  0.00  0.00    +0.002 C 
ATOM     18  C   UNL     1      31.527 -11.333 -22.145  0.00  0.00    +0.002 C 
ATOM     19  C   UNL     1      31.852 -11.907 -19.433  0.00  0.00    +0.036 C 
ATOM     20  C   UNL     1      31.205 -10.373 -21.184  0.00  0.00    +0.036 C 
ATOM     21  C   UNL     1      31.367 -10.660 -19.829  0.00  0.00    +0.134 C 
BRANCH  21  22
ATOM     22  O   UNL     1      31.053  -9.724 -18.892  0.00  0.00    -0.506 OA
ATOM     23  H   UNL     1      30.660  -9.984 -18.083  0.00  0.00    +0.292 HD
ENDBRANCH  21  22
ENDBRANCH   9  16
BRANCH  14  24
ATOM     24  O   UNL     1      34.951 -18.525 -25.713  0.00  0.00    -0.506 OA
ATOM     25  H   UNL     1      34.395 -19.276 -25.785  0.00  0.00    +0.292 HD
ENDBRANCH  14  24
BRANCH  13  26
ATOM     26  C   UNL     1      34.847 -16.539 -21.264  0.00  0.00    +0.172 C 
BRANCH  26  27
ATOM     27  O   UNL     1      35.275 -17.856 -20.943  0.00  0.00    -0.346 OA
ATOM     28  C   UNL     1      34.182 -18.765 -20.905  0.00  0.00    +0.175 C 
ENDBRANCH  26  27
ENDBRANCH  13  26
TORSDOF 5
ENDMDL
MODEL 4
REMARK VINA RESULT:      -8.5      8.832     11.906
REMARK  Name = 16758226
REMARK  5 active torsions:
REMARK  status: ('A' for Active; 'I' for Inactive)
REMARK    1  A    between atoms: C_9  and  C_16
REMARK    2  A    between atoms: C_13  and  C_26
REMARK    3  A    between atoms: C_14  and  O_24
REMARK    4  A    between atoms: C_21  and  O_22
REMARK    5  A    between atoms: C_26  and  O_27
REMARK                            x       y       z     vdW  Elec       q    Type
REMARK                         _______ _______ _______ _____ _____    ______ ____
ROOT
ATOM      1  F   UNL     1      31.469 -15.808 -19.783  0.00  0.00    -0.204 F 
ATOM      2  F   UNL     1      33.181 -14.621 -19.146  0.00  0.00    -0.204 F 
ATOM      3  O   UNL     1      33.118 -14.087 -24.248  0.00  0.00    -0.475 OA
ATOM      4  C   UNL     1      33.724 -13.967 -21.872  0.00  0.00    +0.054 C 
ATOM      5  C   UNL     1      34.333 -15.387 -21.912  0.00  0.00    +0.035 C 
ATOM      6  C   UNL     1      32.323 -14.186 -21.289  0.00  0.00    +0.071 C 
ATOM      7  C   UNL     1      33.554 -16.200 -20.850  0.00  0.00    +0.071 C 
ATOM      8  C   UNL     1      32.595 -15.213 -20.213  0.00  0.00    +0.264 C 
ATOM      9  C   UNL     1      33.771 -13.294 -23.248  0.00  0.00    +0.188 C 
ATOM     10  C   UNL     1      34.244 -16.018 -23.281  0.00  0.00    +0.015 C 
ATOM     11  C   UNL     1      33.637 -15.352 -24.353  0.00  0.00    +0.133 C 
ATOM     12  C   UNL     1      34.770 -17.302 -23.499  0.00  0.00    +0.035 C 
ATOM     13  C   UNL     1      33.505 -15.974 -25.598  0.00  0.00    +0.044 C 
ATOM     14  C   UNL     1      34.656 -17.915 -24.748  0.00  0.00    +0.133 C 
ATOM     15  C   UNL     1      34.018 -17.254 -25.794  0.00  0.00    +0.038 C 
ENDROOT
BRANCH   9  16
ATOM     16  C   UNL     1      33.179 -11.896 -23.223  0.00  0.00    +0.017 C 
ATOM     17  C   UNL     1      32.041 -11.632 -22.462  0.00  0.00    +0.002 C 
ATOM     18  C   UNL     1      33.774 -10.875 -23.966  0.00  0.00    +0.002 C 
ATOM     19  C   UNL     1      31.497 -10.347 -22.442  0.00  0.00    +0.036 C 
ATOM     20  C   UNL     1      33.230  -9.591 -23.947  0.00  0.00    +0.036 C 
ATOM     21  C   UNL     1      32.091  -9.327 -23.185  0.00  0.00    +0.134 C 
BRANCH  21  22
ATOM     22  O   UNL     1      31.561  -8.074 -23.166  0.00  0.00    -0.506 OA
ATOM     23  H   UNL     1      30.664  -7.949 -22.927  0.00  0.00    +0.292 HD
ENDBRANCH  21  22
ENDBRANCH   9  16
BRANCH  14  24
ATOM     24  O   UNL     1      35.164 -19.163 -24.939  0.00  0.00    -0.506 OA
ATOM     25  H   UNL     1      34.838 -19.885 -24.438  0.00  0.00    +0.292 HD
ENDBRANCH  14  24
BRANCH  13  26
ATOM     26  C   UNL     1      32.830 -15.283 -26.738  0.00  0.00    +0.172 C 
BRANCH  26  27
ATOM     27  O   UNL     1      33.774 -14.460 -27.412  0.00  0.00    -0.346 OA
ATOM     28  C   UNL     1      33.422 -13.085 -27.327  0.00  0.00    +0.175 C 
ENDBRANCH  26  27
ENDBRANCH  13  26
TORSDOF 5
ENDMDL
MODEL 5
REMARK VINA RESULT:      -8.5     12.099     15.058
REMARK  Name = 16758226
REMARK  5 active torsions:
REMARK  status: ('A' for Active; 'I' for Inactive)
REMARK    1  A    between atoms: C_9  and  C_16
REMARK    2  A    between atoms: C_13  and  C_26
REMARK    3  A    between atoms: C_14  and  O_24
REMARK    4  A    between atoms: C_21  and  O_22
REMARK    5  A    between atoms: C_26  and  O_27
REMARK                            x       y       z     vdW  Elec       q    Type
REMARK                         _______ _______ _______ _____ _____    ______ ____
ROOT
ATOM      1  F   UNL     1      36.368  -9.962 -24.469  0.00  0.00    -0.204 F 
ATOM      2  F   UNL     1      35.007  -9.618 -26.135  0.00  0.00    -0.204 F 
ATOM      3  O   UNL     1      31.966  -9.552 -22.005  0.00  0.00    -0.475 OA
ATOM      4  C   UNL     1      32.817  -9.513 -24.307  0.00  0.00    +0.054 C 
ATOM      5  C   UNL     1      32.947 -11.053 -24.331  0.00  0.00    +0.035 C 
ATOM      6  C   UNL     1      34.238  -9.030 -23.996  0.00  0.00    +0.071 C 
ATOM      7  C   UNL     1      34.437 -11.336 -24.632  0.00  0.00    +0.071 C 
ATOM      8  C   UNL     1      35.073  -9.974 -24.831  0.00  0.00    +0.264 C 
ATOM      9  C   UNL     1      31.731  -9.052 -23.329  0.00  0.00    +0.188 C 
ATOM     10  C   UNL     1      32.503 -11.692 -23.036  0.00  0.00    +0.015 C 
ATOM     11  C   UNL     1      32.059 -10.919 -21.956  0.00  0.00    +0.133 C 
ATOM     12  C   UNL     1      32.536 -13.089 -22.893  0.00  0.00    +0.035 C 
ATOM     13  C   UNL     1      31.712 -11.520 -20.742  0.00  0.00    +0.044 C 
ATOM     14  C   UNL     1      32.170 -13.690 -21.688  0.00  0.00    +0.133 C 
ATOM     15  C   UNL     1      31.766 -12.906 -20.612  0.00  0.00    +0.038 C 
ENDROOT
BRANCH   9  16
ATOM     16  C   UNL     1      31.589  -7.542 -23.298  0.00  0.00    +0.017 C 
ATOM     17  C   UNL     1      31.846  -6.839 -22.121  0.00  0.00    +0.002 C 
ATOM     18  C   UNL     1      31.197  -6.856 -24.448  0.00  0.00    +0.002 C 
ATOM     19  C   UNL     1      31.712  -5.451 -22.093  0.00  0.00    +0.036 C 
ATOM     20  C   UNL     1      31.063  -5.468 -24.421  0.00  0.00    +0.036 C 
ATOM     21  C   UNL     1      31.320  -4.765 -23.243  0.00  0.00    +0.134 C 
BRANCH  21  22
ATOM     22  O   UNL     1      31.191  -3.410 -23.216  0.00  0.00    -0.506 OA
ATOM     23  H   UNL     1      31.887  -2.880 -22.883  0.00  0.00    +0.292 HD
ENDBRANCH  21  22
ENDBRANCH   9  16
BRANCH  14  24
ATOM     24  O   UNL     1      32.217 -15.045 -21.566  0.00  0.00    -0.506 OA
ATOM     25  H   UNL     1      31.476 -15.565 -21.806  0.00  0.00    +0.292 HD
ENDBRANCH  14  24
BRANCH  13  26
ATOM     26  C   UNL     1      31.268 -10.701 -19.574  0.00  0.00    +0.172 C 
BRANCH  26  27
ATOM     27  O   UNL     1      32.363  -9.928 -19.100  0.00  0.00    -0.346 OA
ATOM     28  C   UNL     1      32.056  -8.540 -19.091  0.00  0.00    +0.175 C 
ENDBRANCH  26  27
ENDBRANCH  13  26
TORSDOF 5
ENDMDL
MODEL 6
REMARK VINA RESULT:      -8.4     14.022     17.853
REMARK  Name = 16758226
REMARK  5 active torsions:
REMARK  status: ('A' for Active; 'I' for Inactive)
REMARK    1  A    between atoms: C_9  and  C_16
REMARK    2  A    between atoms: C_13  and  C_26
REMARK    3  A    between atoms: C_14  and  O_24
REMARK    4  A    between atoms: C_21  and  O_22
REMARK    5  A    between atoms: C_26  and  O_27
REMARK                            x       y       z     vdW  Elec       q    Type
REMARK                         _______ _______ _______ _____ _____    ______ ____
ROOT
ATOM      1  F   UNL     1      33.113  -6.500 -19.319  0.00  0.00    -0.204 F 
ATOM      2  F   UNL     1      31.335  -7.753 -19.449  0.00  0.00    -0.204 F 
ATOM      3  O   UNL     1      32.980  -7.412 -24.296  0.00  0.00    -0.475 OA
ATOM      4  C   UNL     1      31.680  -7.926 -22.277  0.00  0.00    +0.054 C 
ATOM      5  C   UNL     1      31.058  -6.510 -22.267  0.00  0.00    +0.035 C 
ATOM      6  C   UNL     1      32.825  -7.830 -21.263  0.00  0.00    +0.071 C 
ATOM      7  C   UNL     1      31.442  -5.902 -20.897  0.00  0.00    +0.071 C 
ATOM      8  C   UNL     1      32.197  -6.996 -20.169  0.00  0.00    +0.264 C 
ATOM      9  C   UNL     1      32.083  -8.354 -23.692  0.00  0.00    +0.188 C 
ATOM     10  C   UNL     1      31.538  -5.657 -23.417  0.00  0.00    +0.015 C 
ATOM     11  C   UNL     1      32.470  -6.140 -24.345  0.00  0.00    +0.133 C 
ATOM     12  C   UNL     1      31.056  -4.347 -23.570  0.00  0.00    +0.035 C 
ATOM     13  C   UNL     1      32.953  -5.317 -25.366  0.00  0.00    +0.044 C 
ATOM     14  C   UNL     1      31.523  -3.532 -24.602  0.00  0.00    +0.133 C 
ATOM     15  C   UNL     1      32.477  -4.015 -25.495  0.00  0.00    +0.038 C 
ENDROOT
BRANCH   9  16
ATOM     16  C   UNL     1      32.692  -9.744 -23.720  0.00  0.00    +0.017 C 
ATOM     17  C   UNL     1      33.812 -10.001 -24.510  0.00  0.00    +0.002 C 
ATOM     18  C   UNL     1      32.128 -10.766 -22.955  0.00  0.00    +0.002 C 
ATOM     19  C   UNL     1      34.369 -11.280 -24.536  0.00  0.00    +0.036 C 
ATOM     20  C   UNL     1      32.685 -12.045 -22.982  0.00  0.00    +0.036 C 
ATOM     21  C   UNL     1      33.805 -12.302 -23.772  0.00  0.00    +0.134 C 
BRANCH  21  22
ATOM     22  O   UNL     1      34.349 -13.550 -23.797  0.00  0.00    -0.506 OA
ATOM     23  H   UNL     1      33.848 -14.286 -23.508  0.00  0.00    +0.292 HD
ENDBRANCH  21  22
ENDBRANCH   9  16
BRANCH  14  24
ATOM     24  O   UNL     1      31.051  -2.262 -24.730  0.00  0.00    -0.506 OA
ATOM     25  H   UNL     1      31.391  -1.578 -24.189  0.00  0.00    +0.292 HD
ENDBRANCH  14  24
BRANCH  13  26
ATOM     26  C   UNL     1      33.971  -5.815 -26.341  0.00  0.00    +0.172 C 
BRANCH  26  27
ATOM     27  O   UNL     1      34.266  -4.786 -27.276  0.00  0.00    -0.346 OA
ATOM     28  C   UNL     1      35.664  -4.680 -27.511  0.00  0.00    +0.175 C 
ENDBRANCH  26  27
ENDBRANCH  13  26
TORSDOF 5
ENDMDL
MODEL 7
REMARK VINA RESULT:      -8.3     10.284     13.992
REMARK  Name = 16758226
REMARK  5 active torsions:
REMARK  status: ('A' for Active; 'I' for Inactive)
REMARK    1  A    between atoms: C_9  and  C_16
REMARK    2  A    between atoms: C_13  and  C_26
REMARK    3  A    between atoms: C_14  and  O_24
REMARK    4  A    between atoms: C_21  and  O_22
REMARK    5  A    between atoms: C_26  and  O_27
REMARK                            x       y       z     vdW  Elec       q    Type
REMARK                         _______ _______ _______ _____ _____    ______ ____
ROOT
ATOM      1  F   UNL     1      36.913 -10.191 -25.660  0.00  0.00    -0.204 F 
ATOM      2  F   UNL     1      35.190  -9.062 -26.369  0.00  0.00    -0.204 F 
ATOM      3  O   UNL     1      33.258 -12.158 -22.764  0.00  0.00    -0.475 OA
ATOM      4  C   UNL     1      33.518 -10.505 -24.560  0.00  0.00    +0.054 C 
ATOM      5  C   UNL     1      33.616 -11.618 -25.629  0.00  0.00    +0.035 C 
ATOM      6  C   UNL     1      34.979 -10.129 -24.288  0.00  0.00    +0.071 C 
ATOM      7  C   UNL     1      34.982 -11.405 -26.321  0.00  0.00    +0.071 C 
ATOM      8  C   UNL     1      35.569 -10.163 -25.679  0.00  0.00    +0.264 C 
ATOM      9  C   UNL     1      32.713 -10.963 -23.340  0.00  0.00    +0.188 C 
ATOM     10  C   UNL     1      33.494 -13.003 -25.036  0.00  0.00    +0.015 C 
ATOM     11  C   UNL     1      33.340 -13.195 -23.658  0.00  0.00    +0.133 C 
ATOM     12  C   UNL     1      33.541 -14.131 -25.871  0.00  0.00    +0.035 C 
ATOM     13  C   UNL     1      33.294 -14.483 -23.117  0.00  0.00    +0.044 C 
ATOM     14  C   UNL     1      33.474 -15.417 -25.333  0.00  0.00    +0.133 C 
ATOM     15  C   UNL     1      33.358 -15.592 -23.957  0.00  0.00    +0.038 C 
ENDROOT
BRANCH   9  16
ATOM     16  C   UNL     1      32.604  -9.878 -22.284  0.00  0.00    +0.017 C 
ATOM     17  C   UNL     1      32.989  -8.571 -22.582  0.00  0.00    +0.002 C 
ATOM     18  C   UNL     1      32.121 -10.190 -21.012  0.00  0.00    +0.002 C 
ATOM     19  C   UNL     1      32.892  -7.576 -21.609  0.00  0.00    +0.036 C 
ATOM     20  C   UNL     1      32.024  -9.195 -20.040  0.00  0.00    +0.036 C 
ATOM     21  C   UNL     1      32.409  -7.888 -20.338  0.00  0.00    +0.134 C 
BRANCH  21  22
ATOM     22  O   UNL     1      32.313  -6.916 -19.390  0.00  0.00    -0.506 OA
ATOM     23  H   UNL     1      31.762  -6.173 -19.534  0.00  0.00    +0.292 HD
ENDBRANCH  21  22
ENDBRANCH   9  16
BRANCH  14  24
ATOM     24  O   UNL     1      33.530 -16.500 -26.156  0.00  0.00    -0.506 OA
ATOM     25  H   UNL     1      34.037 -17.249 -25.914  0.00  0.00    +0.292 HD
ENDBRANCH  14  24
BRANCH  13  26
ATOM     26  C   UNL     1      33.162 -14.698 -21.644  0.00  0.00    +0.172 C 
BRANCH  26  27
ATOM     27  O   UNL     1      34.457 -14.784 -21.065  0.00  0.00    -0.346 OA
ATOM     28  C   UNL     1      34.742 -16.103 -20.618  0.00  0.00    +0.175 C 
ENDBRANCH  26  27
ENDBRANCH  13  26
TORSDOF 5
ENDMDL
MODEL 8
REMARK VINA RESULT:      -8.2      1.573      2.086
REMARK  Name = 16758226
REMARK  5 active torsions:
REMARK  status: ('A' for Active; 'I' for Inactive)
REMARK    1  A    between atoms: C_9  and  C_16
REMARK    2  A    between atoms: C_13  and  C_26
REMARK    3  A    between atoms: C_14  and  O_24
REMARK    4  A    between atoms: C_21  and  O_22
REMARK    5  A    between atoms: C_26  and  O_27
REMARK                            x       y       z     vdW  Elec       q    Type
REMARK                         _______ _______ _______ _____ _____    ______ ____
ROOT
ATOM      1  F   UNL     1      34.720 -23.106 -12.631  0.00  0.00    -0.204 F 
ATOM      2  F   UNL     1      35.755 -24.541 -13.904  0.00  0.00    -0.204 F 
ATOM      3  O   UNL     1      31.877 -22.863 -16.811  0.00  0.00    -0.475 OA
ATOM      4  C   UNL     1      33.838 -24.074 -15.967  0.00  0.00    +0.054 C 
ATOM      5  C   UNL     1      32.948 -25.007 -15.114  0.00  0.00    +0.035 C 
ATOM      6  C   UNL     1      34.322 -23.016 -14.968  0.00  0.00    +0.071 C 
ATOM      7  C   UNL     1      33.432 -24.818 -13.657  0.00  0.00    +0.071 C 
ATOM      8  C   UNL     1      34.599 -23.855 -13.742  0.00  0.00    +0.264 C 
ATOM      9  C   UNL     1      33.085 -23.536 -17.189  0.00  0.00    +0.188 C 
ATOM     10  C   UNL     1      31.476 -24.700 -15.263  0.00  0.00    +0.015 C 
ATOM     11  C   UNL     1      31.029 -23.652 -16.077  0.00  0.00    +0.133 C 
ATOM     12  C   UNL     1      30.525 -25.467 -14.572  0.00  0.00    +0.035 C 
ATOM     13  C   UNL     1      29.668 -23.339 -16.155  0.00  0.00    +0.044 C 
ATOM     14  C   UNL     1      29.165 -25.167 -14.666  0.00  0.00    +0.133 C 
ATOM     15  C   UNL     1      28.738 -24.100 -15.451  0.00  0.00    +0.038 C 
ENDROOT
BRANCH   9  16
ATOM     16  C   UNL     1      33.948 -22.622 -18.038  0.00  0.00    +0.017 C 
ATOM     17  C   UNL     1      33.373 -21.871 -19.063  0.00  0.00    +0.002 C 
ATOM     18  C   UNL     1      35.320 -22.535 -17.796  0.00  0.00    +0.002 C 
ATOM     19  C   UNL     1      34.167 -21.033 -19.846  0.00  0.00    +0.036 C 
ATOM     20  C   UNL     1      36.114 -21.697 -18.578  0.00  0.00    +0.036 C 
ATOM     21  C   UNL     1      35.539 -20.946 -19.603  0.00  0.00    +0.134 C 
BRANCH  21  22
ATOM     22  O   UNL     1      36.314 -20.128 -20.366  0.00  0.00    -0.506 OA
ATOM     23  H   UNL     1      37.029 -19.664 -19.978  0.00  0.00    +0.292 HD
ENDBRANCH  21  22
ENDBRANCH   9  16
BRANCH  14  24
ATOM     24  O   UNL     1      28.257 -25.916 -13.982  0.00  0.00    -0.506 OA
ATOM     25  H   UNL     1      27.350 -25.681 -13.993  0.00  0.00    +0.292 HD
ENDBRANCH  14  24
BRANCH  13  26
ATOM     26  C   UNL     1      29.185 -22.202 -16.997  0.00  0.00    +0.172 C 
BRANCH  26  27
ATOM     27  O   UNL     1      27.914 -21.778 -16.525  0.00  0.00    -0.346 OA
ATOM     28  C   UNL     1      26.904 -21.964 -17.508  0.00  0.00    +0.175 C 
ENDBRANCH  26  27
ENDBRANCH  13  26
TORSDOF 5
ENDMDL
MODEL 9
REMARK VINA RESULT:      -8.1      3.143      5.167
REMARK  Name = 16758226
REMARK  5 active torsions:
REMARK  status: ('A' for Active; 'I' for Inactive)
REMARK    1  A    between atoms: C_9  and  C_16
REMARK    2  A    between atoms: C_13  and  C_26
REMARK    3  A    between atoms: C_14  and  O_24
REMARK    4  A    between atoms: C_21  and  O_22
REMARK    5  A    between atoms: C_26  and  O_27
REMARK                            x       y       z     vdW  Elec       q    Type
REMARK                         _______ _______ _______ _____ _____    ______ ____
ROOT
ATOM      1  F   UNL     1      30.861 -25.024 -15.767  0.00  0.00    -0.204 F 
ATOM      2  F   UNL     1      30.740 -22.851 -15.661  0.00  0.00    -0.204 F 
ATOM      3  O   UNL     1      35.777 -23.821 -15.702  0.00  0.00    -0.475 OA
ATOM      4  C   UNL     1      33.591 -22.708 -15.606  0.00  0.00    +0.054 C 
ATOM      5  C   UNL     1      33.410 -23.098 -14.121  0.00  0.00    +0.035 C 
ATOM      6  C   UNL     1      32.784 -23.769 -16.364  0.00  0.00    +0.071 C 
ATOM      7  C   UNL     1      32.101 -23.921 -14.067  0.00  0.00    +0.071 C 
ATOM      8  C   UNL     1      31.562 -23.912 -15.485  0.00  0.00    +0.264 C 
ATOM      9  C   UNL     1      35.072 -22.606 -15.987  0.00  0.00    +0.188 C 
ATOM     10  C   UNL     1      34.586 -23.876 -13.578  0.00  0.00    +0.015 C 
ATOM     11  C   UNL     1      35.681 -24.203 -14.389  0.00  0.00    +0.133 C 
ATOM     12  C   UNL     1      34.595 -24.292 -12.237  0.00  0.00    +0.035 C 
ATOM     13  C   UNL     1      36.732 -24.978 -13.890  0.00  0.00    +0.044 C 
ATOM     14  C   UNL     1      35.655 -25.048 -11.734  0.00  0.00    +0.133 C 
ATOM     15  C   UNL     1      36.718 -25.396 -12.562  0.00  0.00    +0.038 C 
ENDROOT
BRANCH   9  16
ATOM     16  C   UNL     1      35.265 -22.219 -17.442  0.00  0.00    +0.017 C 
ATOM     17  C   UNL     1      36.478 -21.678 -17.866  0.00  0.00    +0.002 C 
ATOM     18  C   UNL     1      34.226 -22.403 -18.355  0.00  0.00    +0.002 C 
ATOM     19  C   UNL     1      36.654 -21.320 -19.203  0.00  0.00    +0.036 C 
ATOM     20  C   UNL     1      34.402 -22.045 -19.692  0.00  0.00    +0.036 C 
ATOM     21  C   UNL     1      35.615 -21.504 -20.116  0.00  0.00    +0.134 C 
BRANCH  21  22
ATOM     22  O   UNL     1      35.787 -21.156 -21.420  0.00  0.00    -0.506 OA
ATOM     23  H   UNL     1      36.573 -20.723 -21.690  0.00  0.00    +0.292 HD
ENDBRANCH  21  22
ENDBRANCH   9  16
BRANCH  14  24
ATOM     24  O   UNL     1      35.643 -25.450 -10.433  0.00  0.00    -0.506 OA
ATOM     25  H   UNL     1      35.420 -24.843  -9.756  0.00  0.00    +0.292 HD
ENDBRANCH  14  24
BRANCH  13  26
ATOM     26  C   UNL     1      37.888 -25.359 -14.757  0.00  0.00    +0.172 C 
BRANCH  26  27
ATOM     27  O   UNL     1      39.052 -24.675 -14.313  0.00  0.00    -0.346 OA
ATOM     28  C   UNL     1      40.181 -25.538 -14.275  0.00  0.00    +0.175 C 
ENDBRANCH  26  27
ENDBRANCH  13  26
TORSDOF 5
ENDMDL
