MODEL 1
REMARK VINA RESULT:      -7.2      0.000      0.000
REMARK  Name = 126747
REMARK  5 active torsions:
REMARK  status: ('A' for Active; 'I' for Inactive)
REMARK    1  A    between atoms: P_1  and  O_14
REMARK    2  A    between atoms: P_2  and  O_16
REMARK    3  A    between atoms: C_8  and  C_18
REMARK    4  A    between atoms: C_9  and  O_12
REMARK    5  A    between atoms: C_18  and  O_19
REMARK                            x       y       z     vdW  Elec       q    Type
REMARK                         _______ _______ _______ _____ _____    ______ ____
ROOT
ATOM      1  P   UNL     1      37.319 -23.639 -15.346  0.00  0.00    +0.484 P 
ATOM      2  P   UNL     1      39.646 -25.266 -14.628  0.00  0.00    +0.484 P 
ATOM      3  O   UNL     1      37.332 -23.117 -13.815  0.00  0.00    -0.273 OA
ATOM      4  O   UNL     1      39.426 -24.849 -13.080  0.00  0.00    -0.270 OA
ATOM      5  O   UNL     1      38.209 -24.988 -15.312  0.00  0.00    -0.186 OA
ATOM      6  O   UNL     1      35.970 -23.777 -15.989  0.00  0.00    -0.227 OA
ATOM      7  O   UNL     1      40.799 -24.570 -15.289  0.00  0.00    -0.227 OA
ATOM      8  C   UNL     1      36.623 -23.751 -12.744  0.00  0.00    +0.157 C 
ATOM      9  C   UNL     1      37.021 -25.244 -12.584  0.00  0.00    +0.168 C 
ATOM     10  C   UNL     1      38.494 -25.515 -12.246  0.00  0.00    +0.185 C 
ATOM     11  C   UNL     1      36.977 -22.943 -11.485  0.00  0.00    +0.035 C 
ENDROOT
BRANCH   9  12
ATOM     12  O   UNL     1      36.252 -25.865 -11.550  0.00  0.00    -0.379 OA
ATOM     13  H   UNL     1      35.330 -25.953 -11.843  0.00  0.00    +0.211 HD
ENDBRANCH   9  12
BRANCH   1  14
ATOM     14  O   UNL     1      38.295 -22.580 -16.084  0.00  0.00    -0.302 OA
ATOM     15  H   UNL     1      38.074 -22.539 -17.027  0.00  0.00    +0.222 HD
ENDBRANCH   1  14
BRANCH   2  16
ATOM     16  O   UNL     1      39.757 -26.878 -14.606  0.00  0.00    -0.302 OA
ATOM     17  H   UNL     1      38.883 -27.261 -14.436  0.00  0.00    +0.222 HD
ENDBRANCH   2  16
BRANCH   8  18
ATOM     18  C   UNL     1      35.114 -23.596 -12.988  0.00  0.00    +0.167 C 
BRANCH  18  19
ATOM     19  O   UNL     1      34.614 -24.836 -13.444  0.00  0.00    -0.379 OA
ATOM     20  H   UNL     1      34.714 -24.890 -14.407  0.00  0.00    +0.211 HD
ENDBRANCH  18  19
ENDBRANCH   8  18
TORSDOF 5
ENDMDL
MODEL 2
REMARK VINA RESULT:      -6.7      2.176      3.638
REMARK  Name = 126747
REMARK  5 active torsions:
REMARK  status: ('A' for Active; 'I' for Inactive)
REMARK    1  A    between atoms: P_1  and  O_14
REMARK    2  A    between atoms: P_2  and  O_16
REMARK    3  A    between atoms: C_8  and  C_18
REMARK    4  A    between atoms: C_9  and  O_12
REMARK    5  A    between atoms: C_18  and  O_19
REMARK                            x       y       z     vdW  Elec       q    Type
REMARK                         _______ _______ _______ _____ _____    ______ ____
ROOT
ATOM      1  P   UNL     1      38.459 -25.402 -14.023  0.00  0.00    +0.484 P 
ATOM      2  P   UNL     1      37.699 -23.685 -11.775  0.00  0.00    +0.484 P 
ATOM      3  O   UNL     1      37.485 -24.482 -14.929  0.00  0.00    -0.273 OA
ATOM      4  O   UNL     1      36.592 -22.981 -12.723  0.00  0.00    -0.270 OA
ATOM      5  O   UNL     1      37.994 -25.096 -12.506  0.00  0.00    -0.186 OA
ATOM      6  O   UNL     1      38.533 -26.855 -14.390  0.00  0.00    -0.227 OA
ATOM      7  O   UNL     1      38.916 -22.843 -11.529  0.00  0.00    -0.227 OA
ATOM      8  C   UNL     1      36.092 -24.745 -15.133  0.00  0.00    +0.157 C 
ATOM      9  C   UNL     1      35.311 -24.825 -13.792  0.00  0.00    +0.168 C 
ATOM     10  C   UNL     1      35.313 -23.551 -12.936  0.00  0.00    +0.185 C 
ATOM     11  C   UNL     1      35.581 -23.588 -16.006  0.00  0.00    +0.035 C 
ENDROOT
BRANCH   9  12
ATOM     12  O   UNL     1      33.938 -25.151 -14.024  0.00  0.00    -0.379 OA
ATOM     13  H   UNL     1      33.658 -25.835 -13.394  0.00  0.00    +0.211 HD
ENDBRANCH   9  12
BRANCH   1  14
ATOM     14  O   UNL     1      39.874 -24.624 -14.132  0.00  0.00    -0.302 OA
ATOM     15  H   UNL     1      40.180 -24.637 -15.051  0.00  0.00    +0.222 HD
ENDBRANCH   1  14
BRANCH   2  16
ATOM     16  O   UNL     1      36.889 -24.104 -10.440  0.00  0.00    -0.302 OA
ATOM     17  H   UNL     1      37.478 -24.043  -9.672  0.00  0.00    +0.222 HD
ENDBRANCH   2  16
BRANCH   8  18
ATOM     18  C   UNL     1      35.945 -26.042 -15.945  0.00  0.00    +0.167 C 
BRANCH  18  19
ATOM     19  O   UNL     1      35.824 -27.117 -15.037  0.00  0.00    -0.379 OA
ATOM     20  H   UNL     1      34.940 -27.107 -14.640  0.00  0.00    +0.211 HD
ENDBRANCH  18  19
ENDBRANCH   8  18
TORSDOF 5
ENDMDL
MODEL 3
REMARK VINA RESULT:      -6.6      2.353      3.971
REMARK  Name = 126747
REMARK  5 active torsions:
REMARK  status: ('A' for Active; 'I' for Inactive)
REMARK    1  A    between atoms: P_1  and  O_14
REMARK    2  A    between atoms: P_2  and  O_16
REMARK    3  A    between atoms: C_8  and  C_18
REMARK    4  A    between atoms: C_9  and  O_12
REMARK    5  A    between atoms: C_18  and  O_19
REMARK                            x       y       z     vdW  Elec       q    Type
REMARK                         _______ _______ _______ _____ _____    ______ ____
ROOT
ATOM      1  P   UNL     1      35.216 -23.865 -13.425  0.00  0.00    +0.484 P 
ATOM      2  P   UNL     1      37.416 -23.150 -11.630  0.00  0.00    +0.484 P 
ATOM      3  O   UNL     1      35.789 -25.377 -13.368  0.00  0.00    -0.273 OA
ATOM      4  O   UNL     1      38.024 -24.637 -11.826  0.00  0.00    -0.270 OA
ATOM      5  O   UNL     1      36.447 -22.955 -12.908  0.00  0.00    -0.186 OA
ATOM      6  O   UNL     1      34.603 -23.435 -14.726  0.00  0.00    -0.227 OA
ATOM      7  O   UNL     1      36.751 -22.933 -10.302  0.00  0.00    -0.227 OA
ATOM      8  C   UNL     1      36.767 -25.900 -14.275  0.00  0.00    +0.157 C 
ATOM      9  C   UNL     1      38.071 -25.055 -14.277  0.00  0.00    +0.168 C 
ATOM     10  C   UNL     1      38.825 -24.981 -12.942  0.00  0.00    +0.185 C 
ATOM     11  C   UNL     1      37.035 -27.337 -13.802  0.00  0.00    +0.035 C 
ENDROOT
BRANCH   9  12
ATOM     12  O   UNL     1      39.002 -25.564 -15.236  0.00  0.00    -0.379 OA
ATOM     13  H   UNL     1      38.517 -25.991 -15.961  0.00  0.00    +0.211 HD
ENDBRANCH   9  12
BRANCH   1  14
ATOM     14  O   UNL     1      34.191 -23.834 -12.172  0.00  0.00    -0.302 OA
ATOM     15  H   UNL     1      34.668 -23.567 -11.372  0.00  0.00    +0.222 HD
ENDBRANCH   1  14
BRANCH   2  16
ATOM     16  O   UNL     1      38.656 -22.158 -11.931  0.00  0.00    -0.302 OA
ATOM     17  H   UNL     1      39.241 -22.561 -12.590  0.00  0.00    +0.222 HD
ENDBRANCH   2  16
BRANCH   8  18
ATOM     18  C   UNL     1      36.149 -25.979 -15.680  0.00  0.00    +0.167 C 
BRANCH  18  19
ATOM     19  O   UNL     1      36.658 -27.131 -16.319  0.00  0.00    -0.379 OA
ATOM     20  H   UNL     1      36.258 -27.922 -15.927  0.00  0.00    +0.211 HD
ENDBRANCH  18  19
ENDBRANCH   8  18
TORSDOF 5
ENDMDL
MODEL 4
REMARK VINA RESULT:      -6.5      2.287      4.270
REMARK  Name = 126747
REMARK  5 active torsions:
REMARK  status: ('A' for Active; 'I' for Inactive)
REMARK    1  A    between atoms: P_1  and  O_14
REMARK    2  A    between atoms: P_2  and  O_16
REMARK    3  A    between atoms: C_8  and  C_18
REMARK    4  A    between atoms: C_9  and  O_12
REMARK    5  A    between atoms: C_18  and  O_19
REMARK                            x       y       z     vdW  Elec       q    Type
REMARK                         _______ _______ _______ _____ _____    ______ ____
ROOT
ATOM      1  P   UNL     1      38.418 -24.250 -12.572  0.00  0.00    +0.484 P 
ATOM      2  P   UNL     1      36.088 -24.115 -10.802  0.00  0.00    +0.484 P 
ATOM      3  O   UNL     1      37.565 -23.344 -13.605  0.00  0.00    -0.273 OA
ATOM      4  O   UNL     1      35.256 -23.408 -11.996  0.00  0.00    -0.270 OA
ATOM      5  O   UNL     1      37.308 -24.852 -11.563  0.00  0.00    -0.186 OA
ATOM      6  O   UNL     1      39.345 -25.259 -13.182  0.00  0.00    -0.227 OA
ATOM      7  O   UNL     1      36.509 -23.173  -9.711  0.00  0.00    -0.227 OA
ATOM      8  C   UNL     1      36.701 -23.877 -14.616  0.00  0.00    +0.157 C 
ATOM      9  C   UNL     1      35.610 -24.809 -14.020  0.00  0.00    +0.168 C 
ATOM     10  C   UNL     1      34.638 -24.157 -13.028  0.00  0.00    +0.185 C 
ATOM     11  C   UNL     1      36.073 -22.653 -15.303  0.00  0.00    +0.035 C 
ENDROOT
BRANCH   9  12
ATOM     12  O   UNL     1      34.805 -25.374 -15.058  0.00  0.00    -0.379 OA
ATOM     13  H   UNL     1      34.477 -26.243 -14.775  0.00  0.00    +0.211 HD
ENDBRANCH   9  12
BRANCH   1  14
ATOM     14  O   UNL     1      39.164 -23.135 -11.665  0.00  0.00    -0.302 OA
ATOM     15  H   UNL     1      38.882 -23.228 -10.742  0.00  0.00    +0.222 HD
ENDBRANCH   1  14
BRANCH   2  16
ATOM     16  O   UNL     1      35.147 -25.333 -10.311  0.00  0.00    -0.302 OA
ATOM     17  H   UNL     1      35.683 -26.133 -10.200  0.00  0.00    +0.222 HD
ENDBRANCH   2  16
BRANCH   8  18
ATOM     18  C   UNL     1      37.555 -24.611 -15.662  0.00  0.00    +0.167 C 
BRANCH  18  19
ATOM     19  O   UNL     1      37.401 -26.000 -15.457  0.00  0.00    -0.379 OA
ATOM     20  H   UNL     1      38.245 -26.380 -15.168  0.00  0.00    +0.211 HD
ENDBRANCH  18  19
ENDBRANCH   8  18
TORSDOF 5
ENDMDL
MODEL 5
REMARK VINA RESULT:      -6.5      2.071      4.172
REMARK  Name = 126747
REMARK  5 active torsions:
REMARK  status: ('A' for Active; 'I' for Inactive)
REMARK    1  A    between atoms: P_1  and  O_14
REMARK    2  A    between atoms: P_2  and  O_16
REMARK    3  A    between atoms: C_8  and  C_18
REMARK    4  A    between atoms: C_9  and  O_12
REMARK    5  A    between atoms: C_18  and  O_19
REMARK                            x       y       z     vdW  Elec       q    Type
REMARK                         _______ _______ _______ _____ _____    ______ ____
ROOT
ATOM      1  P   UNL     1      36.715 -23.118 -14.468  0.00  0.00    +0.484 P 
ATOM      2  P   UNL     1      35.914 -24.060 -11.814  0.00  0.00    +0.484 P 
ATOM      3  O   UNL     1      36.853 -24.677 -14.875  0.00  0.00    -0.273 OA
ATOM      4  O   UNL     1      36.299 -25.567 -12.263  0.00  0.00    -0.270 OA
ATOM      5  O   UNL     1      36.726 -23.127 -12.852  0.00  0.00    -0.186 OA
ATOM      6  O   UNL     1      37.690 -22.175 -15.111  0.00  0.00    -0.227 OA
ATOM      7  O   UNL     1      34.437 -23.798 -11.762  0.00  0.00    -0.227 OA
ATOM      8  C   UNL     1      38.055 -25.443 -14.727  0.00  0.00    +0.157 C 
ATOM      9  C   UNL     1      38.573 -25.439 -13.262  0.00  0.00    +0.168 C 
ATOM     10  C   UNL     1      37.631 -26.049 -12.215  0.00  0.00    +0.185 C 
ATOM     11  C   UNL     1      37.693 -26.864 -15.186  0.00  0.00    +0.035 C 
ENDROOT
BRANCH   9  12
ATOM     12  O   UNL     1      39.805 -26.157 -13.159  0.00  0.00    -0.379 OA
ATOM     13  H   UNL     1      40.543 -25.563 -13.371  0.00  0.00    +0.211 HD
ENDBRANCH   9  12
BRANCH   1  14
ATOM     14  O   UNL     1      35.167 -22.802 -14.818  0.00  0.00    -0.302 OA
ATOM     15  H   UNL     1      34.599 -23.463 -14.392  0.00  0.00    +0.222 HD
ENDBRANCH   1  14
BRANCH   2  16
ATOM     16  O   UNL     1      36.686 -23.840 -10.411  0.00  0.00    -0.302 OA
ATOM     17  H   UNL     1      36.052 -23.560  -9.733  0.00  0.00    +0.222 HD
ENDBRANCH   2  16
BRANCH   8  18
ATOM     18  C   UNL     1      39.114 -24.895 -15.697  0.00  0.00    +0.167 C 
BRANCH  18  19
ATOM     19  O   UNL     1      40.128 -25.869 -15.834  0.00  0.00    -0.379 OA
ATOM     20  H   UNL     1      40.978 -25.492 -15.559  0.00  0.00    +0.211 HD
ENDBRANCH  18  19
ENDBRANCH   8  18
TORSDOF 5
ENDMDL
MODEL 6
REMARK VINA RESULT:      -6.2      2.000      2.984
REMARK  Name = 126747
REMARK  5 active torsions:
REMARK  status: ('A' for Active; 'I' for Inactive)
REMARK    1  A    between atoms: P_1  and  O_14
REMARK    2  A    between atoms: P_2  and  O_16
REMARK    3  A    between atoms: C_8  and  C_18
REMARK    4  A    between atoms: C_9  and  O_12
REMARK    5  A    between atoms: C_18  and  O_19
REMARK                            x       y       z     vdW  Elec       q    Type
REMARK                         _______ _______ _______ _____ _____    ______ ____
ROOT
ATOM      1  P   UNL     1      36.960 -26.116 -14.905  0.00  0.00    +0.484 P 
ATOM      2  P   UNL     1      38.484 -24.794 -12.781  0.00  0.00    +0.484 P 
ATOM      3  O   UNL     1      36.425 -24.643 -15.305  0.00  0.00    -0.273 OA
ATOM      4  O   UNL     1      37.716 -23.413 -13.127  0.00  0.00    -0.270 OA
ATOM      5  O   UNL     1      37.525 -25.937 -13.401  0.00  0.00    -0.186 OA
ATOM      6  O   UNL     1      35.995 -27.248 -15.097  0.00  0.00    -0.227 OA
ATOM      7  O   UNL     1      39.904 -24.840 -13.265  0.00  0.00    -0.227 OA
ATOM      8  C   UNL     1      35.245 -24.041 -14.760  0.00  0.00    +0.157 C 
ATOM      9  C   UNL     1      35.292 -23.962 -13.209  0.00  0.00    +0.168 C 
ATOM     10  C   UNL     1      36.428 -23.120 -12.614  0.00  0.00    +0.185 C 
ATOM     11  C   UNL     1      35.173 -22.640 -15.387  0.00  0.00    +0.035 C 
ENDROOT
BRANCH   9  12
ATOM     12  O   UNL     1      34.075 -23.417 -12.693  0.00  0.00    -0.379 OA
ATOM     13  H   UNL     1      34.003 -23.626 -11.747  0.00  0.00    +0.211 HD
ENDBRANCH   9  12
BRANCH   1  14
ATOM     14  O   UNL     1      38.312 -26.246 -15.785  0.00  0.00    -0.302 OA
ATOM     15  H   UNL     1      38.896 -26.909 -15.385  0.00  0.00    +0.222 HD
ENDBRANCH   1  14
BRANCH   2  16
ATOM     16  O   UNL     1      38.313 -24.970 -11.184  0.00  0.00    -0.302 OA
ATOM     17  H   UNL     1      39.157 -24.785 -10.745  0.00  0.00    +0.222 HD
ENDBRANCH   2  16
BRANCH   8  18
ATOM     18  C   UNL     1      34.018 -24.831 -15.244  0.00  0.00    +0.167 C 
BRANCH  18  19
ATOM     19  O   UNL     1      32.925 -23.940 -15.323  0.00  0.00    -0.379 OA
ATOM     20  H   UNL     1      33.184 -23.157 -15.834  0.00  0.00    +0.211 HD
ENDBRANCH  18  19
ENDBRANCH   8  18
TORSDOF 5
ENDMDL
MODEL 7
REMARK VINA RESULT:      -6.1      2.376      4.371
REMARK  Name = 126747
REMARK  5 active torsions:
REMARK  status: ('A' for Active; 'I' for Inactive)
REMARK    1  A    between atoms: P_1  and  O_14
REMARK    2  A    between atoms: P_2  and  O_16
REMARK    3  A    between atoms: C_8  and  C_18
REMARK    4  A    between atoms: C_9  and  O_12
REMARK    5  A    between atoms: C_18  and  O_19
REMARK                            x       y       z     vdW  Elec       q    Type
REMARK                         _______ _______ _______ _____ _____    ______ ____
ROOT
ATOM      1  P   UNL     1      34.364 -24.132 -13.497  0.00  0.00    +0.484 P 
ATOM      2  P   UNL     1      36.052 -24.286 -11.108  0.00  0.00    +0.484 P 
ATOM      3  O   UNL     1      35.303 -25.294 -14.117  0.00  0.00    -0.273 OA
ATOM      4  O   UNL     1      37.049 -25.276 -11.911  0.00  0.00    -0.270 OA
ATOM      5  O   UNL     1      35.236 -23.527 -12.278  0.00  0.00    -0.186 OA
ATOM      6  O   UNL     1      33.829 -23.120 -14.467  0.00  0.00    -0.227 OA
ATOM      7  O   UNL     1      35.191 -24.980 -10.094  0.00  0.00    -0.227 OA
ATOM      8  C   UNL     1      36.491 -25.046 -14.878  0.00  0.00    +0.157 C 
ATOM      9  C   UNL     1      37.516 -24.181 -14.094  0.00  0.00    +0.168 C 
ATOM     10  C   UNL     1      38.048 -24.788 -12.789  0.00  0.00    +0.185 C 
ATOM     11  C   UNL     1      37.066 -26.433 -15.203  0.00  0.00    +0.035 C 
ENDROOT
BRANCH   9  12
ATOM     12  O   UNL     1      38.661 -23.897 -14.901  0.00  0.00    -0.379 OA
ATOM     13  H   UNL     1      38.406 -23.304 -15.627  0.00  0.00    +0.211 HD
ENDBRANCH   9  12
BRANCH   1  14
ATOM     14  O   UNL     1      33.217 -24.983 -12.734  0.00  0.00    -0.302 OA
ATOM     15  H   UNL     1      32.845 -24.450 -12.014  0.00  0.00    +0.222 HD
ENDBRANCH   1  14
BRANCH   2  16
ATOM     16  O   UNL     1      37.014 -23.139 -10.501  0.00  0.00    -0.302 OA
ATOM     17  H   UNL     1      37.287 -23.385  -9.605  0.00  0.00    +0.222 HD
ENDBRANCH   2  16
BRANCH   8  18
ATOM     18  C   UNL     1      36.099 -24.382 -16.208  0.00  0.00    +0.167 C 
BRANCH  18  19
ATOM     19  O   UNL     1      36.426 -23.010 -16.127  0.00  0.00    -0.379 OA
ATOM     20  H   UNL     1      36.707 -22.798 -15.224  0.00  0.00    +0.211 HD
ENDBRANCH  18  19
ENDBRANCH   8  18
TORSDOF 5
ENDMDL
MODEL 8
REMARK VINA RESULT:      -6.1      1.985      3.597
REMARK  Name = 126747
REMARK  5 active torsions:
REMARK  status: ('A' for Active; 'I' for Inactive)
REMARK    1  A    between atoms: P_1  and  O_14
REMARK    2  A    between atoms: P_2  and  O_16
REMARK    3  A    between atoms: C_8  and  C_18
REMARK    4  A    between atoms: C_9  and  O_12
REMARK    5  A    between atoms: C_18  and  O_19
REMARK                            x       y       z     vdW  Elec       q    Type
REMARK                         _______ _______ _______ _____ _____    ______ ____
ROOT
ATOM      1  P   UNL     1      36.992 -25.120 -12.079  0.00  0.00    +0.484 P 
ATOM      2  P   UNL     1      38.359 -25.287 -14.664  0.00  0.00    +0.484 P 
ATOM      3  O   UNL     1      35.617 -25.343 -12.900  0.00  0.00    -0.273 OA
ATOM      4  O   UNL     1      36.916 -25.279 -15.396  0.00  0.00    -0.270 OA
ATOM      5  O   UNL     1      38.057 -24.661 -13.205  0.00  0.00    -0.186 OA
ATOM      6  O   UNL     1      36.910 -24.229 -10.874  0.00  0.00    -0.227 OA
ATOM      7  O   UNL     1      39.024 -26.632 -14.641  0.00  0.00    -0.227 OA
ATOM      8  C   UNL     1      34.826 -24.281 -13.446  0.00  0.00    +0.157 C 
ATOM      9  C   UNL     1      35.643 -23.382 -14.415  0.00  0.00    +0.168 C 
ATOM     10  C   UNL     1      36.212 -24.078 -15.658  0.00  0.00    +0.185 C 
ATOM     11  C   UNL     1      33.662 -24.971 -14.176  0.00  0.00    +0.035 C 
ENDROOT
BRANCH   9  12
ATOM     12  O   UNL     1      34.845 -22.296 -14.892  0.00  0.00    -0.379 OA
ATOM     13  H   UNL     1      35.310 -21.848 -15.617  0.00  0.00    +0.211 HD
ENDBRANCH   9  12
BRANCH   1  14
ATOM     14  O   UNL     1      37.449 -26.637 -11.746  0.00  0.00    -0.302 OA
ATOM     15  H   UNL     1      37.136 -27.229 -12.446  0.00  0.00    +0.222 HD
ENDBRANCH   1  14
BRANCH   2  16
ATOM     16  O   UNL     1      39.205 -24.131 -15.412  0.00  0.00    -0.302 OA
ATOM     17  H   UNL     1      39.849 -23.751 -14.796  0.00  0.00    +0.222 HD
ENDBRANCH   2  16
BRANCH   8  18
ATOM     18  C   UNL     1      34.230 -23.462 -12.290  0.00  0.00    +0.167 C 
BRANCH  18  19
ATOM     19  O   UNL     1      32.900 -23.127 -12.628  0.00  0.00    -0.379 OA
ATOM     20  H   UNL     1      32.303 -23.828 -12.324  0.00  0.00    +0.211 HD
ENDBRANCH  18  19
ENDBRANCH   8  18
TORSDOF 5
ENDMDL
MODEL 9
REMARK VINA RESULT:      -6.1      2.485      5.021
REMARK  Name = 126747
REMARK  5 active torsions:
REMARK  status: ('A' for Active; 'I' for Inactive)
REMARK    1  A    between atoms: P_1  and  O_14
REMARK    2  A    between atoms: P_2  and  O_16
REMARK    3  A    between atoms: C_8  and  C_18
REMARK    4  A    between atoms: C_9  and  O_12
REMARK    5  A    between atoms: C_18  and  O_19
REMARK                            x       y       z     vdW  Elec       q    Type
REMARK                         _______ _______ _______ _____ _____    ______ ____
ROOT
ATOM      1  P   UNL     1      34.540 -23.262 -16.524  0.00  0.00    +0.484 P 
ATOM      2  P   UNL     1      32.750 -23.790 -14.266  0.00  0.00    +0.484 P 
ATOM      3  O   UNL     1      35.489 -24.424 -15.918  0.00  0.00    -0.273 OA
ATOM      4  O   UNL     1      33.877 -24.767 -13.637  0.00  0.00    -0.270 OA
ATOM      5  O   UNL     1      33.578 -22.854 -15.291  0.00  0.00    -0.186 OA
ATOM      6  O   UNL     1      35.237 -22.118 -17.199  0.00  0.00    -0.227 OA
ATOM      7  O   UNL     1      31.588 -24.515 -14.880  0.00  0.00    -0.227 OA
ATOM      8  C   UNL     1      36.535 -24.192 -14.968  0.00  0.00    +0.157 C 
ATOM      9  C   UNL     1      36.012 -23.494 -13.682  0.00  0.00    +0.168 C 
ATOM     10  C   UNL     1      34.963 -24.271 -12.875  0.00  0.00    +0.185 C 
ATOM     11  C   UNL     1      37.115 -25.580 -14.651  0.00  0.00    +0.035 C 
ENDROOT
BRANCH   9  12
ATOM     12  O   UNL     1      37.089 -23.219 -12.782  0.00  0.00    -0.379 OA
ATOM     13  H   UNL     1      37.108 -23.895 -12.086  0.00  0.00    +0.211 HD
ENDBRANCH   9  12
BRANCH   1  14
ATOM     14  O   UNL     1      33.549 -24.094 -17.496  0.00  0.00    -0.302 OA
ATOM     15  H   UNL     1      34.027 -24.846 -17.878  0.00  0.00    +0.222 HD
ENDBRANCH   1  14
BRANCH   2  16
ATOM     16  O   UNL     1      32.357 -22.789 -13.060  0.00  0.00    -0.302 OA
ATOM     17  H   UNL     1      31.575 -23.128 -12.599  0.00  0.00    +0.222 HD
ENDBRANCH   2  16
BRANCH   8  18
ATOM     18  C   UNL     1      37.644 -23.367 -15.642  0.00  0.00    +0.167 C 
BRANCH  18  19
ATOM     19  O   UNL     1      38.884 -23.975 -15.346  0.00  0.00    -0.379 OA
ATOM     20  H   UNL     1      39.493 -23.310 -14.990  0.00  0.00    +0.211 HD
ENDBRANCH  18  19
ENDBRANCH   8  18
TORSDOF 5
ENDMDL
