MODEL 1
REMARK VINA RESULT:      -8.6      0.000      0.000
REMARK  Name = 5280360
REMARK  15 active torsions:
REMARK  status: ('A' for Active; 'I' for Inactive)
REMARK    1  A    between atoms: C_2  and  C_9
REMARK    2  A    between atoms: C_3  and  C_19
REMARK    3  A    between atoms: C_4  and  O_7
REMARK    4  A    between atoms: C_10  and  C_11
REMARK    5  A    between atoms: C_11  and  O_12
REMARK    6  A    between atoms: C_11  and  C_14
REMARK    7  A    between atoms: C_14  and  C_15
REMARK    8  A    between atoms: C_15  and  C_16
REMARK    9  A    between atoms: C_16  and  C_17
REMARK   10  A    between atoms: C_19  and  C_20
REMARK   11  A    between atoms: C_21  and  C_22
REMARK   12  A    between atoms: C_22  and  C_23
REMARK   13  A    between atoms: C_23  and  C_24
REMARK   14  A    between atoms: C_24  and  C_26
REMARK   15  A    between atoms: C_26  and  O_27
REMARK                            x       y       z     vdW  Elec       q    Type
REMARK                         _______ _______ _______ _____ _____    ______ ____
ROOT
ATOM      1  O   UNL     1      31.037 -24.618 -12.924  0.00  0.00    -0.296 OA
ATOM      2  C   UNL     1      31.865 -23.124 -16.019  0.00  0.00    +0.056 C 
ATOM      3  C   UNL     1      32.325 -24.086 -14.911  0.00  0.00    +0.068 C 
ATOM      4  C   UNL     1      30.385 -23.477 -16.220  0.00  0.00    +0.122 C 
ATOM      5  C   UNL     1      29.849 -23.698 -14.807  0.00  0.00    +0.094 C 
ATOM      6  C   UNL     1      31.069 -24.185 -14.069  0.00  0.00    +0.153 C 
ENDROOT
BRANCH   4   7
ATOM      7  O   UNL     1      29.708 -22.399 -16.845  0.00  0.00    -0.384 OA
ATOM      8  H   UNL     1      29.660 -22.558 -17.801  0.00  0.00    +0.210 HD
ENDBRANCH   4   7
BRANCH   2   9
ATOM      9  C   UNL     1      32.671 -23.261 -17.270  0.00  0.00    -0.026 C 
ATOM     10  C   UNL     1      33.727 -22.489 -17.566  0.00  0.00    -0.002 C 
BRANCH  10  11
ATOM     11  C   UNL     1      34.534 -22.628 -18.826  0.00  0.00    +0.132 C 
BRANCH  11  12
ATOM     12  O   UNL     1      33.868 -23.556 -19.686  0.00  0.00    -0.380 OA
ATOM     13  H   UNL     1      34.046 -23.324 -20.611  0.00  0.00    +0.211 HD
ENDBRANCH  11  12
BRANCH  11  14
ATOM     14  C   UNL     1      34.674 -21.308 -19.595  0.00  0.00    +0.034 C 
BRANCH  14  15
ATOM     15  C   UNL     1      33.356 -20.818 -20.201  0.00  0.00    +0.003 C 
BRANCH  15  16
ATOM     16  C   UNL     1      33.453 -19.420 -20.819  0.00  0.00    +0.000 C 
BRANCH  16  17
ATOM     17  C   UNL     1      34.844 -19.084 -21.354  0.00  0.00    +0.000 C 
ATOM     18  C   UNL     1      35.001 -17.590 -21.596  0.00  0.00    +0.000 C 
ENDBRANCH  16  17
ENDBRANCH  15  16
ENDBRANCH  14  15
ENDBRANCH  11  14
ENDBRANCH  10  11
ENDBRANCH   2   9
BRANCH   3  19
ATOM     19  C   UNL     1      33.516 -23.572 -14.122  0.00  0.00    +0.033 C 
BRANCH  19  20
ATOM     20  C   UNL     1      34.545 -24.586 -13.702  0.00  0.00    -0.030 C 
ATOM     21  C   UNL     1      35.795 -24.714 -14.172  0.00  0.00    -0.031 C 
BRANCH  21  22
ATOM     22  C   UNL     1      36.377 -23.826 -15.233  0.00  0.00    +0.026 C 
BRANCH  22  23
ATOM     23  C   UNL     1      37.912 -23.846 -15.279  0.00  0.00    +0.016 C 
BRANCH  23  24
ATOM     24  C   UNL     1      38.535 -25.109 -14.677  0.00  0.00    +0.110 C 
BRANCH  24  26
ATOM     25  O   UNL     1      40.904 -24.776 -14.221  0.00  0.00    -0.250 OA
ATOM     26  C   UNL     1      40.021 -25.236 -14.932  0.00  0.00    +0.314 C 
BRANCH  26  27
ATOM     27  O   UNL     1      40.277 -25.897 -16.092  0.00  0.00    -0.480 OA
ATOM     28  H   UNL     1      39.597 -26.386 -16.512  0.00  0.00    +0.295 HD
ENDBRANCH  26  27
ENDBRANCH  24  26
ENDBRANCH  23  24
ENDBRANCH  22  23
ENDBRANCH  21  22
ENDBRANCH  19  20
ENDBRANCH   3  19
TORSDOF 15
ENDMDL
MODEL 2
REMARK VINA RESULT:      -8.4      6.197     11.235
REMARK  Name = 5280360
REMARK  15 active torsions:
REMARK  status: ('A' for Active; 'I' for Inactive)
REMARK    1  A    between atoms: C_2  and  C_9
REMARK    2  A    between atoms: C_3  and  C_19
REMARK    3  A    between atoms: C_4  and  O_7
REMARK    4  A    between atoms: C_10  and  C_11
REMARK    5  A    between atoms: C_11  and  O_12
REMARK    6  A    between atoms: C_11  and  C_14
REMARK    7  A    between atoms: C_14  and  C_15
REMARK    8  A    between atoms: C_15  and  C_16
REMARK    9  A    between atoms: C_16  and  C_17
REMARK   10  A    between atoms: C_19  and  C_20
REMARK   11  A    between atoms: C_21  and  C_22
REMARK   12  A    between atoms: C_22  and  C_23
REMARK   13  A    between atoms: C_23  and  C_24
REMARK   14  A    between atoms: C_24  and  C_26
REMARK   15  A    between atoms: C_26  and  O_27
REMARK                            x       y       z     vdW  Elec       q    Type
REMARK                         _______ _______ _______ _____ _____    ______ ____
ROOT
ATOM      1  O   UNL     1      34.673 -17.563 -24.514  0.00  0.00    -0.296 OA
ATOM      2  C   UNL     1      33.159 -14.391 -24.137  0.00  0.00    +0.056 C 
ATOM      3  C   UNL     1      34.211 -15.367 -23.588  0.00  0.00    +0.068 C 
ATOM      4  C   UNL     1      33.331 -14.484 -25.659  0.00  0.00    +0.122 C 
ATOM      5  C   UNL     1      33.547 -15.972 -25.930  0.00  0.00    +0.094 C 
ATOM      6  C   UNL     1      34.200 -16.442 -24.656  0.00  0.00    +0.153 C 
ENDROOT
BRANCH   4   7
ATOM      7  O   UNL     1      32.157 -14.026 -26.312  0.00  0.00    -0.384 OA
ATOM      8  H   UNL     1      32.355 -13.847 -27.244  0.00  0.00    +0.210 HD
ENDBRANCH   4   7
BRANCH   2   9
ATOM      9  C   UNL     1      33.336 -13.002 -23.615  0.00  0.00    -0.026 C 
ATOM     10  C   UNL     1      33.805 -11.982 -24.350  0.00  0.00    -0.002 C 
BRANCH  10  11
ATOM     11  C   UNL     1      33.984 -10.587 -23.820  0.00  0.00    +0.132 C 
BRANCH  11  12
ATOM     12  O   UNL     1      34.814  -9.863 -24.731  0.00  0.00    -0.380 OA
ATOM     13  H   UNL     1      34.350  -9.757 -25.577  0.00  0.00    +0.211 HD
ENDBRANCH  11  12
BRANCH  11  14
ATOM     14  C   UNL     1      32.660  -9.822 -23.696  0.00  0.00    +0.034 C 
BRANCH  14  15
ATOM     15  C   UNL     1      32.147  -9.729 -22.256  0.00  0.00    +0.003 C 
BRANCH  15  16
ATOM     16  C   UNL     1      31.097 -10.790 -21.915  0.00  0.00    +0.000 C 
BRANCH  16  17
ATOM     17  C   UNL     1      31.439 -11.610 -20.672  0.00  0.00    +0.000 C 
ATOM     18  C   UNL     1      31.395 -10.755 -19.414  0.00  0.00    +0.000 C 
ENDBRANCH  16  17
ENDBRANCH  15  16
ENDBRANCH  14  15
ENDBRANCH  11  14
ENDBRANCH  10  11
ENDBRANCH   2   9
BRANCH   3  19
ATOM     19  C   UNL     1      33.870 -15.911 -22.212  0.00  0.00    +0.033 C 
BRANCH  19  20
ATOM     20  C   UNL     1      35.008 -16.455 -21.391  0.00  0.00    -0.030 C 
ATOM     21  C   UNL     1      35.203 -17.731 -21.024  0.00  0.00    -0.031 C 
BRANCH  21  22
ATOM     22  C   UNL     1      34.276 -18.852 -21.394  0.00  0.00    +0.026 C 
BRANCH  22  23
ATOM     23  C   UNL     1      34.563 -20.161 -20.644  0.00  0.00    +0.016 C 
BRANCH  23  24
ATOM     24  C   UNL     1      33.334 -20.769 -19.962  0.00  0.00    +0.110 C 
BRANCH  24  26
ATOM     25  O   UNL     1      34.676 -22.667 -19.236  0.00  0.00    -0.250 OA
ATOM     26  C   UNL     1      33.632 -22.031 -19.182  0.00  0.00    +0.314 C 
BRANCH  26  27
ATOM     27  O   UNL     1      32.571 -22.416 -18.426  0.00  0.00    -0.480 OA
ATOM     28  H   UNL     1      32.367 -21.956 -17.635  0.00  0.00    +0.295 HD
ENDBRANCH  26  27
ENDBRANCH  24  26
ENDBRANCH  23  24
ENDBRANCH  22  23
ENDBRANCH  21  22
ENDBRANCH  19  20
ENDBRANCH   3  19
TORSDOF 15
ENDMDL
MODEL 3
REMARK VINA RESULT:      -8.3      8.290     12.315
REMARK  Name = 5280360
REMARK  15 active torsions:
REMARK  status: ('A' for Active; 'I' for Inactive)
REMARK    1  A    between atoms: C_2  and  C_9
REMARK    2  A    between atoms: C_3  and  C_19
REMARK    3  A    between atoms: C_4  and  O_7
REMARK    4  A    between atoms: C_10  and  C_11
REMARK    5  A    between atoms: C_11  and  O_12
REMARK    6  A    between atoms: C_11  and  C_14
REMARK    7  A    between atoms: C_14  and  C_15
REMARK    8  A    between atoms: C_15  and  C_16
REMARK    9  A    between atoms: C_16  and  C_17
REMARK   10  A    between atoms: C_19  and  C_20
REMARK   11  A    between atoms: C_21  and  C_22
REMARK   12  A    between atoms: C_22  and  C_23
REMARK   13  A    between atoms: C_23  and  C_24
REMARK   14  A    between atoms: C_24  and  C_26
REMARK   15  A    between atoms: C_26  and  O_27
REMARK                            x       y       z     vdW  Elec       q    Type
REMARK                         _______ _______ _______ _____ _____    ______ ____
ROOT
ATOM      1  O   UNL     1      36.031 -18.719 -20.765  0.00  0.00    -0.296 OA
ATOM      2  C   UNL     1      34.392 -16.846 -23.275  0.00  0.00    +0.056 C 
ATOM      3  C   UNL     1      35.263 -16.782 -22.011  0.00  0.00    +0.068 C 
ATOM      4  C   UNL     1      35.002 -17.999 -24.084  0.00  0.00    +0.122 C 
ATOM      5  C   UNL     1      35.326 -19.067 -23.042  0.00  0.00    +0.094 C 
ATOM      6  C   UNL     1      35.591 -18.247 -21.806  0.00  0.00    +0.153 C 
ENDROOT
BRANCH   4   7
ATOM      7  O   UNL     1      34.058 -18.489 -25.023  0.00  0.00    -0.384 OA
ATOM      8  H   UNL     1      33.168 -18.205 -24.764  0.00  0.00    +0.210 HD
ENDBRANCH   4   7
BRANCH   2   9
ATOM      9  C   UNL     1      34.374 -15.554 -24.026  0.00  0.00    -0.026 C 
ATOM     10  C   UNL     1      33.404 -15.202 -24.884  0.00  0.00    -0.002 C 
BRANCH  10  11
ATOM     11  C   UNL     1      33.391 -13.903 -25.639  0.00  0.00    +0.132 C 
BRANCH  11  12
ATOM     12  O   UNL     1      32.291 -13.924 -26.552  0.00  0.00    -0.380 OA
ATOM     13  H   UNL     1      31.505 -14.275 -26.103  0.00  0.00    +0.211 HD
ENDBRANCH  11  12
BRANCH  11  14
ATOM     14  C   UNL     1      33.207 -12.683 -24.725  0.00  0.00    +0.034 C 
BRANCH  14  15
ATOM     15  C   UNL     1      34.188 -11.548 -25.027  0.00  0.00    +0.003 C 
BRANCH  15  16
ATOM     16  C   UNL     1      34.000 -10.325 -24.124  0.00  0.00    +0.000 C 
BRANCH  16  17
ATOM     17  C   UNL     1      35.010  -9.209 -24.390  0.00  0.00    +0.000 C 
ATOM     18  C   UNL     1      34.686  -7.962 -23.581  0.00  0.00    +0.000 C 
ENDBRANCH  16  17
ENDBRANCH  15  16
ENDBRANCH  14  15
ENDBRANCH  11  14
ENDBRANCH  10  11
ENDBRANCH   2   9
BRANCH   3  19
ATOM     19  C   UNL     1      34.549 -16.173 -20.817  0.00  0.00    +0.033 C 
BRANCH  19  20
ATOM     20  C   UNL     1      33.048 -16.099 -20.884  0.00  0.00    -0.030 C 
ATOM     21  C   UNL     1      32.294 -14.992 -20.961  0.00  0.00    -0.031 C 
BRANCH  21  22
ATOM     22  C   UNL     1      32.862 -13.603 -20.993  0.00  0.00    +0.026 C 
BRANCH  22  23
ATOM     23  C   UNL     1      31.812 -12.515 -21.260  0.00  0.00    +0.016 C 
BRANCH  23  24
ATOM     24  C   UNL     1      31.518 -11.624 -20.049  0.00  0.00    +0.110 C 
BRANCH  24  26
ATOM     25  O   UNL     1      31.811  -9.590 -21.356  0.00  0.00    -0.250 OA
ATOM     26  C   UNL     1      31.841 -10.163 -20.275  0.00  0.00    +0.314 C 
BRANCH  26  27
ATOM     27  O   UNL     1      32.220  -9.549 -19.124  0.00  0.00    -0.480 OA
ATOM     28  H   UNL     1      33.119  -9.558 -18.862  0.00  0.00    +0.295 HD
ENDBRANCH  26  27
ENDBRANCH  24  26
ENDBRANCH  23  24
ENDBRANCH  22  23
ENDBRANCH  21  22
ENDBRANCH  19  20
ENDBRANCH   3  19
TORSDOF 15
ENDMDL
MODEL 4
REMARK VINA RESULT:      -8.2      6.504     12.310
REMARK  Name = 5280360
REMARK  15 active torsions:
REMARK  status: ('A' for Active; 'I' for Inactive)
REMARK    1  A    between atoms: C_2  and  C_9
REMARK    2  A    between atoms: C_3  and  C_19
REMARK    3  A    between atoms: C_4  and  O_7
REMARK    4  A    between atoms: C_10  and  C_11
REMARK    5  A    between atoms: C_11  and  O_12
REMARK    6  A    between atoms: C_11  and  C_14
REMARK    7  A    between atoms: C_14  and  C_15
REMARK    8  A    between atoms: C_15  and  C_16
REMARK    9  A    between atoms: C_16  and  C_17
REMARK   10  A    between atoms: C_19  and  C_20
REMARK   11  A    between atoms: C_21  and  C_22
REMARK   12  A    between atoms: C_22  and  C_23
REMARK   13  A    between atoms: C_23  and  C_24
REMARK   14  A    between atoms: C_24  and  C_26
REMARK   15  A    between atoms: C_26  and  O_27
REMARK                            x       y       z     vdW  Elec       q    Type
REMARK                         _______ _______ _______ _____ _____    ______ ____
ROOT
ATOM      1  O   UNL     1      32.231 -13.642 -24.241  0.00  0.00    -0.296 OA
ATOM      2  C   UNL     1      34.766 -16.020 -23.597  0.00  0.00    +0.056 C 
ATOM      3  C   UNL     1      33.584 -15.235 -23.006  0.00  0.00    +0.068 C 
ATOM      4  C   UNL     1      34.262 -16.457 -24.979  0.00  0.00    +0.122 C 
ATOM      5  C   UNL     1      33.508 -15.241 -25.513  0.00  0.00    +0.094 C 
ATOM      6  C   UNL     1      33.013 -14.585 -24.250  0.00  0.00    +0.153 C 
ENDROOT
BRANCH   4   7
ATOM      7  O   UNL     1      35.359 -16.770 -25.822  0.00  0.00    -0.384 OA
ATOM      8  H   UNL     1      35.210 -16.390 -26.701  0.00  0.00    +0.210 HD
ENDBRANCH   4   7
BRANCH   2   9
ATOM      9  C   UNL     1      35.178 -17.172 -22.737  0.00  0.00    -0.026 C 
ATOM     10  C   UNL     1      34.611 -18.386 -22.794  0.00  0.00    -0.002 C 
BRANCH  10  11
ATOM     11  C   UNL     1      35.027 -19.540 -21.926  0.00  0.00    +0.132 C 
BRANCH  11  12
ATOM     12  O   UNL     1      36.215 -19.169 -21.223  0.00  0.00    -0.380 OA
ATOM     13  H   UNL     1      36.930 -19.784 -21.450  0.00  0.00    +0.211 HD
ENDBRANCH  11  12
BRANCH  11  14
ATOM     14  C   UNL     1      33.969 -19.911 -20.879  0.00  0.00    +0.034 C 
BRANCH  14  15
ATOM     15  C   UNL     1      34.445 -20.979 -19.890  0.00  0.00    +0.003 C 
BRANCH  15  16
ATOM     16  C   UNL     1      33.301 -21.671 -19.143  0.00  0.00    +0.000 C 
BRANCH  16  17
ATOM     17  C   UNL     1      33.770 -22.775 -18.196  0.00  0.00    +0.000 C 
ATOM     18  C   UNL     1      32.681 -23.154 -17.203  0.00  0.00    +0.000 C 
ENDBRANCH  16  17
ENDBRANCH  15  16
ENDBRANCH  14  15
ENDBRANCH  11  14
ENDBRANCH  10  11
ENDBRANCH   2   9
BRANCH   3  19
ATOM     19  C   UNL     1      34.000 -14.218 -21.957  0.00  0.00    +0.033 C 
BRANCH  19  20
ATOM     20  C   UNL     1      33.221 -14.208 -20.670  0.00  0.00    -0.030 C 
ATOM     21  C   UNL     1      32.265 -13.339 -20.309  0.00  0.00    -0.031 C 
BRANCH  21  22
ATOM     22  C   UNL     1      31.810 -12.199 -21.173  0.00  0.00    +0.026 C 
BRANCH  22  23
ATOM     23  C   UNL     1      30.977 -11.151 -20.422  0.00  0.00    +0.016 C 
BRANCH  23  24
ATOM     24  C   UNL     1      31.805 -10.224 -19.527  0.00  0.00    +0.110 C 
BRANCH  24  26
ATOM     25  O   UNL     1      32.548  -7.905 -19.572  0.00  0.00    -0.250 OA
ATOM     26  C   UNL     1      32.121  -8.887 -20.163  0.00  0.00    +0.314 C 
BRANCH  26  27
ATOM     27  O   UNL     1      31.832  -8.882 -21.491  0.00  0.00    -0.480 OA
ATOM     28  H   UNL     1      31.777  -8.070 -21.955  0.00  0.00    +0.295 HD
ENDBRANCH  26  27
ENDBRANCH  24  26
ENDBRANCH  23  24
ENDBRANCH  22  23
ENDBRANCH  21  22
ENDBRANCH  19  20
ENDBRANCH   3  19
TORSDOF 15
ENDMDL
MODEL 5
REMARK VINA RESULT:      -8.2     12.137     16.529
REMARK  Name = 5280360
REMARK  15 active torsions:
REMARK  status: ('A' for Active; 'I' for Inactive)
REMARK    1  A    between atoms: C_2  and  C_9
REMARK    2  A    between atoms: C_3  and  C_19
REMARK    3  A    between atoms: C_4  and  O_7
REMARK    4  A    between atoms: C_10  and  C_11
REMARK    5  A    between atoms: C_11  and  O_12
REMARK    6  A    between atoms: C_11  and  C_14
REMARK    7  A    between atoms: C_14  and  C_15
REMARK    8  A    between atoms: C_15  and  C_16
REMARK    9  A    between atoms: C_16  and  C_17
REMARK   10  A    between atoms: C_19  and  C_20
REMARK   11  A    between atoms: C_21  and  C_22
REMARK   12  A    between atoms: C_22  and  C_23
REMARK   13  A    between atoms: C_23  and  C_24
REMARK   14  A    between atoms: C_24  and  C_26
REMARK   15  A    between atoms: C_26  and  O_27
REMARK                            x       y       z     vdW  Elec       q    Type
REMARK                         _______ _______ _______ _____ _____    ______ ____
ROOT
ATOM      1  O   UNL     1      31.452 -11.017 -21.434  0.00  0.00    -0.296 OA
ATOM      2  C   UNL     1      32.604  -7.689 -21.738  0.00  0.00    +0.056 C 
ATOM      3  C   UNL     1      31.769  -8.806 -22.384  0.00  0.00    +0.068 C 
ATOM      4  C   UNL     1      32.227  -7.762 -20.252  0.00  0.00    +0.122 C 
ATOM      5  C   UNL     1      32.159  -9.257 -19.948  0.00  0.00    +0.094 C 
ATOM      6  C   UNL     1      31.759  -9.841 -21.278  0.00  0.00    +0.153 C 
ENDROOT
BRANCH   4   7
ATOM      7  O   UNL     1      33.229  -7.140 -19.464  0.00  0.00    -0.384 OA
ATOM      8  H   UNL     1      34.090  -7.238 -19.899  0.00  0.00    +0.210 HD
ENDBRANCH   4   7
BRANCH   2   9
ATOM      9  C   UNL     1      32.334  -6.348 -22.341  0.00  0.00    -0.026 C 
ATOM     10  C   UNL     1      31.104  -5.850 -22.534  0.00  0.00    -0.002 C 
BRANCH  10  11
ATOM     11  C   UNL     1      30.837  -4.502 -23.143  0.00  0.00    +0.132 C 
BRANCH  11  12
ATOM     12  O   UNL     1      31.868  -3.606 -22.720  0.00  0.00    -0.380 OA
ATOM     13  H   UNL     1      32.274  -3.190 -23.497  0.00  0.00    +0.211 HD
ENDBRANCH  11  12
BRANCH  11  14
ATOM     14  C   UNL     1      30.850  -4.527 -24.677  0.00  0.00    +0.034 C 
BRANCH  14  15
ATOM     15  C   UNL     1      32.183  -4.073 -25.278  0.00  0.00    +0.003 C 
BRANCH  15  16
ATOM     16  C   UNL     1      32.697  -4.998 -26.385  0.00  0.00    +0.000 C 
BRANCH  16  17
ATOM     17  C   UNL     1      34.187  -5.318 -26.270  0.00  0.00    +0.000 C 
ATOM     18  C   UNL     1      34.441  -6.420 -25.252  0.00  0.00    +0.000 C 
ENDBRANCH  16  17
ENDBRANCH  15  16
ENDBRANCH  14  15
ENDBRANCH  11  14
ENDBRANCH  10  11
ENDBRANCH   2   9
BRANCH   3  19
ATOM     19  C   UNL     1      32.369  -9.338 -23.674  0.00  0.00    +0.033 C 
BRANCH  19  20
ATOM     20  C   UNL     1      33.865  -9.498 -23.715  0.00  0.00    -0.030 C 
ATOM     21  C   UNL     1      34.558 -10.474 -24.321  0.00  0.00    -0.031 C 
BRANCH  21  22
ATOM     22  C   UNL     1      33.917 -11.599 -25.080  0.00  0.00    +0.026 C 
BRANCH  22  23
ATOM     23  C   UNL     1      33.745 -12.881 -24.253  0.00  0.00    +0.016 C 
BRANCH  23  24
ATOM     24  C   UNL     1      32.903 -13.958 -24.943  0.00  0.00    +0.110 C 
BRANCH  24  26
ATOM     25  O   UNL     1      33.983 -15.975 -24.108  0.00  0.00    -0.250 OA
ATOM     26  C   UNL     1      33.599 -15.298 -25.052  0.00  0.00    +0.314 C 
BRANCH  26  27
ATOM     27  O   UNL     1      33.796 -15.657 -26.347  0.00  0.00    -0.480 OA
ATOM     28  H   UNL     1      33.874 -14.999 -27.010  0.00  0.00    +0.295 HD
ENDBRANCH  26  27
ENDBRANCH  24  26
ENDBRANCH  23  24
ENDBRANCH  22  23
ENDBRANCH  21  22
ENDBRANCH  19  20
ENDBRANCH   3  19
TORSDOF 15
ENDMDL
MODEL 6
REMARK VINA RESULT:      -8.1      1.623      1.788
REMARK  Name = 5280360
REMARK  15 active torsions:
REMARK  status: ('A' for Active; 'I' for Inactive)
REMARK    1  A    between atoms: C_2  and  C_9
REMARK    2  A    between atoms: C_3  and  C_19
REMARK    3  A    between atoms: C_4  and  O_7
REMARK    4  A    between atoms: C_10  and  C_11
REMARK    5  A    between atoms: C_11  and  O_12
REMARK    6  A    between atoms: C_11  and  C_14
REMARK    7  A    between atoms: C_14  and  C_15
REMARK    8  A    between atoms: C_15  and  C_16
REMARK    9  A    between atoms: C_16  and  C_17
REMARK   10  A    between atoms: C_19  and  C_20
REMARK   11  A    between atoms: C_21  and  C_22
REMARK   12  A    between atoms: C_22  and  C_23
REMARK   13  A    between atoms: C_23  and  C_24
REMARK   14  A    between atoms: C_24  and  C_26
REMARK   15  A    between atoms: C_26  and  O_27
REMARK                            x       y       z     vdW  Elec       q    Type
REMARK                         _______ _______ _______ _____ _____    ______ ____
ROOT
ATOM      1  O   UNL     1      30.846 -24.646 -12.905  0.00  0.00    -0.296 OA
ATOM      2  C   UNL     1      32.073 -23.239 -15.907  0.00  0.00    +0.056 C 
ATOM      3  C   UNL     1      32.344 -24.238 -14.771  0.00  0.00    +0.068 C 
ATOM      4  C   UNL     1      30.589 -23.453 -16.237  0.00  0.00    +0.122 C 
ATOM      5  C   UNL     1      29.915 -23.622 -14.877  0.00  0.00    +0.094 C 
ATOM      6  C   UNL     1      31.016 -24.219 -14.041  0.00  0.00    +0.153 C 
ENDROOT
BRANCH   4   7
ATOM      7  O   UNL     1      30.071 -22.317 -16.911  0.00  0.00    -0.384 OA
ATOM      8  H   UNL     1      29.516 -22.606 -17.652  0.00  0.00    +0.210 HD
ENDBRANCH   4   7
BRANCH   2   9
ATOM      9  C   UNL     1      32.968 -23.452 -17.085  0.00  0.00    -0.026 C 
ATOM     10  C   UNL     1      33.515 -22.455 -17.797  0.00  0.00    -0.002 C 
BRANCH  10  11
ATOM     11  C   UNL     1      34.413 -22.673 -18.982  0.00  0.00    +0.132 C 
BRANCH  11  12
ATOM     12  O   UNL     1      33.941 -23.816 -19.699  0.00  0.00    -0.380 OA
ATOM     13  H   UNL     1      34.697 -24.306 -20.059  0.00  0.00    +0.211 HD
ENDBRANCH  11  12
BRANCH  11  14
ATOM     14  C   UNL     1      34.415 -21.487 -19.956  0.00  0.00    +0.034 C 
BRANCH  14  15
ATOM     15  C   UNL     1      33.109 -20.687 -19.937  0.00  0.00    +0.003 C 
BRANCH  15  16
ATOM     16  C   UNL     1      33.036 -19.616 -21.029  0.00  0.00    +0.000 C 
BRANCH  16  17
ATOM     17  C   UNL     1      34.388 -18.983 -21.354  0.00  0.00    +0.000 C 
ATOM     18  C   UNL     1      34.804 -19.267 -22.790  0.00  0.00    +0.000 C 
ENDBRANCH  16  17
ENDBRANCH  15  16
ENDBRANCH  14  15
ENDBRANCH  11  14
ENDBRANCH  10  11
ENDBRANCH   2   9
BRANCH   3  19
ATOM     19  C   UNL     1      33.505 -23.836 -13.879  0.00  0.00    +0.033 C 
BRANCH  19  20
ATOM     20  C   UNL     1      34.718 -23.258 -14.557  0.00  0.00    -0.030 C 
ATOM     21  C   UNL     1      35.819 -23.919 -14.946  0.00  0.00    -0.031 C 
BRANCH  21  22
ATOM     22  C   UNL     1      36.013 -25.395 -14.755  0.00  0.00    +0.026 C 
BRANCH  22  23
ATOM     23  C   UNL     1      37.486 -25.819 -14.677  0.00  0.00    +0.016 C 
BRANCH  23  24
ATOM     24  C   UNL     1      38.251 -25.194 -13.506  0.00  0.00    +0.110 C 
BRANCH  24  26
ATOM     25  O   UNL     1      37.455 -24.497 -11.313  0.00  0.00    -0.250 OA
ATOM     26  C   UNL     1      37.562 -25.364 -12.170  0.00  0.00    +0.314 C 
BRANCH  26  27
ATOM     27  O   UNL     1      37.100 -26.630 -12.000  0.00  0.00    -0.480 OA
ATOM     28  H   UNL     1      37.320 -27.296 -12.621  0.00  0.00    +0.295 HD
ENDBRANCH  26  27
ENDBRANCH  24  26
ENDBRANCH  23  24
ENDBRANCH  22  23
ENDBRANCH  21  22
ENDBRANCH  19  20
ENDBRANCH   3  19
TORSDOF 15
ENDMDL
MODEL 7
REMARK VINA RESULT:      -8.1      5.977     11.747
REMARK  Name = 5280360
REMARK  15 active torsions:
REMARK  status: ('A' for Active; 'I' for Inactive)
REMARK    1  A    between atoms: C_2  and  C_9
REMARK    2  A    between atoms: C_3  and  C_19
REMARK    3  A    between atoms: C_4  and  O_7
REMARK    4  A    between atoms: C_10  and  C_11
REMARK    5  A    between atoms: C_11  and  O_12
REMARK    6  A    between atoms: C_11  and  C_14
REMARK    7  A    between atoms: C_14  and  C_15
REMARK    8  A    between atoms: C_15  and  C_16
REMARK    9  A    between atoms: C_16  and  C_17
REMARK   10  A    between atoms: C_19  and  C_20
REMARK   11  A    between atoms: C_21  and  C_22
REMARK   12  A    between atoms: C_22  and  C_23
REMARK   13  A    between atoms: C_23  and  C_24
REMARK   14  A    between atoms: C_24  and  C_26
REMARK   15  A    between atoms: C_26  and  O_27
REMARK                            x       y       z     vdW  Elec       q    Type
REMARK                         _______ _______ _______ _____ _____    ______ ____
ROOT
ATOM      1  O   UNL     1      33.502 -14.711 -24.424  0.00  0.00    -0.296 OA
ATOM      2  C   UNL     1      34.913 -17.150 -22.289  0.00  0.00    +0.056 C 
ATOM      3  C   UNL     1      33.838 -16.061 -22.434  0.00  0.00    +0.068 C 
ATOM      4  C   UNL     1      34.872 -17.887 -23.634  0.00  0.00    +0.122 C 
ATOM      5  C   UNL     1      34.710 -16.780 -24.673  0.00  0.00    +0.094 C 
ATOM      6  C   UNL     1      33.962 -15.721 -23.906  0.00  0.00    +0.153 C 
ENDROOT
BRANCH   4   7
ATOM      7  O   UNL     1      36.086 -18.590 -23.842  0.00  0.00    -0.384 OA
ATOM      8  H   UNL     1      35.977 -19.513 -23.566  0.00  0.00    +0.210 HD
ENDBRANCH   4   7
BRANCH   2   9
ATOM      9  C   UNL     1      34.663 -18.051 -21.123  0.00  0.00    -0.026 C 
ATOM     10  C   UNL     1      34.060 -19.246 -21.218  0.00  0.00    -0.002 C 
BRANCH  10  11
ATOM     11  C   UNL     1      33.810 -20.148 -20.043  0.00  0.00    +0.132 C 
BRANCH  11  12
ATOM     12  O   UNL     1      32.431 -20.525 -20.052  0.00  0.00    -0.380 OA
ATOM     13  H   UNL     1      32.224 -20.978 -20.885  0.00  0.00    +0.211 HD
ENDBRANCH  11  12
BRANCH  11  14
ATOM     14  C   UNL     1      34.640 -21.438 -20.093  0.00  0.00    +0.034 C 
BRANCH  14  15
ATOM     15  C   UNL     1      36.148 -21.184 -20.153  0.00  0.00    +0.003 C 
BRANCH  15  16
ATOM     16  C   UNL     1      36.815 -21.153 -18.774  0.00  0.00    +0.000 C 
BRANCH  16  17
ATOM     17  C   UNL     1      36.099 -22.010 -17.731  0.00  0.00    +0.000 C 
ATOM     18  C   UNL     1      36.960 -22.213 -16.493  0.00  0.00    +0.000 C 
ENDBRANCH  16  17
ENDBRANCH  15  16
ENDBRANCH  14  15
ENDBRANCH  11  14
ENDBRANCH  10  11
ENDBRANCH   2   9
BRANCH   3  19
ATOM     19  C   UNL     1      34.073 -14.858 -21.538  0.00  0.00    +0.033 C 
BRANCH  19  20
ATOM     20  C   UNL     1      33.032 -14.575 -20.488  0.00  0.00    -0.030 C 
ATOM     21  C   UNL     1      32.123 -13.589 -20.495  0.00  0.00    -0.031 C 
BRANCH  21  22
ATOM     22  C   UNL     1      32.004 -12.577 -21.598  0.00  0.00    +0.026 C 
BRANCH  22  23
ATOM     23  C   UNL     1      30.942 -11.501 -21.334  0.00  0.00    +0.016 C 
BRANCH  23  24
ATOM     24  C   UNL     1      31.233 -10.626 -20.110  0.00  0.00    +0.110 C 
BRANCH  24  26
ATOM     25  O   UNL     1      32.110  -8.851 -21.528  0.00  0.00    -0.250 OA
ATOM     26  C   UNL     1      32.032  -9.381 -20.428  0.00  0.00    +0.314 C 
BRANCH  26  27
ATOM     27  O   UNL     1      32.708  -8.927 -19.340  0.00  0.00    -0.480 OA
ATOM     28  H   UNL     1      33.135  -9.533 -18.768  0.00  0.00    +0.295 HD
ENDBRANCH  26  27
ENDBRANCH  24  26
ENDBRANCH  23  24
ENDBRANCH  22  23
ENDBRANCH  21  22
ENDBRANCH  19  20
ENDBRANCH   3  19
TORSDOF 15
ENDMDL
MODEL 8
REMARK VINA RESULT:      -8.1      6.923     11.928
REMARK  Name = 5280360
REMARK  15 active torsions:
REMARK  status: ('A' for Active; 'I' for Inactive)
REMARK    1  A    between atoms: C_2  and  C_9
REMARK    2  A    between atoms: C_3  and  C_19
REMARK    3  A    between atoms: C_4  and  O_7
REMARK    4  A    between atoms: C_10  and  C_11
REMARK    5  A    between atoms: C_11  and  O_12
REMARK    6  A    between atoms: C_11  and  C_14
REMARK    7  A    between atoms: C_14  and  C_15
REMARK    8  A    between atoms: C_15  and  C_16
REMARK    9  A    between atoms: C_16  and  C_17
REMARK   10  A    between atoms: C_19  and  C_20
REMARK   11  A    between atoms: C_21  and  C_22
REMARK   12  A    between atoms: C_22  and  C_23
REMARK   13  A    between atoms: C_23  and  C_24
REMARK   14  A    between atoms: C_24  and  C_26
REMARK   15  A    between atoms: C_26  and  O_27
REMARK                            x       y       z     vdW  Elec       q    Type
REMARK                         _______ _______ _______ _____ _____    ______ ____
ROOT
ATOM      1  O   UNL     1      35.471 -16.792 -23.583  0.00  0.00    -0.296 OA
ATOM      2  C   UNL     1      33.243 -14.055 -23.781  0.00  0.00    +0.056 C 
ATOM      3  C   UNL     1      34.501 -14.619 -23.103  0.00  0.00    +0.068 C 
ATOM      4  C   UNL     1      33.424 -14.427 -25.258  0.00  0.00    +0.122 C 
ATOM      5  C   UNL     1      33.989 -15.846 -25.229  0.00  0.00    +0.094 C 
ATOM      6  C   UNL     1      34.742 -15.869 -23.925  0.00  0.00    +0.153 C 
ENDROOT
BRANCH   4   7
ATOM      7  O   UNL     1      32.171 -14.404 -25.924  0.00  0.00    -0.384 OA
ATOM      8  H   UNL     1      31.468 -14.635 -25.298  0.00  0.00    +0.210 HD
ENDBRANCH   4   7
BRANCH   2   9
ATOM      9  C   UNL     1      33.085 -12.584 -23.566  0.00  0.00    -0.026 C 
ATOM     10  C   UNL     1      33.656 -11.650 -24.341  0.00  0.00    -0.002 C 
BRANCH  10  11
ATOM     11  C   UNL     1      33.497 -10.173 -24.121  0.00  0.00    +0.132 C 
BRANCH  11  12
ATOM     12  O   UNL     1      32.932  -9.970 -22.823  0.00  0.00    -0.380 OA
ATOM     13  H   UNL     1      33.131  -9.070 -22.521  0.00  0.00    +0.211 HD
ENDBRANCH  11  12
BRANCH  11  14
ATOM     14  C   UNL     1      34.830  -9.415 -24.166  0.00  0.00    +0.034 C 
BRANCH  14  15
ATOM     15  C   UNL     1      34.753  -8.018 -23.542  0.00  0.00    +0.003 C 
BRANCH  15  16
ATOM     16  C   UNL     1      34.045  -6.993 -24.432  0.00  0.00    +0.000 C 
BRANCH  16  17
ATOM     17  C   UNL     1      32.828  -6.347 -23.769  0.00  0.00    +0.000 C 
ATOM     18  C   UNL     1      31.533  -7.001 -24.228  0.00  0.00    +0.000 C 
ENDBRANCH  16  17
ENDBRANCH  15  16
ENDBRANCH  14  15
ENDBRANCH  11  14
ENDBRANCH  10  11
ENDBRANCH   2   9
BRANCH   3  19
ATOM     19  C   UNL     1      34.307 -14.921 -21.627  0.00  0.00    +0.033 C 
BRANCH  19  20
ATOM     20  C   UNL     1      33.073 -15.692 -21.245  0.00  0.00    -0.030 C 
ATOM     21  C   UNL     1      32.994 -16.997 -20.943  0.00  0.00    -0.031 C 
BRANCH  21  22
ATOM     22  C   UNL     1      34.177 -17.921 -20.940  0.00  0.00    +0.026 C 
BRANCH  22  23
ATOM     23  C   UNL     1      33.850 -19.341 -21.422  0.00  0.00    +0.016 C 
BRANCH  23  24
ATOM     24  C   UNL     1      32.929 -20.121 -20.479  0.00  0.00    +0.110 C 
BRANCH  24  26
ATOM     25  O   UNL     1      34.845 -21.246 -19.481  0.00  0.00    -0.250 OA
ATOM     26  C   UNL     1      33.640 -21.195 -19.684  0.00  0.00    +0.314 C 
BRANCH  26  27
ATOM     27  O   UNL     1      32.777 -22.148 -19.245  0.00  0.00    -0.480 OA
ATOM     28  H   UNL     1      32.961 -23.054 -19.399  0.00  0.00    +0.295 HD
ENDBRANCH  26  27
ENDBRANCH  24  26
ENDBRANCH  23  24
ENDBRANCH  22  23
ENDBRANCH  21  22
ENDBRANCH  19  20
ENDBRANCH   3  19
TORSDOF 15
ENDMDL
MODEL 9
REMARK VINA RESULT:      -8.0      5.897     10.584
REMARK  Name = 5280360
REMARK  15 active torsions:
REMARK  status: ('A' for Active; 'I' for Inactive)
REMARK    1  A    between atoms: C_2  and  C_9
REMARK    2  A    between atoms: C_3  and  C_19
REMARK    3  A    between atoms: C_4  and  O_7
REMARK    4  A    between atoms: C_10  and  C_11
REMARK    5  A    between atoms: C_11  and  O_12
REMARK    6  A    between atoms: C_11  and  C_14
REMARK    7  A    between atoms: C_14  and  C_15
REMARK    8  A    between atoms: C_15  and  C_16
REMARK    9  A    between atoms: C_16  and  C_17
REMARK   10  A    between atoms: C_19  and  C_20
REMARK   11  A    between atoms: C_21  and  C_22
REMARK   12  A    between atoms: C_22  and  C_23
REMARK   13  A    between atoms: C_23  and  C_24
REMARK   14  A    between atoms: C_24  and  C_26
REMARK   15  A    between atoms: C_26  and  O_27
REMARK                            x       y       z     vdW  Elec       q    Type
REMARK                         _______ _______ _______ _____ _____    ______ ____
ROOT
ATOM      1  O   UNL     1      35.738 -17.595 -23.893  0.00  0.00    -0.296 OA
ATOM      2  C   UNL     1      33.421 -14.977 -23.367  0.00  0.00    +0.056 C 
ATOM      3  C   UNL     1      34.701 -15.659 -22.858  0.00  0.00    +0.068 C 
ATOM      4  C   UNL     1      33.606 -14.939 -24.890  0.00  0.00    +0.122 C 
ATOM      5  C   UNL     1      34.217 -16.296 -25.235  0.00  0.00    +0.094 C 
ATOM      6  C   UNL     1      34.978 -16.638 -23.981  0.00  0.00    +0.153 C 
ENDROOT
BRANCH   4   7
ATOM      7  O   UNL     1      32.350 -14.782 -25.530  0.00  0.00    -0.384 OA
ATOM      8  H   UNL     1      31.642 -15.041 -24.920  0.00  0.00    +0.210 HD
ENDBRANCH   4   7
BRANCH   2   9
ATOM      9  C   UNL     1      33.217 -13.622 -22.771  0.00  0.00    -0.026 C 
ATOM     10  C   UNL     1      32.084 -13.235 -22.166  0.00  0.00    -0.002 C 
BRANCH  10  11
ATOM     11  C   UNL     1      31.881 -11.871 -21.570  0.00  0.00    +0.132 C 
BRANCH  11  12
ATOM     12  O   UNL     1      30.721 -11.287 -22.166  0.00  0.00    -0.380 OA
ATOM     13  H   UNL     1      30.253 -10.751 -21.507  0.00  0.00    +0.211 HD
ENDBRANCH  11  12
BRANCH  11  14
ATOM     14  C   UNL     1      31.649 -11.910 -20.054  0.00  0.00    +0.034 C 
BRANCH  14  15
ATOM     15  C   UNL     1      31.222 -10.559 -19.472  0.00  0.00    +0.003 C 
BRANCH  15  16
ATOM     16  C   UNL     1      32.331  -9.503 -19.511  0.00  0.00    +0.000 C 
BRANCH  16  17
ATOM     17  C   UNL     1      31.957  -8.255 -20.309  0.00  0.00    +0.000 C 
ATOM     18  C   UNL     1      32.778  -8.147 -21.586  0.00  0.00    +0.000 C 
ENDBRANCH  16  17
ENDBRANCH  15  16
ENDBRANCH  14  15
ENDBRANCH  11  14
ENDBRANCH  10  11
ENDBRANCH   2   9
BRANCH   3  19
ATOM     19  C   UNL     1      34.525 -16.347 -21.516  0.00  0.00    +0.033 C 
BRANCH  19  20
ATOM     20  C   UNL     1      33.664 -17.581 -21.489  0.00  0.00    -0.030 C 
ATOM     21  C   UNL     1      34.053 -18.834 -21.211  0.00  0.00    -0.031 C 
BRANCH  21  22
ATOM     22  C   UNL     1      35.466 -19.208 -20.869  0.00  0.00    +0.026 C 
BRANCH  22  23
ATOM     23  C   UNL     1      35.602 -20.610 -20.257  0.00  0.00    +0.016 C 
BRANCH  23  24
ATOM     24  C   UNL     1      34.279 -21.204 -19.765  0.00  0.00    +0.110 C 
BRANCH  24  26
ATOM     25  O   UNL     1      33.849 -23.581 -19.450  0.00  0.00    -0.250 OA
ATOM     26  C   UNL     1      34.428 -22.559 -19.107  0.00  0.00    +0.314 C 
BRANCH  26  27
ATOM     27  O   UNL     1      35.264 -22.507 -18.037  0.00  0.00    -0.480 OA
ATOM     28  H   UNL     1      35.816 -21.761 -17.909  0.00  0.00    +0.295 HD
ENDBRANCH  26  27
ENDBRANCH  24  26
ENDBRANCH  23  24
ENDBRANCH  22  23
ENDBRANCH  21  22
ENDBRANCH  19  20
ENDBRANCH   3  19
TORSDOF 15
ENDMDL
