MODEL 1
REMARK VINA RESULT:     -10.4      0.000      0.000
REMARK  Name = 9604654
REMARK  6 active torsions:
REMARK  status: ('A' for Active; 'I' for Inactive)
REMARK    1  A    between atoms: O_1  and  C_2
REMARK    2  A    between atoms: O_1  and  C_17
REMARK    3  A    between atoms: C_2  and  P_3
REMARK    4  A    between atoms: C_7  and  C_11
REMARK    5  A    between atoms: C_17  and  C_18
REMARK    6  A    between atoms: C_18  and  N_19
REMARK                            x       y       z     vdW  Elec       q    Type
REMARK                         _______ _______ _______ _____ _____    ______ ____
ROOT
ATOM      1  O   UNL     1      34.116 -20.067 -19.938  0.00  0.00    -0.340 OA
ENDROOT
BRANCH   1   2
ATOM      2  C   UNL     1      34.024 -19.534 -21.250  0.00  0.00    +0.258 C 
BRANCH   2   3
ATOM      3  P   UNL     1      35.525 -18.594 -21.442  0.00  0.00    +0.373 P 
ATOM      4  O   UNL     1      35.049 -17.050 -21.499  0.00  0.00    -0.290 OA
ATOM      5  O   UNL     1      36.038 -18.913 -22.939  0.00  0.00    -0.292 OA
ATOM      6  O   UNL     1      36.537 -18.880 -20.371  0.00  0.00    -0.255 OA
ATOM      7  C   UNL     1      34.936 -16.381 -22.755  0.00  0.00    +0.149 C 
ATOM      8  C   UNL     1      34.376 -17.318 -23.826  0.00  0.00    +0.067 C 
ATOM      9  C   UNL     1      35.288 -18.517 -24.077  0.00  0.00    +0.154 C 
BRANCH   7  11
ATOM     10 CL   UNL     1      33.564 -11.606 -24.348  0.00  0.00    -0.082 Cl
ATOM     11  C   UNL     1      34.070 -15.156 -22.574  0.00  0.00    +0.006 C 
ATOM     12  C   UNL     1      34.201 -14.071 -23.443  0.00  0.00    +0.009 C 
ATOM     13  C   UNL     1      33.135 -15.108 -21.539  0.00  0.00    -0.002 C 
ATOM     14  C   UNL     1      33.400 -12.942 -23.277  0.00  0.00    +0.057 C 
ATOM     15  C   UNL     1      32.334 -13.978 -21.372  0.00  0.00    +0.001 C 
ATOM     16  C   UNL     1      32.467 -12.895 -22.241  0.00  0.00    +0.011 C 
ENDBRANCH   7  11
ENDBRANCH   2   3
ENDBRANCH   1   2
BRANCH   1  17
ATOM     17  C   UNL     1      33.350 -21.256 -19.803  0.00  0.00    +0.164 C 
BRANCH  17  18
ATOM     18  C   UNL     1      34.266 -22.416 -19.440  0.00  0.00    +0.126 C 
BRANCH  18  19
ATOM     19  N   UNL     1      34.238 -22.728 -18.012  0.00  0.00    -0.269 N 
ATOM     20  N   UNL     1      33.432 -23.358 -16.051  0.00  0.00    -0.242 NA
ATOM     21  N   UNL     1      36.538 -22.247 -17.410  0.00  0.00    -0.228 NA
ATOM     22  N   UNL     1      36.916 -22.653 -15.034  0.00  0.00    -0.229 NA
ATOM     23  C   UNL     1      35.280 -22.635 -17.152  0.00  0.00    +0.151 C 
ATOM     24  C   UNL     1      34.759 -23.033 -15.931  0.00  0.00    +0.140 C 
ATOM     25  C   UNL     1      33.150 -23.161 -17.322  0.00  0.00    +0.221 C 
ATOM     26  C   UNL     1      35.630 -23.033 -14.846  0.00  0.00    +0.143 C 
ATOM     27  C   UNL     1      37.285 -22.289 -16.286  0.00  0.00    +0.253 C 
ATOM     28  N   UNL     1      35.188 -23.424 -13.570  0.00  0.00    -0.342 N 
ATOM     29  H   UNL     1      35.813 -23.421 -12.810  0.00  0.00    +0.144 HD
ATOM     30  H   UNL     1      34.252 -23.700 -13.437  0.00  0.00    +0.144 HD
ENDBRANCH  18  19
ENDBRANCH  17  18
ENDBRANCH   1  17
TORSDOF 6
ENDMDL
MODEL 2
REMARK VINA RESULT:     -10.4      3.116      5.067
REMARK  Name = 9604654
REMARK  6 active torsions:
REMARK  status: ('A' for Active; 'I' for Inactive)
REMARK    1  A    between atoms: O_1  and  C_2
REMARK    2  A    between atoms: O_1  and  C_17
REMARK    3  A    between atoms: C_2  and  P_3
REMARK    4  A    between atoms: C_7  and  C_11
REMARK    5  A    between atoms: C_17  and  C_18
REMARK    6  A    between atoms: C_18  and  N_19
REMARK                            x       y       z     vdW  Elec       q    Type
REMARK                         _______ _______ _______ _____ _____    ______ ____
ROOT
ATOM      1  O   UNL     1      35.169 -16.080 -22.592  0.00  0.00    -0.340 OA
ENDROOT
BRANCH   1   2
ATOM      2  C   UNL     1      34.822 -14.723 -22.361  0.00  0.00    +0.258 C 
BRANCH   2   3
ATOM      3  P   UNL     1      33.458 -14.431 -23.470  0.00  0.00    +0.373 P 
ATOM      4  O   UNL     1      33.584 -12.875 -23.890  0.00  0.00    -0.290 OA
ATOM      5  O   UNL     1      32.137 -14.493 -22.544  0.00  0.00    -0.292 OA
ATOM      6  O   UNL     1      33.437 -15.377 -24.635  0.00  0.00    -0.255 OA
ATOM      7  C   UNL     1      32.765 -11.894 -23.255  0.00  0.00    +0.149 C 
ATOM      8  C   UNL     1      32.601 -12.197 -21.765  0.00  0.00    +0.067 C 
ATOM      9  C   UNL     1      31.905 -13.535 -21.523  0.00  0.00    +0.154 C 
BRANCH   7  11
ATOM     10 CL   UNL     1      32.710  -6.758 -22.332  0.00  0.00    -0.082 Cl
ATOM     11  C   UNL     1      33.377 -10.531 -23.485  0.00  0.00    +0.006 C 
ATOM     12  C   UNL     1      32.825  -9.403 -22.874  0.00  0.00    +0.009 C 
ATOM     13  C   UNL     1      34.497 -10.398 -24.307  0.00  0.00    -0.002 C 
ATOM     14  C   UNL     1      33.392  -8.147 -23.085  0.00  0.00    +0.057 C 
ATOM     15  C   UNL     1      35.064  -9.142 -24.519  0.00  0.00    +0.001 C 
ATOM     16  C   UNL     1      34.511  -8.016 -23.908  0.00  0.00    +0.011 C 
ENDBRANCH   7  11
ENDBRANCH   2   3
ENDBRANCH   1   2
BRANCH   1  17
ATOM     17  C   UNL     1      34.788 -16.907 -21.502  0.00  0.00    +0.164 C 
BRANCH  17  18
ATOM     18  C   UNL     1      35.349 -18.308 -21.702  0.00  0.00    +0.126 C 
BRANCH  18  19
ATOM     19  N   UNL     1      34.547 -19.334 -21.039  0.00  0.00    -0.269 N 
ATOM     20  N   UNL     1      32.763 -20.503 -20.453  0.00  0.00    -0.242 NA
ATOM     21  N   UNL     1      36.266 -20.490 -19.776  0.00  0.00    -0.228 NA
ATOM     22  N   UNL     1      35.309 -22.331 -18.491  0.00  0.00    -0.229 NA
ATOM     23  C   UNL     1      35.006 -20.283 -20.189  0.00  0.00    +0.151 C 
ATOM     24  C   UNL     1      33.878 -21.006 -19.833  0.00  0.00    +0.140 C 
ATOM     25  C   UNL     1      33.204 -19.493 -21.174  0.00  0.00    +0.221 C 
ATOM     26  C   UNL     1      34.062 -22.064 -18.949  0.00  0.00    +0.143 C 
ATOM     27  C   UNL     1      36.318 -21.539 -18.927  0.00  0.00    +0.253 C 
ATOM     28  N   UNL     1      32.974 -22.852 -18.536  0.00  0.00    -0.342 N 
ATOM     29  H   UNL     1      33.116 -23.599 -17.910  0.00  0.00    +0.144 HD
ATOM     30  H   UNL     1      32.069 -22.656 -18.871  0.00  0.00    +0.144 HD
ENDBRANCH  18  19
ENDBRANCH  17  18
ENDBRANCH   1  17
TORSDOF 6
ENDMDL
MODEL 3
REMARK VINA RESULT:     -10.2      2.814      4.670
REMARK  Name = 9604654
REMARK  6 active torsions:
REMARK  status: ('A' for Active; 'I' for Inactive)
REMARK    1  A    between atoms: O_1  and  C_2
REMARK    2  A    between atoms: O_1  and  C_17
REMARK    3  A    between atoms: C_2  and  P_3
REMARK    4  A    between atoms: C_7  and  C_11
REMARK    5  A    between atoms: C_17  and  C_18
REMARK    6  A    between atoms: C_18  and  N_19
REMARK                            x       y       z     vdW  Elec       q    Type
REMARK                         _______ _______ _______ _____ _____    ______ ____
ROOT
ATOM      1  O   UNL     1      35.382 -16.147 -22.415  0.00  0.00    -0.340 OA
ENDROOT
BRANCH   1   2
ATOM      2  C   UNL     1      34.920 -14.854 -22.054  0.00  0.00    +0.258 C 
BRANCH   2   3
ATOM      3  P   UNL     1      33.304 -14.751 -22.798  0.00  0.00    +0.373 P 
ATOM      4  O   UNL     1      32.783 -13.257 -22.463  0.00  0.00    -0.290 OA
ATOM      5  O   UNL     1      32.363 -15.714 -21.907  0.00  0.00    -0.292 OA
ATOM      6  O   UNL     1      33.311 -15.080 -24.262  0.00  0.00    -0.255 OA
ATOM      7  C   UNL     1      31.869 -13.041 -21.388  0.00  0.00    +0.149 C 
ATOM      8  C   UNL     1      32.202 -13.941 -20.197  0.00  0.00    +0.067 C 
ATOM      9  C   UNL     1      32.087 -15.424 -20.545  0.00  0.00    +0.154 C 
BRANCH   7  11
ATOM     10 CL   UNL     1      32.201  -8.051 -22.876  0.00  0.00    -0.082 Cl
ATOM     11  C   UNL     1      31.903 -11.578 -21.011  0.00  0.00    +0.006 C 
ATOM     12  C   UNL     1      32.023 -10.602 -22.003  0.00  0.00    +0.009 C 
ATOM     13  C   UNL     1      31.812 -11.200 -19.671  0.00  0.00    -0.002 C 
ATOM     14  C   UNL     1      32.053  -9.252 -21.653  0.00  0.00    +0.057 C 
ATOM     15  C   UNL     1      31.842  -9.850 -19.321  0.00  0.00    +0.001 C 
ATOM     16  C   UNL     1      31.963  -8.876 -20.313  0.00  0.00    +0.011 C 
ENDBRANCH   7  11
ENDBRANCH   2   3
ENDBRANCH   1   2
BRANCH   1  17
ATOM     17  C   UNL     1      35.218 -17.075 -21.352  0.00  0.00    +0.164 C 
BRANCH  17  18
ATOM     18  C   UNL     1      35.341 -18.495 -21.888  0.00  0.00    +0.126 C 
BRANCH  18  19
ATOM     19  N   UNL     1      34.527 -19.450 -21.141  0.00  0.00    -0.269 N 
ATOM     20  N   UNL     1      32.723 -20.517 -20.431  0.00  0.00    -0.242 NA
ATOM     21  N   UNL     1      36.245 -20.590 -19.864  0.00  0.00    -0.228 NA
ATOM     22  N   UNL     1      35.268 -22.316 -18.441  0.00  0.00    -0.229 NA
ATOM     23  C   UNL     1      34.980 -20.363 -20.249  0.00  0.00    +0.151 C 
ATOM     24  C   UNL     1      33.841 -21.022 -19.816  0.00  0.00    +0.140 C 
ATOM     25  C   UNL     1      33.175 -19.568 -21.225  0.00  0.00    +0.221 C 
ATOM     26  C   UNL     1      34.017 -22.033 -18.876  0.00  0.00    +0.143 C 
ATOM     27  C   UNL     1      36.289 -21.588 -18.955  0.00  0.00    +0.253 C 
ATOM     28  N   UNL     1      32.916 -22.755 -18.383  0.00  0.00    -0.342 N 
ATOM     29  H   UNL     1      33.054 -23.468 -17.718  0.00  0.00    +0.144 HD
ATOM     30  H   UNL     1      32.008 -22.547 -18.701  0.00  0.00    +0.144 HD
ENDBRANCH  18  19
ENDBRANCH  17  18
ENDBRANCH   1  17
TORSDOF 6
ENDMDL
MODEL 4
REMARK VINA RESULT:     -10.0      5.770      9.625
REMARK  Name = 9604654
REMARK  6 active torsions:
REMARK  status: ('A' for Active; 'I' for Inactive)
REMARK    1  A    between atoms: O_1  and  C_2
REMARK    2  A    between atoms: O_1  and  C_17
REMARK    3  A    between atoms: C_2  and  P_3
REMARK    4  A    between atoms: C_7  and  C_11
REMARK    5  A    between atoms: C_17  and  C_18
REMARK    6  A    between atoms: C_18  and  N_19
REMARK                            x       y       z     vdW  Elec       q    Type
REMARK                         _______ _______ _______ _____ _____    ______ ____
ROOT
ATOM      1  O   UNL     1      36.510 -23.348 -16.110  0.00  0.00    -0.340 OA
ENDROOT
BRANCH   1   2
ATOM      2  C   UNL     1      37.448 -23.872 -15.182  0.00  0.00    +0.258 C 
BRANCH   2   3
ATOM      3  P   UNL     1      36.720 -25.410 -14.654  0.00  0.00    +0.373 P 
ATOM      4  O   UNL     1      35.141 -25.254 -14.962  0.00  0.00    -0.290 OA
ATOM      5  O   UNL     1      36.820 -25.396 -13.043  0.00  0.00    -0.292 OA
ATOM      6  O   UNL     1      37.351 -26.610 -15.299  0.00  0.00    -0.255 OA
ATOM      7  C   UNL     1      34.236 -24.919 -13.910  0.00  0.00    +0.149 C 
ATOM      8  C   UNL     1      34.858 -23.900 -12.955  0.00  0.00    +0.067 C 
ATOM      9  C   UNL     1      36.109 -24.444 -12.266  0.00  0.00    +0.154 C 
BRANCH   7  11
ATOM     10 CL   UNL     1      29.061 -25.326 -14.445  0.00  0.00    -0.082 Cl
ATOM     11  C   UNL     1      32.954 -24.403 -14.522  0.00  0.00    +0.006 C 
ATOM     12  C   UNL     1      31.739 -25.030 -14.235  0.00  0.00    +0.009 C 
ATOM     13  C   UNL     1      32.981 -23.296 -15.372  0.00  0.00    -0.002 C 
ATOM     14  C   UNL     1      30.557 -24.552 -14.798  0.00  0.00    +0.057 C 
ATOM     15  C   UNL     1      31.799 -22.818 -15.936  0.00  0.00    +0.001 C 
ATOM     16  C   UNL     1      30.586 -23.446 -15.649  0.00  0.00    +0.011 C 
ENDBRANCH   7  11
ENDBRANCH   2   3
ENDBRANCH   1   2
BRANCH   1  17
ATOM     17  C   UNL     1      36.860 -22.033 -16.519  0.00  0.00    +0.164 C 
BRANCH  17  18
ATOM     18  C   UNL     1      36.979 -21.983 -18.035  0.00  0.00    +0.126 C 
BRANCH  18  19
ATOM     19  N   UNL     1      35.703 -21.707 -18.690  0.00  0.00    -0.269 N 
ATOM     20  N   UNL     1      33.558 -21.896 -19.197  0.00  0.00    -0.242 NA
ATOM     21  N   UNL     1      36.343 -19.883 -20.154  0.00  0.00    -0.228 NA
ATOM     22  N   UNL     1      34.434 -19.109 -21.464  0.00  0.00    -0.229 NA
ATOM     23  C   UNL     1      35.473 -20.759 -19.629  0.00  0.00    +0.151 C 
ATOM     24  C   UNL     1      34.128 -20.890 -19.935  0.00  0.00    +0.140 C 
ATOM     25  C   UNL     1      34.539 -22.369 -18.456  0.00  0.00    +0.221 C 
ATOM     26  C   UNL     1      33.612 -20.021 -20.891  0.00  0.00    +0.143 C 
ATOM     27  C   UNL     1      35.730 -19.097 -21.065  0.00  0.00    +0.253 C 
ATOM     28  N   UNL     1      32.258 -20.081 -21.260  0.00  0.00    -0.342 N 
ATOM     29  H   UNL     1      31.904 -19.461 -21.938  0.00  0.00    +0.144 HD
ATOM     30  H   UNL     1      31.662 -20.745 -20.842  0.00  0.00    +0.144 HD
ENDBRANCH  18  19
ENDBRANCH  17  18
ENDBRANCH   1  17
TORSDOF 6
ENDMDL
MODEL 5
REMARK VINA RESULT:      -9.9      1.012      1.953
REMARK  Name = 9604654
REMARK  6 active torsions:
REMARK  status: ('A' for Active; 'I' for Inactive)
REMARK    1  A    between atoms: O_1  and  C_2
REMARK    2  A    between atoms: O_1  and  C_17
REMARK    3  A    between atoms: C_2  and  P_3
REMARK    4  A    between atoms: C_7  and  C_11
REMARK    5  A    between atoms: C_17  and  C_18
REMARK    6  A    between atoms: C_18  and  N_19
REMARK                            x       y       z     vdW  Elec       q    Type
REMARK                         _______ _______ _______ _____ _____    ______ ____
ROOT
ATOM      1  O   UNL     1      34.083 -20.097 -19.870  0.00  0.00    -0.340 OA
ENDROOT
BRANCH   1   2
ATOM      2  C   UNL     1      34.056 -19.639 -21.213  0.00  0.00    +0.258 C 
BRANCH   2   3
ATOM      3  P   UNL     1      35.555 -18.689 -21.375  0.00  0.00    +0.373 P 
ATOM      4  O   UNL     1      35.070 -17.148 -21.436  0.00  0.00    -0.290 OA
ATOM      5  O   UNL     1      36.096 -18.999 -22.864  0.00  0.00    -0.292 OA
ATOM      6  O   UNL     1      36.549 -18.973 -20.287  0.00  0.00    -0.255 OA
ATOM      7  C   UNL     1      34.974 -16.476 -22.691  0.00  0.00    +0.149 C 
ATOM      8  C   UNL     1      34.439 -17.412 -23.775  0.00  0.00    +0.067 C 
ATOM      9  C   UNL     1      35.364 -18.604 -24.014  0.00  0.00    +0.154 C 
BRANCH   7  11
ATOM     10 CL   UNL     1      33.561 -11.726 -24.325  0.00  0.00    -0.082 Cl
ATOM     11  C   UNL     1      34.097 -15.257 -22.521  0.00  0.00    +0.006 C 
ATOM     12  C   UNL     1      34.220 -14.178 -23.399  0.00  0.00    +0.009 C 
ATOM     13  C   UNL     1      33.160 -15.209 -21.488  0.00  0.00    -0.002 C 
ATOM     14  C   UNL     1      33.409 -13.055 -23.243  0.00  0.00    +0.057 C 
ATOM     15  C   UNL     1      32.348 -14.085 -21.331  0.00  0.00    +0.001 C 
ATOM     16  C   UNL     1      32.473 -13.008 -22.208  0.00  0.00    +0.011 C 
ENDBRANCH   7  11
ENDBRANCH   2   3
ENDBRANCH   1   2
BRANCH   1  17
ATOM     17  C   UNL     1      34.270 -21.504 -19.802  0.00  0.00    +0.164 C 
BRANCH  17  18
ATOM     18  C   UNL     1      33.245 -22.112 -18.856  0.00  0.00    +0.126 C 
BRANCH  18  19
ATOM     19  N   UNL     1      33.855 -22.675 -17.654  0.00  0.00    -0.269 N 
ATOM     20  N   UNL     1      35.435 -23.296 -16.236  0.00  0.00    -0.242 NA
ATOM     21  N   UNL     1      31.874 -23.373 -16.440  0.00  0.00    -0.228 NA
ATOM     22  N   UNL     1      32.478 -24.396 -14.308  0.00  0.00    -0.229 NA
ATOM     23  C   UNL     1      33.197 -23.226 -16.605  0.00  0.00    +0.151 C 
ATOM     24  C   UNL     1      34.199 -23.608 -15.728  0.00  0.00    +0.140 C 
ATOM     25  C   UNL     1      35.189 -22.734 -17.401  0.00  0.00    +0.221 C 
ATOM     26  C   UNL     1      33.800 -24.214 -14.541  0.00  0.00    +0.143 C 
ATOM     27  C   UNL     1      31.610 -23.970 -15.258  0.00  0.00    +0.253 C 
ATOM     28  N   UNL     1      34.749 -24.632 -13.593  0.00  0.00    -0.342 N 
ATOM     29  H   UNL     1      34.453 -25.059 -12.756  0.00  0.00    +0.144 HD
ATOM     30  H   UNL     1      35.709 -24.498 -13.765  0.00  0.00    +0.144 HD
ENDBRANCH  18  19
ENDBRANCH  17  18
ENDBRANCH   1  17
TORSDOF 6
ENDMDL
MODEL 6
REMARK VINA RESULT:      -9.9      6.614      9.543
REMARK  Name = 9604654
REMARK  6 active torsions:
REMARK  status: ('A' for Active; 'I' for Inactive)
REMARK    1  A    between atoms: O_1  and  C_2
REMARK    2  A    between atoms: O_1  and  C_17
REMARK    3  A    between atoms: C_2  and  P_3
REMARK    4  A    between atoms: C_7  and  C_11
REMARK    5  A    between atoms: C_17  and  C_18
REMARK    6  A    between atoms: C_18  and  N_19
REMARK                            x       y       z     vdW  Elec       q    Type
REMARK                         _______ _______ _______ _____ _____    ______ ____
ROOT
ATOM      1  O   UNL     1      32.796 -11.745 -23.394  0.00  0.00    -0.340 OA
ENDROOT
BRANCH   1   2
ATOM      2  C   UNL     1      33.155 -10.397 -23.134  0.00  0.00    +0.258 C 
BRANCH   2   3
ATOM      3  P   UNL     1      31.658  -9.665 -22.504  0.00  0.00    +0.373 P 
ATOM      4  O   UNL     1      31.461  -8.308 -23.361  0.00  0.00    -0.290 OA
ATOM      5  O   UNL     1      32.027  -9.153 -21.018  0.00  0.00    -0.292 OA
ATOM      6  O   UNL     1      30.482 -10.596 -22.560  0.00  0.00    -0.255 OA
ATOM      7  C   UNL     1      31.842  -7.050 -22.806  0.00  0.00    +0.149 C 
ATOM      8  C   UNL     1      33.133  -7.175 -21.997  0.00  0.00    +0.067 C 
ATOM      9  C   UNL     1      32.978  -8.121 -20.807  0.00  0.00    +0.154 C 
BRANCH   7  11
ATOM     10 CL   UNL     1      34.586  -5.229 -26.854  0.00  0.00    -0.082 Cl
ATOM     11  C   UNL     1      31.981  -6.048 -23.930  0.00  0.00    +0.006 C 
ATOM     12  C   UNL     1      33.091  -6.095 -24.776  0.00  0.00    +0.009 C 
ATOM     13  C   UNL     1      30.999  -5.077 -24.125  0.00  0.00    -0.002 C 
ATOM     14  C   UNL     1      33.218  -5.171 -25.813  0.00  0.00    +0.057 C 
ATOM     15  C   UNL     1      31.125  -4.153 -25.163  0.00  0.00    +0.001 C 
ATOM     16  C   UNL     1      32.235  -4.200 -26.006  0.00  0.00    +0.011 C 
ENDBRANCH   7  11
ENDBRANCH   2   3
ENDBRANCH   1   2
BRANCH   1  17
ATOM     17  C   UNL     1      33.859 -12.457 -24.013  0.00  0.00    +0.164 C 
BRANCH  17  18
ATOM     18  C   UNL     1      33.450 -13.908 -24.221  0.00  0.00    +0.126 C 
BRANCH  18  19
ATOM     19  N   UNL     1      34.007 -14.800 -23.207  0.00  0.00    -0.269 N 
ATOM     20  N   UNL     1      34.699 -15.498 -21.225  0.00  0.00    -0.242 NA
ATOM     21  N   UNL     1      34.471 -16.764 -24.554  0.00  0.00    -0.228 NA
ATOM     22  N   UNL     1      35.442 -18.541 -23.191  0.00  0.00    -0.229 NA
ATOM     23  C   UNL     1      34.449 -16.065 -23.409  0.00  0.00    +0.151 C 
ATOM     24  C   UNL     1      34.877 -16.487 -22.160  0.00  0.00    +0.140 C 
ATOM     25  C   UNL     1      34.173 -14.493 -21.894  0.00  0.00    +0.221 C 
ATOM     26  C   UNL     1      35.389 -17.777 -22.074  0.00  0.00    +0.143 C 
ATOM     27  C   UNL     1      34.986 -17.995 -24.345  0.00  0.00    +0.253 C 
ATOM     28  N   UNL     1      35.845 -18.289 -20.846  0.00  0.00    -0.342 N 
ATOM     29  H   UNL     1      36.205 -19.204 -20.798  0.00  0.00    +0.144 HD
ATOM     30  H   UNL     1      35.804 -17.732 -20.036  0.00  0.00    +0.144 HD
ENDBRANCH  18  19
ENDBRANCH  17  18
ENDBRANCH   1  17
TORSDOF 6
ENDMDL
MODEL 7
REMARK VINA RESULT:      -9.8      3.411      5.697
REMARK  Name = 9604654
REMARK  6 active torsions:
REMARK  status: ('A' for Active; 'I' for Inactive)
REMARK    1  A    between atoms: O_1  and  C_2
REMARK    2  A    between atoms: O_1  and  C_17
REMARK    3  A    between atoms: C_2  and  P_3
REMARK    4  A    between atoms: C_7  and  C_11
REMARK    5  A    between atoms: C_17  and  C_18
REMARK    6  A    between atoms: C_18  and  N_19
REMARK                            x       y       z     vdW  Elec       q    Type
REMARK                         _______ _______ _______ _____ _____    ______ ____
ROOT
ATOM      1  O   UNL     1      34.956 -15.278 -23.216  0.00  0.00    -0.340 OA
ENDROOT
BRANCH   1   2
ATOM      2  C   UNL     1      34.559 -13.983 -22.791  0.00  0.00    +0.258 C 
BRANCH   2   3
ATOM      3  P   UNL     1      32.827 -13.906 -23.203  0.00  0.00    +0.373 P 
ATOM      4  O   UNL     1      32.396 -12.374 -22.920  0.00  0.00    -0.290 OA
ATOM      5  O   UNL     1      32.078 -14.755 -22.051  0.00  0.00    -0.292 OA
ATOM      6  O   UNL     1      32.535 -14.374 -24.599  0.00  0.00    -0.255 OA
ATOM      7  C   UNL     1      31.720 -12.032 -21.711  0.00  0.00    +0.149 C 
ATOM      8  C   UNL     1      32.279 -12.823 -20.527  0.00  0.00    +0.067 C 
ATOM      9  C   UNL     1      32.084 -14.329 -20.697  0.00  0.00    +0.154 C 
BRANCH   7  11
ATOM     10 CL   UNL     1      31.980  -7.230 -23.736  0.00  0.00    -0.082 Cl
ATOM     11  C   UNL     1      31.840 -10.541 -21.494  0.00  0.00    +0.006 C 
ATOM     12  C   UNL     1      31.853  -9.673 -22.588  0.00  0.00    +0.009 C 
ATOM     13  C   UNL     1      31.937 -10.029 -20.200  0.00  0.00    -0.002 C 
ATOM     14  C   UNL     1      31.963  -8.298 -22.387  0.00  0.00    +0.057 C 
ATOM     15  C   UNL     1      32.047  -8.653 -19.998  0.00  0.00    +0.001 C 
ATOM     16  C   UNL     1      32.060  -7.787 -21.092  0.00  0.00    +0.011 C 
ENDBRANCH   7  11
ENDBRANCH   2   3
ENDBRANCH   1   2
BRANCH   1  17
ATOM     17  C   UNL     1      34.940 -16.207 -22.141  0.00  0.00    +0.164 C 
BRANCH  17  18
ATOM     18  C   UNL     1      34.898 -17.626 -22.690  0.00  0.00    +0.126 C 
BRANCH  18  19
ATOM     19  N   UNL     1      35.359 -18.617 -21.721  0.00  0.00    -0.269 N 
ATOM     20  N   UNL     1      36.755 -19.761 -20.441  0.00  0.00    -0.242 NA
ATOM     21  N   UNL     1      33.260 -19.695 -21.158  0.00  0.00    -0.228 NA
ATOM     22  N   UNL     1      33.607 -21.467 -19.516  0.00  0.00    -0.229 NA
ATOM     23  C   UNL     1      34.587 -19.517 -21.067  0.00  0.00    +0.151 C 
ATOM     24  C   UNL     1      35.474 -20.224 -20.271  0.00  0.00    +0.140 C 
ATOM     25  C   UNL     1      36.648 -18.791 -21.325  0.00  0.00    +0.221 C 
ATOM     26  C   UNL     1      34.941 -21.232 -19.474  0.00  0.00    +0.143 C 
ATOM     27  C   UNL     1      32.861 -20.695 -20.344  0.00  0.00    +0.253 C 
ATOM     28  N   UNL     1      35.767 -21.997 -18.634  0.00  0.00    -0.342 N 
ATOM     29  H   UNL     1      35.377 -22.708 -18.075  0.00  0.00    +0.144 HD
ATOM     30  H   UNL     1      36.736 -21.824 -18.605  0.00  0.00    +0.144 HD
ENDBRANCH  18  19
ENDBRANCH  17  18
ENDBRANCH   1  17
TORSDOF 6
ENDMDL
MODEL 8
REMARK VINA RESULT:      -9.8      6.643      9.569
REMARK  Name = 9604654
REMARK  6 active torsions:
REMARK  status: ('A' for Active; 'I' for Inactive)
REMARK    1  A    between atoms: O_1  and  C_2
REMARK    2  A    between atoms: O_1  and  C_17
REMARK    3  A    between atoms: C_2  and  P_3
REMARK    4  A    between atoms: C_7  and  C_11
REMARK    5  A    between atoms: C_17  and  C_18
REMARK    6  A    between atoms: C_18  and  N_19
REMARK                            x       y       z     vdW  Elec       q    Type
REMARK                         _______ _______ _______ _____ _____    ______ ____
ROOT
ATOM      1  O   UNL     1      32.826 -11.854 -23.196  0.00  0.00    -0.340 OA
ENDROOT
BRANCH   1   2
ATOM      2  C   UNL     1      33.130 -10.467 -23.200  0.00  0.00    +0.258 C 
BRANCH   2   3
ATOM      3  P   UNL     1      31.660  -9.701 -22.547  0.00  0.00    +0.373 P 
ATOM      4  O   UNL     1      31.480  -8.341 -23.404  0.00  0.00    -0.290 OA
ATOM      5  O   UNL     1      32.065  -9.195 -21.069  0.00  0.00    -0.292 OA
ATOM      6  O   UNL     1      30.462 -10.605 -22.582  0.00  0.00    -0.255 OA
ATOM      7  C   UNL     1      31.899  -7.091 -22.858  0.00  0.00    +0.149 C 
ATOM      8  C   UNL     1      33.200  -7.245 -22.069  0.00  0.00    +0.067 C 
ATOM      9  C   UNL     1      33.042  -8.184 -20.875  0.00  0.00    +0.154 C 
BRANCH   7  11
ATOM     10 CL   UNL     1      34.702  -5.232 -26.847  0.00  0.00    -0.082 Cl
ATOM     11  C   UNL     1      32.042  -6.095 -23.986  0.00  0.00    +0.006 C 
ATOM     12  C   UNL     1      33.175  -6.120 -24.802  0.00  0.00    +0.009 C 
ATOM     13  C   UNL     1      31.041  -5.150 -24.215  0.00  0.00    -0.002 C 
ATOM     14  C   UNL     1      33.306  -5.201 -25.843  0.00  0.00    +0.057 C 
ATOM     15  C   UNL     1      31.171  -4.231 -25.256  0.00  0.00    +0.001 C 
ATOM     16  C   UNL     1      32.304  -4.256 -26.070  0.00  0.00    +0.011 C 
ENDBRANCH   7  11
ENDBRANCH   2   3
ENDBRANCH   1   2
BRANCH   1  17
ATOM     17  C   UNL     1      33.702 -12.582 -24.045  0.00  0.00    +0.164 C 
BRANCH  17  18
ATOM     18  C   UNL     1      33.040 -13.887 -24.466  0.00  0.00    +0.126 C 
BRANCH  18  19
ATOM     19  N   UNL     1      33.779 -15.063 -24.013  0.00  0.00    -0.269 N 
ATOM     20  N   UNL     1      34.872 -16.983 -24.118  0.00  0.00    -0.242 NA
ATOM     21  N   UNL     1      33.855 -14.643 -21.625  0.00  0.00    -0.228 NA
ATOM     22  N   UNL     1      35.041 -16.433 -20.466  0.00  0.00    -0.229 NA
ATOM     23  C   UNL     1      34.116 -15.352 -22.733  0.00  0.00    +0.151 C 
ATOM     24  C   UNL     1      34.799 -16.555 -22.817  0.00  0.00    +0.140 C 
ATOM     25  C   UNL     1      34.244 -16.058 -24.813  0.00  0.00    +0.221 C 
ATOM     26  C   UNL     1      35.269 -17.096 -21.625  0.00  0.00    +0.143 C 
ATOM     27  C   UNL     1      34.358 -15.264 -20.537  0.00  0.00    +0.253 C 
ATOM     28  N   UNL     1      35.974 -18.312 -21.616  0.00  0.00    -0.342 N 
ATOM     29  H   UNL     1      36.303 -18.684 -20.766  0.00  0.00    +0.144 HD
ATOM     30  H   UNL     1      36.139 -18.791 -22.460  0.00  0.00    +0.144 HD
ENDBRANCH  18  19
ENDBRANCH  17  18
ENDBRANCH   1  17
TORSDOF 6
ENDMDL
MODEL 9
REMARK VINA RESULT:      -9.6      7.090      9.271
REMARK  Name = 9604654
REMARK  6 active torsions:
REMARK  status: ('A' for Active; 'I' for Inactive)
REMARK    1  A    between atoms: O_1  and  C_2
REMARK    2  A    between atoms: O_1  and  C_17
REMARK    3  A    between atoms: C_2  and  P_3
REMARK    4  A    between atoms: C_7  and  C_11
REMARK    5  A    between atoms: C_17  and  C_18
REMARK    6  A    between atoms: C_18  and  N_19
REMARK                            x       y       z     vdW  Elec       q    Type
REMARK                         _______ _______ _______ _____ _____    ______ ____
ROOT
ATOM      1  O   UNL     1      34.644 -24.028 -12.337  0.00  0.00    -0.340 OA
ENDROOT
BRANCH   1   2
ATOM      2  C   UNL     1      35.859 -24.694 -12.025  0.00  0.00    +0.258 C 
BRANCH   2   3
ATOM      3  P   UNL     1      37.108 -23.445 -12.260  0.00  0.00    +0.373 P 
ATOM      4  O   UNL     1      36.768 -22.775 -13.691  0.00  0.00    -0.290 OA
ATOM      5  O   UNL     1      38.480 -24.258 -12.511  0.00  0.00    -0.292 OA
ATOM      6  O   UNL     1      37.174 -22.462 -11.127  0.00  0.00    -0.255 OA
ATOM      7  C   UNL     1      37.497 -23.163 -14.855  0.00  0.00    +0.149 C 
ATOM      8  C   UNL     1      37.786 -24.664 -14.846  0.00  0.00    +0.067 C 
ATOM      9  C   UNL     1      38.654 -25.076 -13.658  0.00  0.00    +0.154 C 
BRANCH   7  11
ATOM     10 CL   UNL     1      33.013 -23.259 -17.522  0.00  0.00    -0.082 Cl
ATOM     11  C   UNL     1      36.710 -22.752 -16.078  0.00  0.00    +0.006 C 
ATOM     12  C   UNL     1      35.379 -23.149 -16.220  0.00  0.00    +0.009 C 
ATOM     13  C   UNL     1      37.312 -21.973 -17.067  0.00  0.00    -0.002 C 
ATOM     14  C   UNL     1      34.653 -22.768 -17.348  0.00  0.00    +0.057 C 
ATOM     15  C   UNL     1      36.586 -21.592 -18.196  0.00  0.00    +0.001 C 
ATOM     16  C   UNL     1      35.257 -21.990 -18.337  0.00  0.00    +0.011 C 
ENDBRANCH   7  11
ENDBRANCH   2   3
ENDBRANCH   1   2
BRANCH   1  17
ATOM     17  C   UNL     1      34.035 -24.573 -13.499  0.00  0.00    +0.164 C 
BRANCH  17  18
ATOM     18  C   UNL     1      32.559 -24.830 -13.230  0.00  0.00    +0.126 C 
BRANCH  18  19
ATOM     19  N   UNL     1      31.685 -23.999 -14.056  0.00  0.00    -0.269 N 
ATOM     20  N   UNL     1      30.849 -22.178 -14.995  0.00  0.00    -0.242 NA
ATOM     21  N   UNL     1      30.217 -25.690 -14.986  0.00  0.00    -0.228 NA
ATOM     22  N   UNL     1      28.559 -24.682 -16.467  0.00  0.00    -0.229 NA
ATOM     23  C   UNL     1      30.654 -24.433 -14.820  0.00  0.00    +0.151 C 
ATOM     24  C   UNL     1      30.143 -23.283 -15.400  0.00  0.00    +0.140 C 
ATOM     25  C   UNL     1      31.773 -22.648 -14.182  0.00  0.00    +0.221 C 
ATOM     26  C   UNL     1      29.055 -23.439 -16.252  0.00  0.00    +0.143 C 
ATOM     27  C   UNL     1      29.163 -25.714 -15.830  0.00  0.00    +0.253 C 
ATOM     28  N   UNL     1      28.474 -22.328 -16.886  0.00  0.00    -0.342 N 
ATOM     29  H   UNL     1      27.704 -22.450 -17.488  0.00  0.00    +0.144 HD
ATOM     30  H   UNL     1      28.836 -21.426 -16.729  0.00  0.00    +0.144 HD
ENDBRANCH  18  19
ENDBRANCH  17  18
ENDBRANCH   1  17
TORSDOF 6
ENDMDL
