MODEL 1
REMARK VINA RESULT:      -8.7      0.000      0.000
REMARK  Name = 16406
REMARK  6 active torsions:
REMARK  status: ('A' for Active; 'I' for Inactive)
REMARK    1  A    between atoms: N_2  and  C_15
REMARK    2  A    between atoms: C_15  and  C_16
REMARK    3  A    between atoms: C_16  and  N_18
REMARK    4  A    between atoms: N_18  and  C_21
REMARK    5  A    between atoms: C_21  and  C_22
REMARK    6  A    between atoms: C_22  and  O_23
REMARK                            x       y       z     vdW  Elec       q    Type
REMARK                         _______ _______ _______ _____ _____    ______ ____
ROOT
ATOM      1  S   UNL     1      33.038 -23.258 -17.725  0.00  0.00    -0.084 S 
ATOM      2  N   UNL     1      34.707 -23.265 -15.102  0.00  0.00    -0.288 N 
ATOM      3  C   UNL     1      35.342 -22.693 -16.233  0.00  0.00    +0.058 C 
ATOM      4  C   UNL     1      33.305 -23.407 -14.939  0.00  0.00    +0.058 C 
ATOM      5  C   UNL     1      34.680 -22.611 -17.474  0.00  0.00    +0.043 C 
ATOM      6  C   UNL     1      32.440 -23.395 -16.052  0.00  0.00    +0.043 C 
ATOM      7  C   UNL     1      36.644 -22.152 -16.165  0.00  0.00    +0.015 C 
ATOM      8  C   UNL     1      32.708 -23.530 -13.665  0.00  0.00    +0.015 C 
ATOM      9  C   UNL     1      35.311 -22.036 -18.591  0.00  0.00    +0.008 C 
ATOM     10  C   UNL     1      31.051 -23.527 -15.884  0.00  0.00    +0.008 C 
ATOM     11  C   UNL     1      37.266 -21.577 -17.276  0.00  0.00    +0.001 C 
ATOM     12  C   UNL     1      31.326 -23.657 -13.505  0.00  0.00    +0.001 C 
ATOM     13  C   UNL     1      36.600 -21.522 -18.492  0.00  0.00    +0.001 C 
ATOM     14  C   UNL     1      30.496 -23.658 -14.615  0.00  0.00    +0.001 C 
ENDROOT
BRANCH   2  15
ATOM     15  C   UNL     1      35.562 -23.678 -13.982  0.00  0.00    +0.075 C 
BRANCH  15  16
ATOM     16  C   UNL     1      35.941 -25.155 -14.065  0.00  0.00    -0.034 C 
ATOM     17  C   UNL     1      35.789 -25.753 -15.457  0.00  0.00    -0.021 C 
BRANCH  16  18
ATOM     18  N   UNL     1      37.355 -25.325 -13.627  0.00  0.00    +0.391 N 
ATOM     19  C   UNL     1      37.979 -23.967 -13.283  0.00  0.00    -0.096 C 
ATOM     20  C   UNL     1      37.433 -26.219 -12.385  0.00  0.00    -0.096 C 
BRANCH  18  21
ATOM     21  C   UNL     1      38.190 -25.970 -14.740  0.00  0.00    -0.041 C 
BRANCH  21  22
ATOM     22  C   UNL     1      39.599 -25.410 -14.697  0.00  0.00    +0.115 C 
BRANCH  22  23
ATOM     23  O   UNL     1      40.292 -25.773 -15.883  0.00  0.00    -0.384 OA
ATOM     24  H   UNL     1      41.051 -25.182 -16.007  0.00  0.00    +0.210 HD
ENDBRANCH  22  23
ENDBRANCH  21  22
ENDBRANCH  18  21
ENDBRANCH  16  18
ENDBRANCH  15  16
ENDBRANCH   2  15
TORSDOF 6
ENDMDL
MODEL 2
REMARK VINA RESULT:      -8.5      1.365      1.775
REMARK  Name = 16406
REMARK  6 active torsions:
REMARK  status: ('A' for Active; 'I' for Inactive)
REMARK    1  A    between atoms: N_2  and  C_15
REMARK    2  A    between atoms: C_15  and  C_16
REMARK    3  A    between atoms: C_16  and  N_18
REMARK    4  A    between atoms: N_18  and  C_21
REMARK    5  A    between atoms: C_21  and  C_22
REMARK    6  A    between atoms: C_22  and  O_23
REMARK                            x       y       z     vdW  Elec       q    Type
REMARK                         _______ _______ _______ _____ _____    ______ ____
ROOT
ATOM      1  S   UNL     1      32.999 -23.238 -17.794  0.00  0.00    -0.084 S 
ATOM      2  N   UNL     1      34.573 -23.207 -15.114  0.00  0.00    -0.288 N 
ATOM      3  C   UNL     1      35.254 -22.663 -16.232  0.00  0.00    +0.058 C 
ATOM      4  C   UNL     1      33.166 -23.333 -14.999  0.00  0.00    +0.058 C 
ATOM      5  C   UNL     1      34.637 -22.601 -17.498  0.00  0.00    +0.043 C 
ATOM      6  C   UNL     1      32.340 -23.335 -16.141  0.00  0.00    +0.043 C 
ATOM      7  C   UNL     1      36.558 -22.133 -16.129  0.00  0.00    +0.015 C 
ATOM      8  C   UNL     1      32.522 -23.424 -13.745  0.00  0.00    +0.015 C 
ATOM      9  C   UNL     1      35.314 -22.054 -18.603  0.00  0.00    +0.008 C 
ATOM     10  C   UNL     1      30.945 -23.452 -16.021  0.00  0.00    +0.008 C 
ATOM     11  C   UNL     1      37.224 -21.586 -17.228  0.00  0.00    +0.001 C 
ATOM     12  C   UNL     1      31.134 -23.535 -13.631  0.00  0.00    +0.001 C 
ATOM     13  C   UNL     1      36.602 -21.550 -18.468  0.00  0.00    +0.001 C 
ATOM     14  C   UNL     1      30.344 -23.552 -14.771  0.00  0.00    +0.001 C 
ENDROOT
BRANCH   2  15
ATOM     15  C   UNL     1      35.384 -23.604 -13.956  0.00  0.00    +0.075 C 
BRANCH  15  16
ATOM     16  C   UNL     1      35.805 -25.071 -14.028  0.00  0.00    -0.034 C 
ATOM     17  C   UNL     1      35.659 -25.686 -15.413  0.00  0.00    -0.021 C 
BRANCH  16  18
ATOM     18  N   UNL     1      37.226 -25.195 -13.600  0.00  0.00    +0.391 N 
ATOM     19  C   UNL     1      37.346 -26.126 -12.388  0.00  0.00    -0.096 C 
ATOM     20  C   UNL     1      38.083 -25.768 -14.733  0.00  0.00    -0.096 C 
BRANCH  18  21
ATOM     21  C   UNL     1      37.793 -23.825 -13.211  0.00  0.00    -0.041 C 
BRANCH  21  22
ATOM     22  C   UNL     1      38.201 -23.849 -11.750  0.00  0.00    +0.115 C 
BRANCH  22  23
ATOM     23  O   UNL     1      37.496 -22.838 -11.042  0.00  0.00    -0.384 OA
ATOM     24  H   UNL     1      37.738 -22.871 -10.104  0.00  0.00    +0.210 HD
ENDBRANCH  22  23
ENDBRANCH  21  22
ENDBRANCH  18  21
ENDBRANCH  16  18
ENDBRANCH  15  16
ENDBRANCH   2  15
TORSDOF 6
ENDMDL
MODEL 3
REMARK VINA RESULT:      -7.9     10.390     13.175
REMARK  Name = 16406
REMARK  6 active torsions:
REMARK  status: ('A' for Active; 'I' for Inactive)
REMARK    1  A    between atoms: N_2  and  C_15
REMARK    2  A    between atoms: C_15  and  C_16
REMARK    3  A    between atoms: C_16  and  N_18
REMARK    4  A    between atoms: N_18  and  C_21
REMARK    5  A    between atoms: C_21  and  C_22
REMARK    6  A    between atoms: C_22  and  O_23
REMARK                            x       y       z     vdW  Elec       q    Type
REMARK                         _______ _______ _______ _____ _____    ______ ____
ROOT
ATOM      1  S   UNL     1      33.615 -10.705 -24.270  0.00  0.00    -0.084 S 
ATOM      2  N   UNL     1      32.755 -13.449 -23.088  0.00  0.00    -0.288 N 
ATOM      3  C   UNL     1      32.382 -12.310 -22.332  0.00  0.00    +0.058 C 
ATOM      4  C   UNL     1      33.058 -13.444 -24.474  0.00  0.00    +0.058 C 
ATOM      5  C   UNL     1      32.695 -11.009 -22.775  0.00  0.00    +0.043 C 
ATOM      6  C   UNL     1      33.436 -12.256 -25.131  0.00  0.00    +0.043 C 
ATOM      7  C   UNL     1      31.656 -12.418 -21.126  0.00  0.00    +0.015 C 
ATOM      8  C   UNL     1      32.960 -14.609 -25.266  0.00  0.00    +0.015 C 
ATOM      9  C   UNL     1      32.315  -9.881 -22.025  0.00  0.00    +0.008 C 
ATOM     10  C   UNL     1      33.726 -12.255 -26.506  0.00  0.00    +0.008 C 
ATOM     11  C   UNL     1      31.277 -11.295 -20.387  0.00  0.00    +0.001 C 
ATOM     12  C   UNL     1      33.245 -14.601 -26.633  0.00  0.00    +0.001 C 
ATOM     13  C   UNL     1      31.610 -10.025 -20.835  0.00  0.00    +0.001 C 
ATOM     14  C   UNL     1      33.632 -13.423 -27.254  0.00  0.00    +0.001 C 
ENDROOT
BRANCH   2  15
ATOM     15  C   UNL     1      32.760 -14.746 -22.400  0.00  0.00    +0.075 C 
BRANCH  15  16
ATOM     16  C   UNL     1      34.165 -15.156 -21.963  0.00  0.00    -0.034 C 
ATOM     17  C   UNL     1      34.570 -14.612 -20.599  0.00  0.00    -0.021 C 
BRANCH  16  18
ATOM     18  N   UNL     1      34.253 -16.643 -21.925  0.00  0.00    +0.391 N 
ATOM     19  C   UNL     1      32.942 -17.248 -21.408  0.00  0.00    -0.096 C 
ATOM     20  C   UNL     1      34.523 -17.204 -23.325  0.00  0.00    -0.096 C 
BRANCH  18  21
ATOM     21  C   UNL     1      35.388 -17.093 -20.998  0.00  0.00    -0.041 C 
BRANCH  21  22
ATOM     22  C   UNL     1      35.945 -18.414 -21.493  0.00  0.00    +0.115 C 
BRANCH  22  23
ATOM     23  O   UNL     1      36.209 -19.264 -20.385  0.00  0.00    -0.384 OA
ATOM     24  H   UNL     1      35.773 -20.119 -20.523  0.00  0.00    +0.210 HD
ENDBRANCH  22  23
ENDBRANCH  21  22
ENDBRANCH  18  21
ENDBRANCH  16  18
ENDBRANCH  15  16
ENDBRANCH   2  15
TORSDOF 6
ENDMDL
MODEL 4
REMARK VINA RESULT:      -7.6     15.430     18.397
REMARK  Name = 16406
REMARK  6 active torsions:
REMARK  status: ('A' for Active; 'I' for Inactive)
REMARK    1  A    between atoms: N_2  and  C_15
REMARK    2  A    between atoms: C_15  and  C_16
REMARK    3  A    between atoms: C_16  and  N_18
REMARK    4  A    between atoms: N_18  and  C_21
REMARK    5  A    between atoms: C_21  and  C_22
REMARK    6  A    between atoms: C_22  and  O_23
REMARK                            x       y       z     vdW  Elec       q    Type
REMARK                         _______ _______ _______ _____ _____    ______ ____
ROOT
ATOM      1  S   UNL     1      32.006 -11.841 -22.997  0.00  0.00    -0.084 S 
ATOM      2  N   UNL     1      33.102  -8.986 -22.444  0.00  0.00    -0.288 N 
ATOM      3  C   UNL     1      32.421  -9.602 -21.364  0.00  0.00    +0.058 C 
ATOM      4  C   UNL     1      33.700  -9.674 -23.530  0.00  0.00    +0.058 C 
ATOM      5  C   UNL     1      31.898 -10.905 -21.485  0.00  0.00    +0.043 C 
ATOM      6  C   UNL     1      33.305 -10.985 -23.865  0.00  0.00    +0.043 C 
ATOM      7  C   UNL     1      32.264  -8.961 -20.116  0.00  0.00    +0.015 C 
ATOM      8  C   UNL     1      34.737  -9.102 -24.300  0.00  0.00    +0.015 C 
ATOM      9  C   UNL     1      31.230 -11.515 -20.408  0.00  0.00    +0.008 C 
ATOM     10  C   UNL     1      33.908 -11.666 -24.936  0.00  0.00    +0.008 C 
ATOM     11  C   UNL     1      31.603  -9.573 -19.048  0.00  0.00    +0.001 C 
ATOM     12  C   UNL     1      35.335  -9.786 -25.362  0.00  0.00    +0.001 C 
ATOM     13  C   UNL     1      31.082 -10.850 -19.195  0.00  0.00    +0.001 C 
ATOM     14  C   UNL     1      34.918 -11.069 -25.683  0.00  0.00    +0.001 C 
ENDROOT
BRANCH   2  15
ATOM     15  C   UNL     1      33.264  -7.527 -22.398  0.00  0.00    +0.075 C 
BRANCH  15  16
ATOM     16  C   UNL     1      31.919  -6.802 -22.394  0.00  0.00    -0.034 C 
ATOM     17  C   UNL     1      31.819  -5.694 -21.355  0.00  0.00    -0.021 C 
BRANCH  16  18
ATOM     18  N   UNL     1      31.674  -6.214 -23.740  0.00  0.00    +0.391 N 
ATOM     19  C   UNL     1      32.991  -6.061 -24.510  0.00  0.00    -0.096 C 
ATOM     20  C   UNL     1      30.740  -7.111 -24.559  0.00  0.00    -0.096 C 
BRANCH  18  21
ATOM     21  C   UNL     1      31.027  -4.830 -23.614  0.00  0.00    -0.041 C 
BRANCH  21  22
ATOM     22  C   UNL     1      31.123  -4.110 -24.946  0.00  0.00    +0.115 C 
BRANCH  22  23
ATOM     23  O   UNL     1      30.136  -3.089 -25.008  0.00  0.00    -0.384 OA
ATOM     24  H   UNL     1      30.225  -2.507 -24.237  0.00  0.00    +0.210 HD
ENDBRANCH  22  23
ENDBRANCH  21  22
ENDBRANCH  18  21
ENDBRANCH  16  18
ENDBRANCH  15  16
ENDBRANCH   2  15
TORSDOF 6
ENDMDL
MODEL 5
REMARK VINA RESULT:      -7.3      1.751      4.395
REMARK  Name = 16406
REMARK  6 active torsions:
REMARK  status: ('A' for Active; 'I' for Inactive)
REMARK    1  A    between atoms: N_2  and  C_15
REMARK    2  A    between atoms: C_15  and  C_16
REMARK    3  A    between atoms: C_16  and  N_18
REMARK    4  A    between atoms: N_18  and  C_21
REMARK    5  A    between atoms: C_21  and  C_22
REMARK    6  A    between atoms: C_22  and  O_23
REMARK                            x       y       z     vdW  Elec       q    Type
REMARK                         _______ _______ _______ _____ _____    ______ ____
ROOT
ATOM      1  S   UNL     1      31.280 -22.569 -17.212  0.00  0.00    -0.084 S 
ATOM      2  N   UNL     1      33.763 -23.319 -15.498  0.00  0.00    -0.288 N 
ATOM      3  C   UNL     1      32.536 -23.900 -15.090  0.00  0.00    +0.058 C 
ATOM      4  C   UNL     1      34.040 -22.830 -16.800  0.00  0.00    +0.058 C 
ATOM      5  C   UNL     1      31.344 -23.655 -15.800  0.00  0.00    +0.043 C 
ATOM      6  C   UNL     1      32.997 -22.479 -17.681  0.00  0.00    +0.043 C 
ATOM      7  C   UNL     1      32.454 -24.772 -13.983  0.00  0.00    +0.015 C 
ATOM      8  C   UNL     1      35.359 -22.706 -17.289  0.00  0.00    +0.015 C 
ATOM      9  C   UNL     1      30.131 -24.240 -15.395  0.00  0.00    +0.008 C 
ATOM     10  C   UNL     1      33.276 -22.003 -18.974  0.00  0.00    +0.008 C 
ATOM     11  C   UNL     1      31.248 -25.356 -13.587  0.00  0.00    +0.001 C 
ATOM     12  C   UNL     1      35.630 -22.236 -18.576  0.00  0.00    +0.001 C 
ATOM     13  C   UNL     1      30.084 -25.086 -14.292  0.00  0.00    +0.001 C 
ATOM     14  C   UNL     1      34.588 -21.881 -19.419  0.00  0.00    +0.001 C 
ENDROOT
BRANCH   2  15
ATOM     15  C   UNL     1      34.856 -23.286 -14.518  0.00  0.00    +0.075 C 
BRANCH  15  16
ATOM     16  C   UNL     1      35.285 -24.689 -14.092  0.00  0.00    -0.034 C 
ATOM     17  C   UNL     1      35.914 -25.508 -15.211  0.00  0.00    -0.021 C 
BRANCH  16  18
ATOM     18  N   UNL     1      36.263 -24.584 -12.973  0.00  0.00    +0.391 N 
ATOM     19  C   UNL     1      35.534 -24.467 -11.629  0.00  0.00    -0.096 C 
ATOM     20  C   UNL     1      37.164 -25.823 -12.925  0.00  0.00    -0.096 C 
BRANCH  18  21
ATOM     21  C   UNL     1      37.152 -23.347 -13.148  0.00  0.00    -0.041 C 
BRANCH  21  22
ATOM     22  C   UNL     1      37.563 -22.830 -11.783  0.00  0.00    +0.115 C 
BRANCH  22  23
ATOM     23  O   UNL     1      38.942 -23.100 -11.567  0.00  0.00    -0.384 OA
ATOM     24  H   UNL     1      39.156 -22.961 -10.631  0.00  0.00    +0.210 HD
ENDBRANCH  22  23
ENDBRANCH  21  22
ENDBRANCH  18  21
ENDBRANCH  16  18
ENDBRANCH  15  16
ENDBRANCH   2  15
TORSDOF 6
ENDMDL
MODEL 6
REMARK VINA RESULT:      -7.3      3.036      5.593
REMARK  Name = 16406
REMARK  6 active torsions:
REMARK  status: ('A' for Active; 'I' for Inactive)
REMARK    1  A    between atoms: N_2  and  C_15
REMARK    2  A    between atoms: C_15  and  C_16
REMARK    3  A    between atoms: C_16  and  N_18
REMARK    4  A    between atoms: N_18  and  C_21
REMARK    5  A    between atoms: C_21  and  C_22
REMARK    6  A    between atoms: C_22  and  O_23
REMARK                            x       y       z     vdW  Elec       q    Type
REMARK                         _______ _______ _______ _____ _____    ______ ____
ROOT
ATOM      1  S   UNL     1      37.141 -21.896 -16.403  0.00  0.00    -0.084 S 
ATOM      2  N   UNL     1      34.603 -23.692 -16.391  0.00  0.00    -0.288 N 
ATOM      3  C   UNL     1      34.775 -22.879 -17.539  0.00  0.00    +0.058 C 
ATOM      4  C   UNL     1      35.641 -24.089 -15.510  0.00  0.00    +0.058 C 
ATOM      5  C   UNL     1      35.898 -22.038 -17.672  0.00  0.00    +0.043 C 
ATOM      6  C   UNL     1      36.851 -23.370 -15.442  0.00  0.00    +0.043 C 
ATOM      7  C   UNL     1      33.857 -22.895 -18.611  0.00  0.00    +0.015 C 
ATOM      8  C   UNL     1      35.532 -25.235 -14.692  0.00  0.00    +0.015 C 
ATOM      9  C   UNL     1      36.068 -21.239 -18.817  0.00  0.00    +0.008 C 
ATOM     10  C   UNL     1      37.881 -23.773 -14.575  0.00  0.00    +0.008 C 
ATOM     11  C   UNL     1      34.033 -22.103 -19.749  0.00  0.00    +0.001 C 
ATOM     12  C   UNL     1      36.560 -25.634 -13.835  0.00  0.00    +0.001 C 
ATOM     13  C   UNL     1      35.138 -21.271 -19.850  0.00  0.00    +0.001 C 
ATOM     14  C   UNL     1      37.736 -24.901 -13.773  0.00  0.00    +0.001 C 
ENDROOT
BRANCH   2  15
ATOM     15  C   UNL     1      33.258 -24.223 -16.132  0.00  0.00    +0.075 C 
BRANCH  15  16
ATOM     16  C   UNL     1      32.317 -23.153 -15.580  0.00  0.00    -0.034 C 
ATOM     17  C   UNL     1      31.266 -22.684 -16.576  0.00  0.00    -0.021 C 
BRANCH  16  18
ATOM     18  N   UNL     1      31.624 -23.686 -14.374  0.00  0.00    +0.391 N 
ATOM     19  C   UNL     1      32.208 -25.045 -13.972  0.00  0.00    -0.096 C 
ATOM     20  C   UNL     1      31.784 -22.724 -13.191  0.00  0.00    -0.096 C 
BRANCH  18  21
ATOM     21  C   UNL     1      30.127 -23.868 -14.649  0.00  0.00    -0.041 C 
BRANCH  21  22
ATOM     22  C   UNL     1      29.807 -25.349 -14.714  0.00  0.00    +0.115 C 
BRANCH  22  23
ATOM     23  O   UNL     1      28.467 -25.566 -14.296  0.00  0.00    -0.384 OA
ATOM     24  H   UNL     1      28.042 -24.712 -14.117  0.00  0.00    +0.210 HD
ENDBRANCH  22  23
ENDBRANCH  21  22
ENDBRANCH  18  21
ENDBRANCH  16  18
ENDBRANCH  15  16
ENDBRANCH   2  15
TORSDOF 6
ENDMDL
MODEL 7
REMARK VINA RESULT:      -7.2     13.206     15.759
REMARK  Name = 16406
REMARK  6 active torsions:
REMARK  status: ('A' for Active; 'I' for Inactive)
REMARK    1  A    between atoms: N_2  and  C_15
REMARK    2  A    between atoms: C_15  and  C_16
REMARK    3  A    between atoms: C_16  and  N_18
REMARK    4  A    between atoms: N_18  and  C_21
REMARK    5  A    between atoms: C_21  and  C_22
REMARK    6  A    between atoms: C_22  and  O_23
REMARK                            x       y       z     vdW  Elec       q    Type
REMARK                         _______ _______ _______ _____ _____    ______ ____
ROOT
ATOM      1  S   UNL     1      33.450 -14.361 -22.162  0.00  0.00    -0.084 S 
ATOM      2  N   UNL     1      32.802 -11.743 -23.707  0.00  0.00    -0.288 N 
ATOM      3  C   UNL     1      33.069 -12.880 -24.510  0.00  0.00    +0.058 C 
ATOM      4  C   UNL     1      32.373 -11.782 -22.356  0.00  0.00    +0.058 C 
ATOM      5  C   UNL     1      33.354 -14.131 -23.926  0.00  0.00    +0.043 C 
ATOM      6  C   UNL     1      32.588 -12.924 -21.558  0.00  0.00    +0.043 C 
ATOM      7  C   UNL     1      33.030 -12.825 -25.920  0.00  0.00    +0.015 C 
ATOM      8  C   UNL     1      31.684 -10.704 -21.758  0.00  0.00    +0.015 C 
ATOM      9  C   UNL     1      33.610 -15.258 -24.727  0.00  0.00    +0.008 C 
ATOM     10  C   UNL     1      32.153 -12.960 -20.222  0.00  0.00    +0.008 C 
ATOM     11  C   UNL     1      33.280 -13.949 -26.712  0.00  0.00    +0.001 C 
ATOM     12  C   UNL     1      31.250 -10.748 -20.430  0.00  0.00    +0.001 C 
ATOM     13  C   UNL     1      33.575 -15.166 -26.114  0.00  0.00    +0.001 C 
ATOM     14  C   UNL     1      31.487 -11.876 -19.660  0.00  0.00    +0.001 C 
ENDROOT
BRANCH   2  15
ATOM     15  C   UNL     1      32.908 -10.424 -24.344  0.00  0.00    +0.075 C 
BRANCH  15  16
ATOM     16  C   UNL     1      34.132  -9.650 -23.857  0.00  0.00    -0.034 C 
ATOM     17  C   UNL     1      35.297  -9.658 -24.838  0.00  0.00    -0.021 C 
BRANCH  16  18
ATOM     18  N   UNL     1      33.745  -8.237 -23.592  0.00  0.00    +0.391 N 
ATOM     19  C   UNL     1      34.471  -7.289 -24.553  0.00  0.00    -0.096 C 
ATOM     20  C   UNL     1      32.235  -8.046 -23.777  0.00  0.00    -0.096 C 
BRANCH  18  21
ATOM     21  C   UNL     1      34.109  -7.838 -22.157  0.00  0.00    -0.041 C 
BRANCH  21  22
ATOM     22  C   UNL     1      32.841  -7.511 -21.391  0.00  0.00    +0.115 C 
BRANCH  22  23
ATOM     23  O   UNL     1      33.045  -7.755 -20.006  0.00  0.00    -0.384 OA
ATOM     24  H   UNL     1      33.916  -7.419 -19.744  0.00  0.00    +0.210 HD
ENDBRANCH  22  23
ENDBRANCH  21  22
ENDBRANCH  18  21
ENDBRANCH  16  18
ENDBRANCH  15  16
ENDBRANCH   2  15
TORSDOF 6
ENDMDL
MODEL 8
REMARK VINA RESULT:      -7.2     14.477     17.406
REMARK  Name = 16406
REMARK  6 active torsions:
REMARK  status: ('A' for Active; 'I' for Inactive)
REMARK    1  A    between atoms: N_2  and  C_15
REMARK    2  A    between atoms: C_15  and  C_16
REMARK    3  A    between atoms: C_16  and  N_18
REMARK    4  A    between atoms: N_18  and  C_21
REMARK    5  A    between atoms: C_21  and  C_22
REMARK    6  A    between atoms: C_22  and  O_23
REMARK                            x       y       z     vdW  Elec       q    Type
REMARK                         _______ _______ _______ _____ _____    ______ ____
ROOT
ATOM      1  S   UNL     1      32.013 -13.101 -21.604  0.00  0.00    -0.084 S 
ATOM      2  N   UNL     1      32.309 -10.304 -22.928  0.00  0.00    -0.288 N 
ATOM      3  C   UNL     1      32.035 -10.299 -21.537  0.00  0.00    +0.058 C 
ATOM      4  C   UNL     1      32.884 -11.386 -23.642  0.00  0.00    +0.058 C 
ATOM      5  C   UNL     1      31.901 -11.504 -20.820  0.00  0.00    +0.043 C 
ATOM      6  C   UNL     1      32.836 -12.699 -23.133  0.00  0.00    +0.043 C 
ATOM      7  C   UNL     1      31.916  -9.100 -20.803  0.00  0.00    +0.015 C 
ATOM      8  C   UNL     1      33.559 -11.199 -24.868  0.00  0.00    +0.015 C 
ATOM      9  C   UNL     1      31.636 -11.494 -19.438  0.00  0.00    +0.008 C 
ATOM     10  C   UNL     1      33.415 -13.767 -23.840  0.00  0.00    +0.008 C 
ATOM     11  C   UNL     1      31.658  -9.095 -19.429  0.00  0.00    +0.001 C 
ATOM     12  C   UNL     1      34.137 -12.264 -25.565  0.00  0.00    +0.001 C 
ATOM     13  C   UNL     1      31.514 -10.294 -18.747  0.00  0.00    +0.001 C 
ATOM     14  C   UNL     1      34.063 -13.550 -25.052  0.00  0.00    +0.001 C 
ENDROOT
BRANCH   2  15
ATOM     15  C   UNL     1      32.044  -9.067 -23.674  0.00  0.00    +0.075 C 
BRANCH  15  16
ATOM     16  C   UNL     1      32.857  -7.890 -23.138  0.00  0.00    -0.034 C 
ATOM     17  C   UNL     1      34.294  -7.852 -23.640  0.00  0.00    -0.021 C 
BRANCH  16  18
ATOM     18  N   UNL     1      32.187  -6.616 -23.521  0.00  0.00    +0.391 N 
ATOM     19  C   UNL     1      32.992  -5.887 -24.604  0.00  0.00    -0.096 C 
ATOM     20  C   UNL     1      30.781  -6.888 -24.068  0.00  0.00    -0.096 C 
BRANCH  18  21
ATOM     21  C   UNL     1      32.061  -5.686 -22.308  0.00  0.00    -0.041 C 
BRANCH  21  22
ATOM     22  C   UNL     1      30.594  -5.396 -22.051  0.00  0.00    +0.115 C 
BRANCH  22  23
ATOM     23  O   UNL     1      30.378  -3.992 -22.063  0.00  0.00    -0.384 OA
ATOM     24  H   UNL     1      29.687  -3.777 -22.709  0.00  0.00    +0.210 HD
ENDBRANCH  22  23
ENDBRANCH  21  22
ENDBRANCH  18  21
ENDBRANCH  16  18
ENDBRANCH  15  16
ENDBRANCH   2  15
TORSDOF 6
ENDMDL
MODEL 9
REMARK VINA RESULT:      -7.1      3.311      5.959
REMARK  Name = 16406
REMARK  6 active torsions:
REMARK  status: ('A' for Active; 'I' for Inactive)
REMARK    1  A    between atoms: N_2  and  C_15
REMARK    2  A    between atoms: C_15  and  C_16
REMARK    3  A    between atoms: C_16  and  N_18
REMARK    4  A    between atoms: N_18  and  C_21
REMARK    5  A    between atoms: C_21  and  C_22
REMARK    6  A    between atoms: C_22  and  O_23
REMARK                            x       y       z     vdW  Elec       q    Type
REMARK                         _______ _______ _______ _____ _____    ______ ____
ROOT
ATOM      1  S   UNL     1      36.909 -22.427 -15.856  0.00  0.00    -0.084 S 
ATOM      2  N   UNL     1      33.963 -23.086 -15.116  0.00  0.00    -0.288 N 
ATOM      3  C   UNL     1      34.203 -22.797 -16.483  0.00  0.00    +0.058 C 
ATOM      4  C   UNL     1      34.942 -23.531 -14.192  0.00  0.00    +0.058 C 
ATOM      5  C   UNL     1      35.501 -22.505 -16.945  0.00  0.00    +0.043 C 
ATOM      6  C   UNL     1      36.315 -23.313 -14.428  0.00  0.00    +0.043 C 
ATOM      7  C   UNL     1      33.170 -22.819 -17.444  0.00  0.00    +0.015 C 
ATOM      8  C   UNL     1      34.599 -24.240 -13.020  0.00  0.00    +0.015 C 
ATOM      9  C   UNL     1      35.736 -22.226 -18.304  0.00  0.00    +0.008 C 
ATOM     10  C   UNL     1      37.283 -23.764 -13.514  0.00  0.00    +0.008 C 
ATOM     11  C   UNL     1      33.409 -22.546 -18.794  0.00  0.00    +0.001 C 
ATOM     12  C   UNL     1      35.566 -24.689 -12.117  0.00  0.00    +0.001 C 
ATOM     13  C   UNL     1      34.693 -22.245 -19.223  0.00  0.00    +0.001 C 
ATOM     14  C   UNL     1      36.909 -24.449 -12.362  0.00  0.00    +0.001 C 
ENDROOT
BRANCH   2  15
ATOM     15  C   UNL     1      32.578 -22.987 -14.636  0.00  0.00    +0.075 C 
BRANCH  15  16
ATOM     16  C   UNL     1      31.755 -24.220 -15.004  0.00  0.00    -0.034 C 
ATOM     17  C   UNL     1      31.816 -25.334 -13.968  0.00  0.00    -0.021 C 
BRANCH  16  18
ATOM     18  N   UNL     1      30.332 -23.822 -15.190  0.00  0.00    +0.391 N 
ATOM     19  C   UNL     1      29.397 -24.825 -14.503  0.00  0.00    -0.096 C 
ATOM     20  C   UNL     1      30.076 -22.436 -14.590  0.00  0.00    -0.096 C 
BRANCH  18  21
ATOM     21  C   UNL     1      29.975 -23.777 -16.681  0.00  0.00    -0.041 C 
BRANCH  21  22
ATOM     22  C   UNL     1      28.570 -23.227 -16.842  0.00  0.00    +0.115 C 
BRANCH  22  23
ATOM     23  O   UNL     1      27.764 -24.174 -17.528  0.00  0.00    -0.384 OA
ATOM     24  H   UNL     1      28.330 -24.861 -17.914  0.00  0.00    +0.210 HD
ENDBRANCH  22  23
ENDBRANCH  21  22
ENDBRANCH  18  21
ENDBRANCH  16  18
ENDBRANCH  15  16
ENDBRANCH   2  15
TORSDOF 6
ENDMDL
