MODEL 1
REMARK VINA RESULT:      -9.6      0.000      0.000
REMARK  Name = 4118151
REMARK  1 active torsions:
REMARK  status: ('A' for Active; 'I' for Inactive)
REMARK    1  A    between atoms: C_4  and  C_17
REMARK                            x       y       z     vdW  Elec       q    Type
REMARK                         _______ _______ _______ _____ _____    ______ ____
ROOT
ATOM      1  O   UNL     1      35.641 -22.336 -18.301  0.00  0.00    -0.242 OA
ATOM      2  N   UNL     1      36.404 -21.596 -19.188  0.00  0.00    -0.048 NA
ATOM      3  N   UNL     1      34.285 -22.133 -18.491  0.00  0.00    -0.048 NA
ATOM      4  C   UNL     1      34.608 -19.489 -21.584  0.00  0.00    +0.055 C 
ATOM      5  C   UNL     1      35.772 -20.021 -21.002  0.00  0.00    +0.029 C 
ATOM      6  C   UNL     1      33.297 -19.820 -21.155  0.00  0.00    +0.006 C 
ATOM      7  C   UNL     1      35.531 -20.920 -19.946  0.00  0.00    +0.143 A 
ATOM      8  C   UNL     1      34.185 -21.263 -19.503  0.00  0.00    +0.143 A 
ATOM      9  C   UNL     1      33.035 -20.716 -20.102  0.00  0.00    +0.024 C 
ENDROOT
BRANCH   4  17
ATOM     10  O   UNL     1      34.741 -19.020 -23.826  0.00  0.00    -0.270 OA
ATOM     11  N   UNL     1      34.919 -17.187 -22.385  0.00  0.00    -0.276 N 
ATOM     12  C   UNL     1      34.078 -14.514 -21.688  0.00  0.00    +0.004 C 
ATOM     13  C   UNL     1      34.054 -15.007 -23.135  0.00  0.00    +0.022 C 
ATOM     14  C   UNL     1      33.941 -15.678 -20.707  0.00  0.00    +0.022 C 
ATOM     15  C   UNL     1      35.094 -16.102 -23.360  0.00  0.00    +0.094 C 
ATOM     16  C   UNL     1      34.978 -16.765 -20.986  0.00  0.00    +0.094 C 
ATOM     17  C   UNL     1      34.759 -18.539 -22.694  0.00  0.00    +0.249 C 
ENDBRANCH   4  17
TORSDOF 1
ENDMDL
MODEL 2
REMARK VINA RESULT:      -9.4      1.151      1.840
REMARK  Name = 4118151
REMARK  1 active torsions:
REMARK  status: ('A' for Active; 'I' for Inactive)
REMARK    1  A    between atoms: C_4  and  C_17
REMARK                            x       y       z     vdW  Elec       q    Type
REMARK                         _______ _______ _______ _____ _____    ______ ____
ROOT
ATOM      1  O   UNL     1      33.293 -22.090 -19.090  0.00  0.00    -0.242 OA
ATOM      2  N   UNL     1      32.707 -21.198 -19.973  0.00  0.00    -0.048 NA
ATOM      3  N   UNL     1      34.665 -21.924 -19.022  0.00  0.00    -0.048 NA
ATOM      4  C   UNL     1      34.928 -18.856 -21.701  0.00  0.00    +0.055 C 
ATOM      5  C   UNL     1      33.672 -19.412 -21.404  0.00  0.00    +0.029 C 
ATOM      6  C   UNL     1      36.140 -19.303 -21.114  0.00  0.00    +0.006 C 
ATOM      7  C   UNL     1      33.710 -20.462 -20.468  0.00  0.00    +0.143 A 
ATOM      8  C   UNL     1      34.954 -20.924 -19.863  0.00  0.00    +0.143 A 
ATOM      9  C   UNL     1      36.201 -20.350 -20.176  0.00  0.00    +0.024 C 
ENDROOT
BRANCH   4  17
ATOM     10  O   UNL     1      35.360 -18.049 -23.804  0.00  0.00    -0.270 OA
ATOM     11  N   UNL     1      34.636 -16.475 -22.234  0.00  0.00    -0.276 N 
ATOM     12  C   UNL     1      32.855 -14.304 -21.567  0.00  0.00    +0.004 C 
ATOM     13  C   UNL     1      33.288 -14.567 -23.009  0.00  0.00    +0.022 C 
ATOM     14  C   UNL     1      32.902 -15.585 -20.735  0.00  0.00    +0.022 C 
ATOM     15  C   UNL     1      34.648 -15.258 -23.057  0.00  0.00    +0.094 C 
ATOM     16  C   UNL     1      34.268 -16.262 -20.835  0.00  0.00    +0.094 C 
ATOM     17  C   UNL     1      34.989 -17.754 -22.669  0.00  0.00    +0.249 C 
ENDBRANCH   4  17
TORSDOF 1
ENDMDL
MODEL 3
REMARK VINA RESULT:      -9.3      2.173      6.023
REMARK  Name = 4118151
REMARK  1 active torsions:
REMARK  status: ('A' for Active; 'I' for Inactive)
REMARK    1  A    between atoms: C_4  and  C_17
REMARK                            x       y       z     vdW  Elec       q    Type
REMARK                         _______ _______ _______ _____ _____    ______ ____
ROOT
ATOM      1  O   UNL     1      33.755 -15.630 -26.014  0.00  0.00    -0.242 OA
ATOM      2  N   UNL     1      34.400 -16.847 -25.868  0.00  0.00    -0.048 NA
ATOM      3  N   UNL     1      33.583 -14.987 -24.800  0.00  0.00    -0.048 NA
ATOM      4  C   UNL     1      35.353 -17.836 -22.474  0.00  0.00    +0.055 C 
ATOM      5  C   UNL     1      35.270 -18.028 -23.864  0.00  0.00    +0.029 C 
ATOM      6  C   UNL     1      34.849 -16.686 -21.812  0.00  0.00    +0.006 C 
ATOM      7  C   UNL     1      34.639 -16.979 -24.557  0.00  0.00    +0.143 A 
ATOM      8  C   UNL     1      34.120 -15.796 -23.879  0.00  0.00    +0.143 A 
ATOM      9  C   UNL     1      34.215 -15.626 -22.486  0.00  0.00    +0.024 C 
ENDROOT
BRANCH   4  17
ATOM     10  O   UNL     1      37.197 -18.737 -21.449  0.00  0.00    -0.270 OA
ATOM     11  N   UNL     1      35.207 -19.943 -21.218  0.00  0.00    -0.276 N 
ATOM     12  C   UNL     1      33.347 -21.314 -19.488  0.00  0.00    +0.004 C 
ATOM     13  C   UNL     1      34.835 -21.223 -19.149  0.00  0.00    +0.022 C 
ATOM     14  C   UNL     1      32.909 -20.142 -20.366  0.00  0.00    +0.022 C 
ATOM     15  C   UNL     1      35.679 -21.077 -20.412  0.00  0.00    +0.094 C 
ATOM     16  C   UNL     1      33.798 -20.011 -21.602  0.00  0.00    +0.094 C 
ATOM     17  C   UNL     1      35.995 -18.880 -21.665  0.00  0.00    +0.249 C 
ENDBRANCH   4  17
TORSDOF 1
ENDMDL
MODEL 4
REMARK VINA RESULT:      -9.0      1.678      2.819
REMARK  Name = 4118151
REMARK  1 active torsions:
REMARK  status: ('A' for Active; 'I' for Inactive)
REMARK    1  A    between atoms: C_4  and  C_17
REMARK                            x       y       z     vdW  Elec       q    Type
REMARK                         _______ _______ _______ _____ _____    ______ ____
ROOT
ATOM      1  O   UNL     1      33.486 -23.051 -19.087  0.00  0.00    -0.242 OA
ATOM      2  N   UNL     1      32.840 -21.906 -19.521  0.00  0.00    -0.048 NA
ATOM      3  N   UNL     1      34.862 -22.940 -19.191  0.00  0.00    -0.048 NA
ATOM      4  C   UNL     1      34.940 -19.157 -20.721  0.00  0.00    +0.055 C 
ATOM      5  C   UNL     1      33.706 -19.760 -20.425  0.00  0.00    +0.029 C 
ATOM      6  C   UNL     1      36.191 -19.794 -20.517  0.00  0.00    +0.006 C 
ATOM      7  C   UNL     1      33.808 -21.063 -19.903  0.00  0.00    +0.143 A 
ATOM      8  C   UNL     1      35.093 -21.721 -19.693  0.00  0.00    +0.143 A 
ATOM      9  C   UNL     1      36.316 -21.096 -19.998  0.00  0.00    +0.024 C 
ENDROOT
BRANCH   4  17
ATOM     10  O   UNL     1      35.340 -16.906 -20.525  0.00  0.00    -0.270 OA
ATOM     11  N   UNL     1      34.466 -17.615 -22.575  0.00  0.00    -0.276 N 
ATOM     12  C   UNL     1      34.613 -17.577 -25.458  0.00  0.00    +0.004 C 
ATOM     13  C   UNL     1      35.112 -16.402 -24.617  0.00  0.00    +0.022 C 
ATOM     14  C   UNL     1      34.678 -18.886 -24.670  0.00  0.00    +0.022 C 
ATOM     15  C   UNL     1      34.377 -16.330 -23.282  0.00  0.00    +0.094 C 
ATOM     16  C   UNL     1      33.959 -18.762 -23.328  0.00  0.00    +0.094 C 
ATOM     17  C   UNL     1      34.934 -17.796 -21.272  0.00  0.00    +0.249 C 
ENDBRANCH   4  17
TORSDOF 1
ENDMDL
MODEL 5
REMARK VINA RESULT:      -8.9      2.106      5.891
REMARK  Name = 4118151
REMARK  1 active torsions:
REMARK  status: ('A' for Active; 'I' for Inactive)
REMARK    1  A    between atoms: C_4  and  C_17
REMARK                            x       y       z     vdW  Elec       q    Type
REMARK                         _______ _______ _______ _____ _____    ______ ____
ROOT
ATOM      1  O   UNL     1      33.392 -14.096 -22.423  0.00  0.00    -0.242 OA
ATOM      2  N   UNL     1      33.789 -14.787 -21.290  0.00  0.00    -0.048 NA
ATOM      3  N   UNL     1      33.720 -14.776 -23.584  0.00  0.00    -0.048 NA
ATOM      4  C   UNL     1      35.474 -17.998 -21.795  0.00  0.00    +0.055 C 
ATOM      5  C   UNL     1      34.949 -16.964 -21.001  0.00  0.00    +0.029 C 
ATOM      6  C   UNL     1      35.432 -17.993 -23.213  0.00  0.00    +0.006 C 
ATOM      7  C   UNL     1      34.371 -15.909 -21.731  0.00  0.00    +0.143 A 
ATOM      8  C   UNL     1      34.326 -15.902 -23.189  0.00  0.00    +0.143 A 
ATOM      9  C   UNL     1      34.860 -16.950 -23.962  0.00  0.00    +0.024 C 
ENDROOT
BRANCH   4  17
ATOM     10  O   UNL     1      37.306 -19.050 -20.900  0.00  0.00    -0.270 OA
ATOM     11  N   UNL     1      35.293 -20.235 -20.794  0.00  0.00    -0.276 N 
ATOM     12  C   UNL     1      33.418 -21.764 -19.220  0.00  0.00    +0.004 C 
ATOM     13  C   UNL     1      34.909 -21.742 -18.886  0.00  0.00    +0.022 C 
ATOM     14  C   UNL     1      32.998 -20.488 -19.950  0.00  0.00    +0.022 C 
ATOM     15  C   UNL     1      35.747 -21.466 -20.131  0.00  0.00    +0.094 C 
ATOM     16  C   UNL     1      33.880 -20.230 -21.170  0.00  0.00    +0.094 C 
ATOM     17  C   UNL     1      36.100 -19.142 -21.120  0.00  0.00    +0.249 C 
ENDBRANCH   4  17
TORSDOF 1
ENDMDL
MODEL 6
REMARK VINA RESULT:      -8.8      5.140      7.350
REMARK  Name = 4118151
REMARK  1 active torsions:
REMARK  status: ('A' for Active; 'I' for Inactive)
REMARK    1  A    between atoms: C_4  and  C_17
REMARK                            x       y       z     vdW  Elec       q    Type
REMARK                         _______ _______ _______ _____ _____    ______ ____
ROOT
ATOM      1  O   UNL     1      34.310 -16.868 -25.960  0.00  0.00    -0.242 OA
ATOM      2  N   UNL     1      33.511 -15.757 -26.171  0.00  0.00    -0.048 NA
ATOM      3  N   UNL     1      34.870 -16.868 -24.694  0.00  0.00    -0.048 NA
ATOM      4  C   UNL     1      33.211 -13.365 -23.414  0.00  0.00    +0.055 C 
ATOM      5  C   UNL     1      32.933 -13.832 -24.711  0.00  0.00    +0.029 C 
ATOM      6  C   UNL     1      34.051 -14.051 -22.499  0.00  0.00    +0.006 C 
ATOM      7  C   UNL     1      33.563 -15.048 -25.036  0.00  0.00    +0.143 A 
ATOM      8  C   UNL     1      34.426 -15.755 -24.097  0.00  0.00    +0.143 A 
ATOM      9  C   UNL     1      34.689 -15.267 -22.804  0.00  0.00    +0.024 C 
ENDROOT
BRANCH   4  17
ATOM     10  O   UNL     1      31.768 -12.180 -22.082  0.00  0.00    -0.270 OA
ATOM     11  N   UNL     1      32.993 -10.927 -23.630  0.00  0.00    -0.276 N 
ATOM     12  C   UNL     1      34.667  -8.638 -24.170  0.00  0.00    +0.004 C 
ATOM     13  C   UNL     1      33.634  -8.624 -23.044  0.00  0.00    +0.022 C 
ATOM     14  C   UNL     1      35.137 -10.062 -24.469  0.00  0.00    +0.022 C 
ATOM     15  C   UNL     1      32.482  -9.580 -23.342  0.00  0.00    +0.094 C 
ATOM     16  C   UNL     1      33.954 -10.993 -24.730  0.00  0.00    +0.094 C 
ATOM     17  C   UNL     1      32.599 -12.102 -22.985  0.00  0.00    +0.249 C 
ENDBRANCH   4  17
TORSDOF 1
ENDMDL
MODEL 7
REMARK VINA RESULT:      -8.2      8.071      9.784
REMARK  Name = 4118151
REMARK  1 active torsions:
REMARK  status: ('A' for Active; 'I' for Inactive)
REMARK    1  A    between atoms: C_4  and  C_17
REMARK                            x       y       z     vdW  Elec       q    Type
REMARK                         _______ _______ _______ _____ _____    ______ ____
ROOT
ATOM      1  O   UNL     1      27.201 -22.193 -17.404  0.00  0.00    -0.242 OA
ATOM      2  N   UNL     1      28.020 -21.714 -16.396  0.00  0.00    -0.048 NA
ATOM      3  N   UNL     1      27.429 -23.535 -17.662  0.00  0.00    -0.048 NA
ATOM      4  C   UNL     1      30.362 -24.083 -14.877  0.00  0.00    +0.055 C 
ATOM      5  C   UNL     1      29.769 -22.817 -15.019  0.00  0.00    +0.029 C 
ATOM      6  C   UNL     1      29.998 -25.210 -15.658  0.00  0.00    +0.006 C 
ATOM      7  C   UNL     1      28.772 -22.753 -16.010  0.00  0.00    +0.143 A 
ATOM      8  C   UNL     1      28.395 -23.910 -16.815  0.00  0.00    +0.143 A 
ATOM      9  C   UNL     1      29.005 -25.168 -16.654  0.00  0.00    +0.024 C 
ENDROOT
BRANCH   4  17
ATOM     10  O   UNL     1      31.080 -24.791 -12.817  0.00  0.00    -0.270 OA
ATOM     11  N   UNL     1      32.694 -23.771 -14.167  0.00  0.00    -0.276 N 
ATOM     12  C   UNL     1      35.341 -23.840 -15.317  0.00  0.00    +0.004 C 
ATOM     13  C   UNL     1      35.032 -24.519 -13.982  0.00  0.00    +0.022 C 
ATOM     14  C   UNL     1      34.090 -23.749 -16.191  0.00  0.00    +0.022 C 
ATOM     15  C   UNL     1      33.862 -23.838 -13.277  0.00  0.00    +0.094 C 
ATOM     16  C   UNL     1      32.934 -23.092 -15.439  0.00  0.00    +0.094 C 
ATOM     17  C   UNL     1      31.415 -24.247 -13.867  0.00  0.00    +0.249 C 
ENDBRANCH   4  17
TORSDOF 1
ENDMDL
MODEL 8
REMARK VINA RESULT:      -8.2      3.649      7.558
REMARK  Name = 4118151
REMARK  1 active torsions:
REMARK  status: ('A' for Active; 'I' for Inactive)
REMARK    1  A    between atoms: C_4  and  C_17
REMARK                            x       y       z     vdW  Elec       q    Type
REMARK                         _______ _______ _______ _____ _____    ______ ____
ROOT
ATOM      1  O   UNL     1      33.660 -13.403 -27.794  0.00  0.00    -0.242 OA
ATOM      2  N   UNL     1      33.455 -14.612 -27.152  0.00  0.00    -0.048 NA
ATOM      3  N   UNL     1      33.796 -12.357 -26.897  0.00  0.00    -0.048 NA
ATOM      4  C   UNL     1      33.363 -14.565 -23.492  0.00  0.00    +0.055 C 
ATOM      5  C   UNL     1      33.298 -15.201 -24.744  0.00  0.00    +0.029 C 
ATOM      6  C   UNL     1      33.574 -13.171 -23.332  0.00  0.00    +0.006 C 
ATOM      7  C   UNL     1      33.462 -14.336 -25.841  0.00  0.00    +0.143 A 
ATOM      8  C   UNL     1      33.680 -12.903 -25.681  0.00  0.00    +0.143 A 
ATOM      9  C   UNL     1      33.740 -12.289 -24.416  0.00  0.00    +0.024 C 
ENDROOT
BRANCH   4  17
ATOM     10  O   UNL     1      32.243 -15.113 -21.566  0.00  0.00    -0.270 OA
ATOM     11  N   UNL     1      34.138 -16.396 -22.047  0.00  0.00    -0.276 N 
ATOM     12  C   UNL     1      35.340 -19.007 -22.309  0.00  0.00    +0.004 C 
ATOM     13  C   UNL     1      34.172 -18.758 -21.355  0.00  0.00    +0.022 C 
ATOM     14  C   UNL     1      35.326 -18.012 -23.469  0.00  0.00    +0.022 C 
ATOM     15  C   UNL     1      34.141 -17.304 -20.892  0.00  0.00    +0.094 C 
ATOM     16  C   UNL     1      35.263 -16.571 -22.965  0.00  0.00    +0.094 C 
ATOM     17  C   UNL     1      33.202 -15.387 -22.286  0.00  0.00    +0.249 C 
ENDBRANCH   4  17
TORSDOF 1
ENDMDL
MODEL 9
REMARK VINA RESULT:      -8.1      9.815     13.114
REMARK  Name = 4118151
REMARK  1 active torsions:
REMARK  status: ('A' for Active; 'I' for Inactive)
REMARK    1  A    between atoms: C_4  and  C_17
REMARK                            x       y       z     vdW  Elec       q    Type
REMARK                         _______ _______ _______ _____ _____    ______ ____
ROOT
ATOM      1  O   UNL     1      31.401  -4.478 -25.499  0.00  0.00    -0.242 OA
ATOM      2  N   UNL     1      30.819  -4.742 -24.271  0.00  0.00    -0.048 NA
ATOM      3  N   UNL     1      32.591  -5.167 -25.666  0.00  0.00    -0.048 NA
ATOM      4  C   UNL     1      32.581  -7.060 -22.050  0.00  0.00    +0.055 C 
ATOM      5  C   UNL     1      31.524  -6.194 -22.383  0.00  0.00    +0.029 C 
ATOM      6  C   UNL     1      33.677  -7.324 -22.912  0.00  0.00    +0.006 C 
ATOM      7  C   UNL     1      31.640  -5.602 -23.654  0.00  0.00    +0.143 A 
ATOM      8  C   UNL     1      32.765  -5.872 -24.542  0.00  0.00    +0.143 A 
ATOM      9  C   UNL     1      33.812  -6.743 -24.186  0.00  0.00    +0.024 C 
ENDROOT
BRANCH   4  17
ATOM     10  O   UNL     1      32.733  -7.003 -19.762  0.00  0.00    -0.270 OA
ATOM     11  N   UNL     1      32.323  -9.102 -20.708  0.00  0.00    -0.276 N 
ATOM     12  C   UNL     1      30.762 -11.530 -20.728  0.00  0.00    +0.004 C 
ATOM     13  C   UNL     1      30.965 -10.721 -19.446  0.00  0.00    +0.022 C 
ATOM     14  C   UNL     1      30.873 -10.639 -21.965  0.00  0.00    +0.022 C 
ATOM     15  C   UNL     1      32.269  -9.931 -19.496  0.00  0.00    +0.094 C 
ATOM     16  C   UNL     1      32.176  -9.842 -21.961  0.00  0.00    +0.094 C 
ATOM     17  C   UNL     1      32.548  -7.724 -20.741  0.00  0.00    +0.249 C 
ENDBRANCH   4  17
TORSDOF 1
ENDMDL
