MODEL 1
REMARK VINA RESULT:      -8.6      0.000      0.000
REMARK  Name = 425841
REMARK  5 active torsions:
REMARK  status: ('A' for Active; 'I' for Inactive)
REMARK    1  A    between atoms: N_1  and  C_3
REMARK    2  A    between atoms: N_1  and  C_17
REMARK    3  A    between atoms: C_3  and  N_6
REMARK    4  A    between atoms: N_6  and  C_9
REMARK    5  A    between atoms: C_15  and  C_24
REMARK                            x       y       z     vdW  Elec       q    Type
REMARK                         _______ _______ _______ _____ _____    ______ ____
ROOT
ATOM      1  N   UNL     1      36.096 -22.292 -18.685  0.00  0.00    -0.211 NA
ENDROOT
BRANCH   1   5
ATOM      2 CL   UNL     1      33.083 -22.557 -18.459  0.00  0.00    -0.081 Cl
ATOM      3  C   UNL     1      35.284 -19.562 -21.024  0.00  0.00    +0.073 C 
ATOM      4  C   UNL     1      36.010 -20.467 -20.250  0.00  0.00    +0.024 C 
ATOM      5  C   UNL     1      35.339 -21.394 -19.455  0.00  0.00    +0.095 C 
ATOM      6  C   UNL     1      33.889 -19.586 -21.002  0.00  0.00    +0.005 C 
ATOM      7  C   UNL     1      33.946 -21.420 -19.430  0.00  0.00    +0.075 C 
ATOM      8  C   UNL     1      33.221 -20.515 -20.206  0.00  0.00    +0.013 C 
BRANCH   3  12
ATOM      9  F   UNL     1      35.733 -18.700 -23.210  0.00  0.00    -0.166 F 
ATOM     10  F   UNL     1      35.693 -17.271 -21.578  0.00  0.00    -0.166 F 
ATOM     11  F   UNL     1      37.356 -18.660 -21.763  0.00  0.00    -0.166 F 
ATOM     12  C   UNL     1      35.999 -18.569 -21.877  0.00  0.00    +0.419 C 
ENDBRANCH   3  12
ENDBRANCH   1   5
BRANCH   1  14
ATOM     13  N   UNL     1      37.194 -20.905 -17.059  0.00  0.00    -0.368 N 
ATOM     14  C   UNL     1      36.409 -21.966 -17.462  0.00  0.00    +0.225 C 
ATOM     15  H   UNL     1      37.571 -20.290 -17.729  0.00  0.00    +0.159 HD
ATOM     16  H   UNL     1      37.378 -20.764 -16.102  0.00  0.00    +0.159 HD
BRANCH  14  17
ATOM     17  N   UNL     1      35.898 -22.807 -16.494  0.00  0.00    -0.180 NA
BRANCH  17  20
ATOM     18  N   UNL     1      36.371 -23.161 -14.238  0.00  0.00    -0.370 N 
ATOM     19  N   UNL     1      37.971 -23.772 -15.748  0.00  0.00    -0.370 N 
ATOM     20  C   UNL     1      36.718 -23.231 -15.566  0.00  0.00    +0.196 C 
ATOM     21  H   UNL     1      35.497 -22.792 -13.976  0.00  0.00    +0.159 HD
ATOM     22  H   UNL     1      36.997 -23.481 -13.548  0.00  0.00    +0.159 HD
ATOM     23  H   UNL     1      38.335 -23.875 -16.657  0.00  0.00    +0.159 HD
ATOM     24  H   UNL     1      38.503 -24.056 -14.970  0.00  0.00    +0.159 HD
ENDBRANCH  17  20
ENDBRANCH  14  17
ENDBRANCH   1  14
TORSDOF 5
ENDMDL
MODEL 2
REMARK VINA RESULT:      -8.3      3.734      4.891
REMARK  Name = 425841
REMARK  5 active torsions:
REMARK  status: ('A' for Active; 'I' for Inactive)
REMARK    1  A    between atoms: N_1  and  C_3
REMARK    2  A    between atoms: N_1  and  C_17
REMARK    3  A    between atoms: C_3  and  N_6
REMARK    4  A    between atoms: N_6  and  C_9
REMARK    5  A    between atoms: C_15  and  C_24
REMARK                            x       y       z     vdW  Elec       q    Type
REMARK                         _______ _______ _______ _____ _____    ______ ____
ROOT
ATOM      1  N   UNL     1      34.613 -19.851 -21.478  0.00  0.00    -0.211 NA
ENDROOT
BRANCH   1   5
ATOM      2 CL   UNL     1      35.080 -19.772 -24.474  0.00  0.00    -0.081 Cl
ATOM      3  C   UNL     1      34.213 -16.205 -21.843  0.00  0.00    +0.073 C 
ATOM      4  C   UNL     1      34.283 -17.476 -21.274  0.00  0.00    +0.024 C 
ATOM      5  C   UNL     1      34.549 -18.583 -22.078  0.00  0.00    +0.095 C 
ATOM      6  C   UNL     1      34.410 -16.043 -23.215  0.00  0.00    +0.005 C 
ATOM      7  C   UNL     1      34.746 -18.423 -23.448  0.00  0.00    +0.075 C 
ATOM      8  C   UNL     1      34.676 -17.151 -24.017  0.00  0.00    +0.013 C 
BRANCH   3  12
ATOM      9  F   UNL     1      32.941 -15.231 -20.066  0.00  0.00    -0.166 F 
ATOM     10  F   UNL     1      35.007 -14.599 -20.258  0.00  0.00    -0.166 F 
ATOM     11  F   UNL     1      33.530 -13.932 -21.708  0.00  0.00    -0.166 F 
ATOM     12  C   UNL     1      33.929 -15.019 -20.985  0.00  0.00    +0.419 C 
ENDBRANCH   3  12
ENDBRANCH   1   5
BRANCH   1  14
ATOM     13  N   UNL     1      36.783 -19.591 -20.480  0.00  0.00    -0.368 N 
ATOM     14  C   UNL     1      35.485 -20.057 -20.531  0.00  0.00    +0.225 C 
ATOM     15  H   UNL     1      37.132 -19.025 -21.206  0.00  0.00    +0.159 HD
ATOM     16  H   UNL     1      37.360 -19.825 -19.717  0.00  0.00    +0.159 HD
BRANCH  14  17
ATOM     17  N   UNL     1      35.032 -20.848 -19.494  0.00  0.00    -0.180 NA
BRANCH  17  20
ATOM     18  N   UNL     1      33.664 -22.715 -19.773  0.00  0.00    -0.370 N 
ATOM     19  N   UNL     1      32.634 -20.687 -19.572  0.00  0.00    -0.370 N 
ATOM     20  C   UNL     1      33.834 -21.362 -19.603  0.00  0.00    +0.196 C 
ATOM     21  H   UNL     1      34.448 -23.309 -19.812  0.00  0.00    +0.159 HD
ATOM     22  H   UNL     1      32.758 -23.090 -19.857  0.00  0.00    +0.159 HD
ATOM     23  H   UNL     1      32.623 -19.709 -19.454  0.00  0.00    +0.159 HD
ATOM     24  H   UNL     1      31.788 -21.181 -19.666  0.00  0.00    +0.159 HD
ENDBRANCH  17  20
ENDBRANCH  14  17
ENDBRANCH   1  14
TORSDOF 5
ENDMDL
MODEL 3
REMARK VINA RESULT:      -8.3      7.072      9.122
REMARK  Name = 425841
REMARK  5 active torsions:
REMARK  status: ('A' for Active; 'I' for Inactive)
REMARK    1  A    between atoms: N_1  and  C_3
REMARK    2  A    between atoms: N_1  and  C_17
REMARK    3  A    between atoms: C_3  and  N_6
REMARK    4  A    between atoms: N_6  and  C_9
REMARK    5  A    between atoms: C_15  and  C_24
REMARK                            x       y       z     vdW  Elec       q    Type
REMARK                         _______ _______ _______ _____ _____    ______ ____
ROOT
ATOM      1  N   UNL     1      34.370 -14.162 -23.633  0.00  0.00    -0.211 NA
ENDROOT
BRANCH   1   5
ATOM      2 CL   UNL     1      33.285 -15.281 -26.236  0.00  0.00    -0.081 Cl
ATOM      3  C   UNL     1      35.287 -17.669 -22.966  0.00  0.00    +0.073 C 
ATOM      4  C   UNL     1      35.129 -16.292 -22.812  0.00  0.00    +0.024 C 
ATOM      5  C   UNL     1      34.514 -15.547 -23.816  0.00  0.00    +0.095 C 
ATOM      6  C   UNL     1      34.828 -18.298 -24.124  0.00  0.00    +0.005 C 
ATOM      7  C   UNL     1      34.055 -16.173 -24.973  0.00  0.00    +0.075 C 
ATOM      8  C   UNL     1      34.212 -17.551 -25.127  0.00  0.00    +0.013 C 
BRANCH   3  12
ATOM      9  F   UNL     1      35.479 -19.750 -21.802  0.00  0.00    -0.166 F 
ATOM     10  F   UNL     1      37.296 -18.592 -22.054  0.00  0.00    -0.166 F 
ATOM     11  F   UNL     1      35.771 -17.927 -20.653  0.00  0.00    -0.166 F 
ATOM     12  C   UNL     1      35.944 -18.469 -21.894  0.00  0.00    +0.419 C 
ENDBRANCH   3  12
ENDBRANCH   1   5
BRANCH   1  14
ATOM     13  N   UNL     1      32.449 -14.351 -22.203  0.00  0.00    -0.368 N 
ATOM     14  C   UNL     1      33.267 -13.706 -23.108  0.00  0.00    +0.225 C 
ATOM     15  H   UNL     1      32.687 -15.248 -21.876  0.00  0.00    +0.159 HD
ATOM     16  H   UNL     1      31.627 -13.913 -21.884  0.00  0.00    +0.159 HD
BRANCH  14  17
ATOM     17  N   UNL     1      32.900 -12.449 -23.543  0.00  0.00    -0.180 NA
BRANCH  17  20
ATOM     18  N   UNL     1      34.638 -10.948 -23.951  0.00  0.00    -0.370 N 
ATOM     19  N   UNL     1      33.711 -11.991 -25.760  0.00  0.00    -0.370 N 
ATOM     20  C   UNL     1      33.693 -11.845 -24.390  0.00  0.00    +0.196 C 
ATOM     21  H   UNL     1      34.725 -10.756 -22.990  0.00  0.00    +0.159 HD
ATOM     22  H   UNL     1      35.227 -10.498 -24.599  0.00  0.00    +0.159 HD
ATOM     23  H   UNL     1      33.080 -12.607 -26.197  0.00  0.00    +0.159 HD
ATOM     24  H   UNL     1      34.355 -11.480 -26.301  0.00  0.00    +0.159 HD
ENDBRANCH  17  20
ENDBRANCH  14  17
ENDBRANCH   1  14
TORSDOF 5
ENDMDL
MODEL 4
REMARK VINA RESULT:      -8.1      7.509      9.220
REMARK  Name = 425841
REMARK  5 active torsions:
REMARK  status: ('A' for Active; 'I' for Inactive)
REMARK    1  A    between atoms: N_1  and  C_3
REMARK    2  A    between atoms: N_1  and  C_17
REMARK    3  A    between atoms: C_3  and  N_6
REMARK    4  A    between atoms: N_6  and  C_9
REMARK    5  A    between atoms: C_15  and  C_24
REMARK                            x       y       z     vdW  Elec       q    Type
REMARK                         _______ _______ _______ _____ _____    ______ ____
ROOT
ATOM      1  N   UNL     1      32.515 -13.698 -23.613  0.00  0.00    -0.211 NA
ENDROOT
BRANCH   1   5
ATOM      2 CL   UNL     1      33.107 -14.645 -26.434  0.00  0.00    -0.081 Cl
ATOM      3  C   UNL     1      34.521 -16.631 -22.631  0.00  0.00    +0.073 C 
ATOM      4  C   UNL     1      33.739 -15.478 -22.554  0.00  0.00    +0.024 C 
ATOM      5  C   UNL     1      33.299 -14.858 -23.722  0.00  0.00    +0.095 C 
ATOM      6  C   UNL     1      34.860 -17.162 -23.876  0.00  0.00    +0.005 C 
ATOM      7  C   UNL     1      33.638 -15.386 -24.966  0.00  0.00    +0.075 C 
ATOM      8  C   UNL     1      34.419 -16.540 -25.043  0.00  0.00    +0.013 C 
BRANCH   3  12
ATOM      9  F   UNL     1      34.140 -18.259 -20.920  0.00  0.00    -0.166 F 
ATOM     10  F   UNL     1      36.197 -17.926 -21.521  0.00  0.00    -0.166 F 
ATOM     11  F   UNL     1      35.153 -16.421 -20.349  0.00  0.00    -0.166 F 
ATOM     12  C   UNL     1      34.992 -17.297 -21.383  0.00  0.00    +0.419 C 
ENDBRANCH   3  12
ENDBRANCH   1   5
BRANCH   1  14
ATOM     13  N   UNL     1      34.356 -12.198 -23.978  0.00  0.00    -0.368 N 
ATOM     14  C   UNL     1      33.110 -12.544 -23.497  0.00  0.00    +0.225 C 
ATOM     15  H   UNL     1      34.888 -12.854 -24.484  0.00  0.00    +0.159 HD
ATOM     16  H   UNL     1      34.713 -11.295 -23.816  0.00  0.00    +0.159 HD
BRANCH  14  17
ATOM     17  N   UNL     1      32.394 -11.597 -22.791  0.00  0.00    -0.180 NA
BRANCH  17  20
ATOM     18  N   UNL     1      30.458 -11.547 -21.494  0.00  0.00    -0.370 N 
ATOM     19  N   UNL     1      32.169 -12.872 -20.765  0.00  0.00    -0.370 N 
ATOM     20  C   UNL     1      31.732 -11.999 -21.737  0.00  0.00    +0.196 C 
ATOM     21  H   UNL     1      30.032 -10.915 -22.117  0.00  0.00    +0.159 HD
ATOM     22  H   UNL     1      29.971 -11.854 -20.695  0.00  0.00    +0.159 HD
ATOM     23  H   UNL     1      33.069 -13.267 -20.827  0.00  0.00    +0.159 HD
ATOM     24  H   UNL     1      31.581 -13.102 -20.010  0.00  0.00    +0.159 HD
ENDBRANCH  17  20
ENDBRANCH  14  17
ENDBRANCH   1  14
TORSDOF 5
ENDMDL
MODEL 5
REMARK VINA RESULT:      -8.0      5.360      6.730
REMARK  Name = 425841
REMARK  5 active torsions:
REMARK  status: ('A' for Active; 'I' for Inactive)
REMARK    1  A    between atoms: N_1  and  C_3
REMARK    2  A    between atoms: N_1  and  C_17
REMARK    3  A    between atoms: C_3  and  N_6
REMARK    4  A    between atoms: N_6  and  C_9
REMARK    5  A    between atoms: C_15  and  C_24
REMARK                            x       y       z     vdW  Elec       q    Type
REMARK                         _______ _______ _______ _____ _____    ______ ____
ROOT
ATOM      1  N   UNL     1      33.634 -23.521 -18.162  0.00  0.00    -0.211 NA
ENDROOT
BRANCH   1   5
ATOM      2 CL   UNL     1      35.400 -23.610 -15.698  0.00  0.00    -0.081 Cl
ATOM      3  C   UNL     1      30.925 -23.005 -15.717  0.00  0.00    +0.073 C 
ATOM      4  C   UNL     1      31.600 -23.171 -16.926  0.00  0.00    +0.024 C 
ATOM      5  C   UNL     1      32.981 -23.358 -16.930  0.00  0.00    +0.095 C 
ATOM      6  C   UNL     1      31.632 -23.026 -14.515  0.00  0.00    +0.005 C 
ATOM      7  C   UNL     1      33.689 -23.378 -15.730  0.00  0.00    +0.075 C 
ATOM      8  C   UNL     1      33.013 -23.213 -14.521  0.00  0.00    +0.013 C 
BRANCH   3  12
ATOM      9  F   UNL     1      28.741 -23.947 -15.453  0.00  0.00    -0.166 F 
ATOM     10  F   UNL     1      29.021 -21.906 -14.774  0.00  0.00    -0.166 F 
ATOM     11  F   UNL     1      28.973 -22.344 -16.904  0.00  0.00    -0.166 F 
ATOM     12  C   UNL     1      29.447 -22.806 -15.710  0.00  0.00    +0.419 C 
ENDBRANCH   3  12
ENDBRANCH   1   5
BRANCH   1  14
ATOM     13  N   UNL     1      32.931 -21.460 -19.179  0.00  0.00    -0.368 N 
ATOM     14  C   UNL     1      33.828 -22.475 -18.916  0.00  0.00    +0.225 C 
ATOM     15  H   UNL     1      32.038 -21.474 -18.765  0.00  0.00    +0.159 HD
ATOM     16  H   UNL     1      33.183 -20.723 -19.781  0.00  0.00    +0.159 HD
BRANCH  14  17
ATOM     17  N   UNL     1      35.071 -22.421 -19.516  0.00  0.00    -0.180 NA
BRANCH  17  20
ATOM     18  N   UNL     1      36.507 -21.409 -17.983  0.00  0.00    -0.370 N 
ATOM     19  N   UNL     1      36.140 -20.312 -19.952  0.00  0.00    -0.370 N 
ATOM     20  C   UNL     1      35.857 -21.426 -19.194  0.00  0.00    +0.196 C 
ATOM     21  H   UNL     1      36.386 -22.152 -17.349  0.00  0.00    +0.159 HD
ATOM     22  H   UNL     1      37.094 -20.653 -17.751  0.00  0.00    +0.159 HD
ATOM     23  H   UNL     1      35.733 -20.207 -20.843  0.00  0.00    +0.159 HD
ATOM     24  H   UNL     1      36.748 -19.621 -19.605  0.00  0.00    +0.159 HD
ENDBRANCH  17  20
ENDBRANCH  14  17
ENDBRANCH   1  14
TORSDOF 5
ENDMDL
MODEL 6
REMARK VINA RESULT:      -8.0      2.517      3.593
REMARK  Name = 425841
REMARK  5 active torsions:
REMARK  status: ('A' for Active; 'I' for Inactive)
REMARK    1  A    between atoms: N_1  and  C_3
REMARK    2  A    between atoms: N_1  and  C_17
REMARK    3  A    between atoms: C_3  and  N_6
REMARK    4  A    between atoms: N_6  and  C_9
REMARK    5  A    between atoms: C_15  and  C_24
REMARK                            x       y       z     vdW  Elec       q    Type
REMARK                         _______ _______ _______ _____ _____    ______ ____
ROOT
ATOM      1  N   UNL     1      36.360 -22.879 -15.034  0.00  0.00    -0.211 NA
ENDROOT
BRANCH   1   5
ATOM      2 CL   UNL     1      33.622 -24.172 -14.847  0.00  0.00    -0.081 Cl
ATOM      3  C   UNL     1      35.265 -21.978 -18.436  0.00  0.00    +0.073 C 
ATOM      4  C   UNL     1      36.048 -22.099 -17.289  0.00  0.00    +0.024 C 
ATOM      5  C   UNL     1      35.549 -22.774 -16.176  0.00  0.00    +0.095 C 
ATOM      6  C   UNL     1      33.985 -22.532 -18.470  0.00  0.00    +0.005 C 
ATOM      7  C   UNL     1      34.271 -23.327 -16.207  0.00  0.00    +0.075 C 
ATOM      8  C   UNL     1      33.488 -23.207 -17.355  0.00  0.00    +0.013 C 
BRANCH   3  12
ATOM      9  F   UNL     1      36.198 -22.087 -20.637  0.00  0.00    -0.166 F 
ATOM     10  F   UNL     1      34.892 -20.410 -20.204  0.00  0.00    -0.166 F 
ATOM     11  F   UNL     1      36.884 -20.486 -19.335  0.00  0.00    -0.166 F 
ATOM     12  C   UNL     1      35.797 -21.258 -19.629  0.00  0.00    +0.419 C 
ENDBRANCH   3  12
ENDBRANCH   1   5
BRANCH   1  14
ATOM     13  N   UNL     1      38.408 -23.938 -15.708  0.00  0.00    -0.368 N 
ATOM     14  C   UNL     1      37.244 -23.835 -14.975  0.00  0.00    +0.225 C 
ATOM     15  H   UNL     1      38.651 -23.231 -16.349  0.00  0.00    +0.159 HD
ATOM     16  H   UNL     1      38.997 -24.719 -15.591  0.00  0.00    +0.159 HD
BRANCH  14  17
ATOM     17  N   UNL     1      36.939 -24.847 -14.087  0.00  0.00    -0.180 NA
BRANCH  17  20
ATOM     18  N   UNL     1      36.040 -26.624 -15.300  0.00  0.00    -0.370 N 
ATOM     19  N   UNL     1      38.050 -26.971 -14.274  0.00  0.00    -0.370 N 
ATOM     20  C   UNL     1      37.029 -26.080 -14.517  0.00  0.00    +0.196 C 
ATOM     21  H   UNL     1      35.253 -26.085 -15.545  0.00  0.00    +0.159 HD
ATOM     22  H   UNL     1      36.118 -27.554 -15.616  0.00  0.00    +0.159 HD
ATOM     23  H   UNL     1      38.820 -26.700 -13.724  0.00  0.00    +0.159 HD
ATOM     24  H   UNL     1      38.011 -27.880 -14.651  0.00  0.00    +0.159 HD
ENDBRANCH  17  20
ENDBRANCH  14  17
ENDBRANCH   1  14
TORSDOF 5
ENDMDL
MODEL 7
REMARK VINA RESULT:      -7.9      6.100      7.992
REMARK  Name = 425841
REMARK  5 active torsions:
REMARK  status: ('A' for Active; 'I' for Inactive)
REMARK    1  A    between atoms: N_1  and  C_3
REMARK    2  A    between atoms: N_1  and  C_17
REMARK    3  A    between atoms: C_3  and  N_6
REMARK    4  A    between atoms: N_6  and  C_9
REMARK    5  A    between atoms: C_15  and  C_24
REMARK                            x       y       z     vdW  Elec       q    Type
REMARK                         _______ _______ _______ _____ _____    ______ ____
ROOT
ATOM      1  N   UNL     1      34.960 -15.357 -22.783  0.00  0.00    -0.211 NA
ENDROOT
BRANCH   1   5
ATOM      2 CL   UNL     1      34.254 -16.308 -25.576  0.00  0.00    -0.081 Cl
ATOM      3  C   UNL     1      35.239 -18.959 -22.055  0.00  0.00    +0.073 C 
ATOM      4  C   UNL     1      35.246 -17.574 -21.894  0.00  0.00    +0.024 C 
ATOM      5  C   UNL     1      34.944 -16.748 -22.975  0.00  0.00    +0.095 C 
ATOM      6  C   UNL     1      34.930 -19.516 -23.297  0.00  0.00    +0.005 C 
ATOM      7  C   UNL     1      34.636 -17.302 -24.216  0.00  0.00    +0.075 C 
ATOM      8  C   UNL     1      34.628 -18.688 -24.376  0.00  0.00    +0.013 C 
BRANCH   3  12
ATOM      9  F   UNL     1      36.649 -19.438 -20.182  0.00  0.00    -0.166 F 
ATOM     10  F   UNL     1      34.549 -19.944 -19.988  0.00  0.00    -0.166 F 
ATOM     11  F   UNL     1      35.834 -21.128 -21.282  0.00  0.00    -0.166 F 
ATOM     12  C   UNL     1      35.561 -19.846 -20.900  0.00  0.00    +0.419 C 
ENDBRANCH   3  12
ENDBRANCH   1   5
BRANCH   1  14
ATOM     13  N   UNL     1      34.289 -14.537 -20.627  0.00  0.00    -0.368 N 
ATOM     14  C   UNL     1      34.098 -14.824 -21.963  0.00  0.00    +0.225 C 
ATOM     15  H   UNL     1      35.158 -14.721 -20.203  0.00  0.00    +0.159 HD
ATOM     16  H   UNL     1      33.557 -14.146 -20.098  0.00  0.00    +0.159 HD
BRANCH  14  17
ATOM     17  N   UNL     1      32.865 -14.551 -22.521  0.00  0.00    -0.180 NA
BRANCH  17  20
ATOM     18  N   UNL     1      33.367 -12.715 -23.870  0.00  0.00    -0.370 N 
ATOM     19  N   UNL     1      31.662 -12.474 -22.369  0.00  0.00    -0.370 N 
ATOM     20  C   UNL     1      32.624 -13.316 -22.882  0.00  0.00    +0.196 C 
ATOM     21  H   UNL     1      34.088 -13.215 -24.316  0.00  0.00    +0.159 HD
ATOM     22  H   UNL     1      33.177 -11.785 -24.130  0.00  0.00    +0.159 HD
ATOM     23  H   UNL     1      31.064 -12.789 -21.653  0.00  0.00    +0.159 HD
ATOM     24  H   UNL     1      31.573 -11.558 -22.718  0.00  0.00    +0.159 HD
ENDBRANCH  17  20
ENDBRANCH  14  17
ENDBRANCH   1  14
TORSDOF 5
ENDMDL
MODEL 8
REMARK VINA RESULT:      -7.9      7.575      9.528
REMARK  Name = 425841
REMARK  5 active torsions:
REMARK  status: ('A' for Active; 'I' for Inactive)
REMARK    1  A    between atoms: N_1  and  C_3
REMARK    2  A    between atoms: N_1  and  C_17
REMARK    3  A    between atoms: C_3  and  N_6
REMARK    4  A    between atoms: N_6  and  C_9
REMARK    5  A    between atoms: C_15  and  C_24
REMARK                            x       y       z     vdW  Elec       q    Type
REMARK                         _______ _______ _______ _____ _____    ______ ____
ROOT
ATOM      1  N   UNL     1      34.211 -13.372 -23.459  0.00  0.00    -0.211 NA
ENDROOT
BRANCH   1   5
ATOM      2 CL   UNL     1      32.336 -13.268 -21.076  0.00  0.00    -0.081 Cl
ATOM      3  C   UNL     1      34.658 -16.889 -22.452  0.00  0.00    +0.073 C 
ATOM      4  C   UNL     1      34.781 -15.689 -23.151  0.00  0.00    +0.024 C 
ATOM      5  C   UNL     1      34.068 -14.567 -22.734  0.00  0.00    +0.095 C 
ATOM      6  C   UNL     1      33.823 -16.965 -21.336  0.00  0.00    +0.005 C 
ATOM      7  C   UNL     1      33.232 -14.640 -21.622  0.00  0.00    +0.075 C 
ATOM      8  C   UNL     1      33.110 -15.840 -20.922  0.00  0.00    +0.013 C 
BRANCH   3  12
ATOM      9  F   UNL     1      36.674 -18.174 -22.358  0.00  0.00    -0.166 F 
ATOM     10  F   UNL     1      34.816 -19.273 -22.569  0.00  0.00    -0.166 F 
ATOM     11  F   UNL     1      35.598 -18.133 -24.247  0.00  0.00    -0.166 F 
ATOM     12  C   UNL     1      35.421 -18.092 -22.894  0.00  0.00    +0.419 C 
ENDBRANCH   3  12
ENDBRANCH   1   5
BRANCH   1  14
ATOM     13  N   UNL     1      32.762 -14.173 -25.200  0.00  0.00    -0.368 N 
ATOM     14  C   UNL     1      33.563 -13.235 -24.582  0.00  0.00    +0.225 C 
ATOM     15  H   UNL     1      32.620 -15.052 -24.781  0.00  0.00    +0.159 HD
ATOM     16  H   UNL     1      32.332 -13.963 -26.060  0.00  0.00    +0.159 HD
BRANCH  14  17
ATOM     17  N   UNL     1      33.737 -12.013 -25.201  0.00  0.00    -0.180 NA
BRANCH  17  20
ATOM     18  N   UNL     1      35.182 -10.332 -24.477  0.00  0.00    -0.370 N 
ATOM     19  N   UNL     1      33.102 -10.398 -23.537  0.00  0.00    -0.370 N 
ATOM     20  C   UNL     1      33.968 -10.975 -24.438  0.00  0.00    +0.196 C 
ATOM     21  H   UNL     1      35.889 -10.650 -25.083  0.00  0.00    +0.159 HD
ATOM     22  H   UNL     1      35.345  -9.554 -23.896  0.00  0.00    +0.159 HD
ATOM     23  H   UNL     1      32.197 -10.769 -23.417  0.00  0.00    +0.159 HD
ATOM     24  H   UNL     1      33.386  -9.616 -23.012  0.00  0.00    +0.159 HD
ENDBRANCH  17  20
ENDBRANCH  14  17
ENDBRANCH   1  14
TORSDOF 5
ENDMDL
MODEL 9
REMARK VINA RESULT:      -7.9     10.637     12.429
REMARK  Name = 425841
REMARK  5 active torsions:
REMARK  status: ('A' for Active; 'I' for Inactive)
REMARK    1  A    between atoms: N_1  and  C_3
REMARK    2  A    between atoms: N_1  and  C_17
REMARK    3  A    between atoms: C_3  and  N_6
REMARK    4  A    between atoms: N_6  and  C_9
REMARK    5  A    between atoms: C_15  and  C_24
REMARK                            x       y       z     vdW  Elec       q    Type
REMARK                         _______ _______ _______ _____ _____    ______ ____
ROOT
ATOM      1  N   UNL     1      32.764 -10.024 -23.972  0.00  0.00    -0.211 NA
ENDROOT
BRANCH   1   5
ATOM      2 CL   UNL     1      33.662  -7.144 -23.653  0.00  0.00    -0.081 Cl
ATOM      3  C   UNL     1      31.935  -9.747 -20.391  0.00  0.00    +0.073 C 
ATOM      4  C   UNL     1      32.090 -10.269 -21.675  0.00  0.00    +0.024 C 
ATOM      5  C   UNL     1      32.621  -9.473 -22.688  0.00  0.00    +0.095 C 
ATOM      6  C   UNL     1      32.312  -8.431 -20.122  0.00  0.00    +0.005 C 
ATOM      7  C   UNL     1      32.998  -8.158 -22.422  0.00  0.00    +0.075 C 
ATOM      8  C   UNL     1      32.844  -7.637 -21.137  0.00  0.00    +0.013 C 
BRANCH   3  12
ATOM      9  F   UNL     1      31.479 -11.937 -19.542  0.00  0.00    -0.166 F 
ATOM     10  F   UNL     1      31.963 -10.401 -18.090  0.00  0.00    -0.166 F 
ATOM     11  F   UNL     1      30.037 -10.370 -19.101  0.00  0.00    -0.166 F 
ATOM     12  C   UNL     1      31.368 -10.597 -19.305  0.00  0.00    +0.419 C 
ENDBRANCH   3  12
ENDBRANCH   1   5
BRANCH   1  14
ATOM     13  N   UNL     1      35.142 -10.299 -24.177  0.00  0.00    -0.368 N 
ATOM     14  C   UNL     1      33.831 -10.723 -24.242  0.00  0.00    +0.225 C 
ATOM     15  H   UNL     1      35.348  -9.382 -23.887  0.00  0.00    +0.159 HD
ATOM     16  H   UNL     1      35.871 -10.914 -24.422  0.00  0.00    +0.159 HD
BRANCH  14  17
ATOM     17  N   UNL     1      33.581 -12.018 -24.654  0.00  0.00    -0.180 NA
BRANCH  17  20
ATOM     18  N   UNL     1      32.160 -13.240 -23.266  0.00  0.00    -0.370 N 
ATOM     19  N   UNL     1      34.399 -13.665 -23.105  0.00  0.00    -0.370 N 
ATOM     20  C   UNL     1      33.417 -12.927 -23.728  0.00  0.00    +0.196 C 
ATOM     21  H   UNL     1      31.372 -12.780 -23.634  0.00  0.00    +0.159 HD
ATOM     22  H   UNL     1      32.050 -13.924 -22.567  0.00  0.00    +0.159 HD
ATOM     23  H   UNL     1      35.343 -13.532 -23.349  0.00  0.00    +0.159 HD
ATOM     24  H   UNL     1      34.156 -14.325 -22.416  0.00  0.00    +0.159 HD
ENDBRANCH  17  20
ENDBRANCH  14  17
ENDBRANCH   1  14
TORSDOF 5
ENDMDL
