MODEL 1
REMARK VINA RESULT:     -10.2      0.000      0.000
REMARK  Name = 11152667
REMARK  4 active torsions:
REMARK  status: ('A' for Active; 'I' for Inactive)
REMARK    1  A    between atoms: C_2  and  C_22
REMARK    2  A    between atoms: C_3  and  N_14
REMARK    3  A    between atoms: C_4  and  C_7
REMARK    4  A    between atoms: N_21  and  C_25
REMARK                            x       y       z     vdW  Elec       q    Type
REMARK                         _______ _______ _______ _____ _____    ______ ____
ROOT
ATOM      1  S   UNL     1      34.938 -22.935 -16.092  0.00  0.00    -0.081 S 
ATOM      2  C   UNL     1      33.730 -23.751 -15.246  0.00  0.00    +0.096 C 
ATOM      3  C   UNL     1      32.545 -23.845 -15.869  0.00  0.00    +0.062 C 
ATOM      4  C   UNL     1      33.852 -22.668 -17.389  0.00  0.00    +0.031 C 
ATOM      5  C   UNL     1      32.609 -23.206 -17.142  0.00  0.00    +0.022 C 
ENDROOT
BRANCH   4   7
ATOM      6  F   UNL     1      32.969 -20.008 -21.317  0.00  0.00    -0.204 F 
ATOM      7  C   UNL     1      34.317 -21.947 -18.551  0.00  0.00    +0.008 C 
ATOM      8  C   UNL     1      33.400 -21.313 -19.389  0.00  0.00    +0.030 C 
ATOM      9  C   UNL     1      35.680 -21.884 -18.832  0.00  0.00    +0.001 C 
ATOM     10  C   UNL     1      33.849 -20.616 -20.511  0.00  0.00    +0.140 C 
ATOM     11  C   UNL     1      36.129 -21.187 -19.953  0.00  0.00    +0.002 C 
ATOM     12  C   UNL     1      35.214 -20.553 -20.793  0.00  0.00    +0.030 C 
ENDBRANCH   4   7
BRANCH   3  14
ATOM     13  O   UNL     1      30.010 -22.667 -14.800  0.00  0.00    -0.253 OA
ATOM     14  N   UNL     1      31.421 -24.468 -15.365  0.00  0.00    -0.268 N 
ATOM     15  N   UNL     1      29.331 -24.820 -14.448  0.00  0.00    -0.313 N 
ATOM     16  C   UNL     1      30.251 -23.869 -14.872  0.00  0.00    +0.301 C 
ATOM     17  H   UNL     1      31.442 -25.452 -15.348  0.00  0.00    +0.156 HD
ATOM     18  H   UNL     1      28.464 -24.535 -14.079  0.00  0.00    +0.146 HD
ATOM     19  H   UNL     1      29.546 -25.778 -14.516  0.00  0.00    +0.146 HD
ENDBRANCH   3  14
BRANCH   2  22
ATOM     20  O   UNL     1      33.198 -24.557 -13.109  0.00  0.00    -0.270 OA
ATOM     21  N   UNL     1      35.448 -24.447 -13.664  0.00  0.00    -0.304 N 
ATOM     22  C   UNL     1      34.091 -24.281 -13.906  0.00  0.00    +0.253 C 
ATOM     23  H   UNL     1      36.088 -24.195 -14.368  0.00  0.00    +0.150 HD
BRANCH  21  25
ATOM     24  N   UNL     1      37.330 -23.004 -11.771  0.00  0.00    +0.385 N 
ATOM     25  C   UNL     1      35.956 -24.976 -12.417  0.00  0.00    +0.051 C 
ATOM     26  C   UNL     1      37.233 -25.790 -12.644  0.00  0.00    +0.015 C 
ATOM     27  C   UNL     1      38.426 -24.883 -12.945  0.00  0.00    -0.022 C 
ATOM     28  C   UNL     1      36.197 -23.855 -11.398  0.00  0.00    -0.062 C 
ATOM     29  C   UNL     1      38.563 -23.781 -11.898  0.00  0.00    -0.082 C 
ATOM     30  H   UNL     1      37.460 -22.291 -11.052  0.00  0.00    -0.084 HD
ATOM     31  H   UNL     1      37.127 -22.576 -12.673  0.00  0.00    -0.084 HD
ENDBRANCH  21  25
ENDBRANCH   2  22
TORSDOF 4
ENDMDL
MODEL 2
REMARK VINA RESULT:      -9.8      3.532      5.455
REMARK  Name = 11152667
REMARK  4 active torsions:
REMARK  status: ('A' for Active; 'I' for Inactive)
REMARK    1  A    between atoms: C_2  and  C_22
REMARK    2  A    between atoms: C_3  and  N_14
REMARK    3  A    between atoms: C_4  and  C_7
REMARK    4  A    between atoms: N_21  and  C_25
REMARK                            x       y       z     vdW  Elec       q    Type
REMARK                         _______ _______ _______ _____ _____    ______ ____
ROOT
ATOM      1  S   UNL     1      33.413 -23.511 -15.302  0.00  0.00    -0.081 S 
ATOM      2  C   UNL     1      34.661 -23.086 -16.352  0.00  0.00    +0.096 C 
ATOM      3  C   UNL     1      34.282 -22.700 -17.580  0.00  0.00    +0.062 C 
ATOM      4  C   UNL     1      32.264 -23.173 -16.527  0.00  0.00    +0.031 C 
ATOM      5  C   UNL     1      32.861 -22.748 -17.693  0.00  0.00    +0.022 C 
ENDROOT
BRANCH   4   7
ATOM      6  F   UNL     1      28.674 -25.729 -14.561  0.00  0.00    -0.204 F 
ATOM      7  C   UNL     1      30.861 -23.354 -16.237  0.00  0.00    +0.008 C 
ATOM      8  C   UNL     1      30.437 -24.476 -15.524  0.00  0.00    +0.030 C 
ATOM      9  C   UNL     1      29.933 -22.408 -16.667  0.00  0.00    +0.001 C 
ATOM     10  C   UNL     1      29.082 -24.651 -15.243  0.00  0.00    +0.140 C 
ATOM     11  C   UNL     1      28.578 -22.583 -16.386  0.00  0.00    +0.002 C 
ATOM     12  C   UNL     1      28.153 -23.704 -15.674  0.00  0.00    +0.030 C 
ENDBRANCH   4   7
BRANCH   3  14
ATOM     13  O   UNL     1      33.865 -20.713 -19.780  0.00  0.00    -0.253 OA
ATOM     14  N   UNL     1      35.131 -22.310 -18.596  0.00  0.00    -0.268 N 
ATOM     15  N   UNL     1      35.983 -21.239 -20.457  0.00  0.00    -0.313 N 
ATOM     16  C   UNL     1      34.889 -21.369 -19.610  0.00  0.00    +0.301 C 
ATOM     17  H   UNL     1      36.015 -22.743 -18.611  0.00  0.00    +0.156 HD
ATOM     18  H   UNL     1      35.947 -20.610 -21.213  0.00  0.00    +0.146 HD
ATOM     19  H   UNL     1      36.794 -21.776 -20.300  0.00  0.00    +0.146 HD
ENDBRANCH   3  14
BRANCH   2  22
ATOM     20  O   UNL     1      36.797 -22.215 -15.931  0.00  0.00    -0.270 OA
ATOM     21  N   UNL     1      36.379 -24.378 -15.205  0.00  0.00    -0.304 N 
ATOM     22  C   UNL     1      36.045 -23.180 -15.821  0.00  0.00    +0.253 C 
ATOM     23  H   UNL     1      35.704 -25.094 -15.167  0.00  0.00    +0.150 HD
BRANCH  21  25
ATOM     24  N   UNL     1      37.211 -26.882 -13.706  0.00  0.00    +0.385 N 
ATOM     25  C   UNL     1      37.680 -24.613 -14.616  0.00  0.00    +0.051 C 
ATOM     26  C   UNL     1      37.748 -24.057 -13.191  0.00  0.00    +0.015 C 
ATOM     27  C   UNL     1      36.958 -24.927 -12.215  0.00  0.00    -0.022 C 
ATOM     28  C   UNL     1      38.034 -26.105 -14.637  0.00  0.00    -0.062 C 
ATOM     29  C   UNL     1      37.354 -26.397 -12.333  0.00  0.00    -0.082 C 
ATOM     30  H   UNL     1      37.502 -27.859 -13.744  0.00  0.00    -0.084 HD
ATOM     31  H   UNL     1      36.235 -26.782 -13.981  0.00  0.00    -0.084 HD
ENDBRANCH  21  25
ENDBRANCH   2  22
TORSDOF 4
ENDMDL
MODEL 3
REMARK VINA RESULT:      -9.4      2.150      5.628
REMARK  Name = 11152667
REMARK  4 active torsions:
REMARK  status: ('A' for Active; 'I' for Inactive)
REMARK    1  A    between atoms: C_2  and  C_22
REMARK    2  A    between atoms: C_3  and  N_14
REMARK    3  A    between atoms: C_4  and  C_7
REMARK    4  A    between atoms: N_21  and  C_25
REMARK                            x       y       z     vdW  Elec       q    Type
REMARK                         _______ _______ _______ _____ _____    ______ ____
ROOT
ATOM      1  S   UNL     1      32.976 -22.534 -17.779  0.00  0.00    -0.081 S 
ATOM      2  C   UNL     1      33.305 -23.409 -16.377  0.00  0.00    +0.096 C 
ATOM      3  C   UNL     1      34.598 -23.479 -16.025  0.00  0.00    +0.062 C 
ATOM      4  C   UNL     1      34.646 -22.204 -17.968  0.00  0.00    +0.031 C 
ATOM      5  C   UNL     1      35.401 -22.766 -16.962  0.00  0.00    +0.022 C 
ENDROOT
BRANCH   4   7
ATOM      6  F   UNL     1      33.645 -19.588 -21.897  0.00  0.00    -0.204 F 
ATOM      7  C   UNL     1      35.078 -21.413 -19.096  0.00  0.00    +0.008 C 
ATOM      8  C   UNL     1      34.134 -20.872 -19.969  0.00  0.00    +0.030 C 
ATOM      9  C   UNL     1      36.436 -21.191 -19.311  0.00  0.00    +0.001 C 
ATOM     10  C   UNL     1      34.551 -20.107 -21.058  0.00  0.00    +0.140 C 
ATOM     11  C   UNL     1      36.854 -20.426 -20.401  0.00  0.00    +0.002 C 
ATOM     12  C   UNL     1      35.911 -19.885 -21.274  0.00  0.00    +0.030 C 
ENDBRANCH   4   7
BRANCH   3  14
ATOM     13  O   UNL     1      35.946 -26.145 -15.820  0.00  0.00    -0.253 OA
ATOM     14  N   UNL     1      35.093 -24.141 -14.918  0.00  0.00    -0.268 N 
ATOM     15  N   UNL     1      36.085 -25.737 -13.576  0.00  0.00    -0.313 N 
ATOM     16  C   UNL     1      35.719 -25.396 -14.872  0.00  0.00    +0.301 C 
ATOM     17  H   UNL     1      34.994 -23.675 -14.057  0.00  0.00    +0.156 HD
ATOM     18  H   UNL     1      36.535 -26.595 -13.402  0.00  0.00    +0.146 HD
ATOM     19  H   UNL     1      35.893 -25.120 -12.833  0.00  0.00    +0.146 HD
ENDBRANCH   3  14
BRANCH   2  22
ATOM     20  O   UNL     1      32.324 -24.608 -14.616  0.00  0.00    -0.270 OA
ATOM     21  N   UNL     1      30.907 -23.829 -16.279  0.00  0.00    -0.304 N 
ATOM     22  C   UNL     1      32.142 -24.012 -15.675  0.00  0.00    +0.253 C 
ATOM     23  H   UNL     1      30.865 -23.336 -17.131  0.00  0.00    +0.150 HD
BRANCH  21  25
ATOM     24  N   UNL     1      28.114 -23.314 -17.351  0.00  0.00    +0.385 N 
ATOM     25  C   UNL     1      29.678 -24.335 -15.706  0.00  0.00    +0.051 C 
ATOM     26  C   UNL     1      29.149 -23.393 -14.620  0.00  0.00    +0.015 C 
ATOM     27  C   UNL     1      28.546 -22.127 -15.227  0.00  0.00    -0.022 C 
ATOM     28  C   UNL     1      28.618 -24.570 -16.789  0.00  0.00    -0.062 C 
ATOM     29  C   UNL     1      27.530 -22.461 -16.316  0.00  0.00    -0.082 C 
ATOM     30  H   UNL     1      27.400 -23.526 -18.048  0.00  0.00    -0.084 HD
ATOM     31  H   UNL     1      28.896 -22.815 -17.774  0.00  0.00    -0.084 HD
ENDBRANCH  21  25
ENDBRANCH   2  22
TORSDOF 4
ENDMDL
MODEL 4
REMARK VINA RESULT:      -9.4      3.428      5.758
REMARK  Name = 11152667
REMARK  4 active torsions:
REMARK  status: ('A' for Active; 'I' for Inactive)
REMARK    1  A    between atoms: C_2  and  C_22
REMARK    2  A    between atoms: C_3  and  N_14
REMARK    3  A    between atoms: C_4  and  C_7
REMARK    4  A    between atoms: N_21  and  C_25
REMARK                            x       y       z     vdW  Elec       q    Type
REMARK                         _______ _______ _______ _____ _____    ______ ____
ROOT
ATOM      1  S   UNL     1      33.822 -20.855 -20.412  0.00  0.00    -0.081 S 
ATOM      2  C   UNL     1      34.714 -21.804 -19.342  0.00  0.00    +0.096 C 
ATOM      3  C   UNL     1      35.978 -21.406 -19.126  0.00  0.00    +0.062 C 
ATOM      4  C   UNL     1      35.175 -19.826 -20.630  0.00  0.00    +0.031 C 
ATOM      5  C   UNL     1      36.259 -20.233 -19.886  0.00  0.00    +0.022 C 
ENDROOT
BRANCH   4   7
ATOM      6  F   UNL     1      34.894 -18.001 -25.088  0.00  0.00    -0.204 F 
ATOM      7  C   UNL     1      35.055 -18.697 -21.522  0.00  0.00    +0.008 C 
ATOM      8  C   UNL     1      35.032 -18.899 -22.902  0.00  0.00    +0.030 C 
ATOM      9  C   UNL     1      34.961 -17.407 -21.003  0.00  0.00    +0.001 C 
ATOM     10  C   UNL     1      34.915 -17.808 -23.763  0.00  0.00    +0.140 C 
ATOM     11  C   UNL     1      34.845 -16.316 -21.864  0.00  0.00    +0.002 C 
ATOM     12  C   UNL     1      34.822 -16.516 -23.244  0.00  0.00    +0.030 C 
ENDBRANCH   4   7
BRANCH   3  14
ATOM     13  O   UNL     1      36.019 -21.611 -16.140  0.00  0.00    -0.253 OA
ATOM     14  N   UNL     1      36.884 -22.031 -18.292  0.00  0.00    -0.268 N 
ATOM     15  N   UNL     1      37.943 -22.816 -16.396  0.00  0.00    -0.313 N 
ATOM     16  C   UNL     1      36.861 -22.099 -16.890  0.00  0.00    +0.301 C 
ATOM     17  H   UNL     1      37.638 -22.483 -18.734  0.00  0.00    +0.156 HD
ATOM     18  H   UNL     1      38.049 -22.941 -15.426  0.00  0.00    +0.146 HD
ATOM     19  H   UNL     1      38.605 -23.199 -17.017  0.00  0.00    +0.146 HD
ENDBRANCH   3  14
BRANCH   2  22
ATOM     20  O   UNL     1      33.920 -24.010 -19.406  0.00  0.00    -0.270 OA
ATOM     21  N   UNL     1      33.551 -22.812 -17.453  0.00  0.00    -0.304 N 
ATOM     22  C   UNL     1      34.022 -22.976 -18.748  0.00  0.00    +0.253 C 
ATOM     23  H   UNL     1      33.680 -21.943 -17.010  0.00  0.00    +0.150 HD
BRANCH  21  25
ATOM     24  N   UNL     1      31.153 -22.454 -15.628  0.00  0.00    +0.385 N 
ATOM     25  C   UNL     1      32.877 -23.870 -16.731  0.00  0.00    +0.051 C 
ATOM     26  C   UNL     1      33.540 -24.118 -15.373  0.00  0.00    +0.015 C 
ATOM     27  C   UNL     1      33.216 -23.000 -14.383  0.00  0.00    -0.022 C 
ATOM     28  C   UNL     1      31.385 -23.560 -16.562  0.00  0.00    -0.062 C 
ATOM     29  C   UNL     1      31.714 -22.742 -14.308  0.00  0.00    -0.082 C 
ATOM     30  H   UNL     1      30.147 -22.305 -15.536  0.00  0.00    -0.084 HD
ATOM     31  H   UNL     1      31.611 -21.622 -15.997  0.00  0.00    -0.084 HD
ENDBRANCH  21  25
ENDBRANCH   2  22
TORSDOF 4
ENDMDL
MODEL 5
REMARK VINA RESULT:      -9.3      3.483      5.804
REMARK  Name = 11152667
REMARK  4 active torsions:
REMARK  status: ('A' for Active; 'I' for Inactive)
REMARK    1  A    between atoms: C_2  and  C_22
REMARK    2  A    between atoms: C_3  and  N_14
REMARK    3  A    between atoms: C_4  and  C_7
REMARK    4  A    between atoms: N_21  and  C_25
REMARK                            x       y       z     vdW  Elec       q    Type
REMARK                         _______ _______ _______ _____ _____    ______ ____
ROOT
ATOM      1  S   UNL     1      33.836 -20.797 -20.424  0.00  0.00    -0.081 S 
ATOM      2  C   UNL     1      34.728 -21.759 -19.366  0.00  0.00    +0.096 C 
ATOM      3  C   UNL     1      35.993 -21.367 -19.149  0.00  0.00    +0.062 C 
ATOM      4  C   UNL     1      35.190 -19.769 -20.634  0.00  0.00    +0.031 C 
ATOM      5  C   UNL     1      36.276 -20.187 -19.896  0.00  0.00    +0.022 C 
ENDROOT
BRANCH   4   7
ATOM      6  F   UNL     1      34.756 -15.012 -21.314  0.00  0.00    -0.204 F 
ATOM      7  C   UNL     1      35.072 -18.630 -21.513  0.00  0.00    +0.008 C 
ATOM      8  C   UNL     1      34.969 -17.346 -20.978  0.00  0.00    +0.030 C 
ATOM      9  C   UNL     1      35.062 -18.814 -22.894  0.00  0.00    +0.001 C 
ATOM     10  C   UNL     1      34.856 -16.245 -21.827  0.00  0.00    +0.140 C 
ATOM     11  C   UNL     1      34.948 -17.713 -23.743  0.00  0.00    +0.002 C 
ATOM     12  C   UNL     1      34.845 -16.429 -23.210  0.00  0.00    +0.030 C 
ENDBRANCH   4   7
BRANCH   3  14
ATOM     13  O   UNL     1      36.057 -21.576 -16.163  0.00  0.00    -0.253 OA
ATOM     14  N   UNL     1      36.899 -22.003 -18.323  0.00  0.00    -0.268 N 
ATOM     15  N   UNL     1      37.965 -22.803 -16.438  0.00  0.00    -0.313 N 
ATOM     16  C   UNL     1      36.887 -22.073 -16.921  0.00  0.00    +0.301 C 
ATOM     17  H   UNL     1      37.643 -22.464 -18.772  0.00  0.00    +0.156 HD
ATOM     18  H   UNL     1      38.078 -22.930 -15.468  0.00  0.00    +0.146 HD
ATOM     19  H   UNL     1      38.617 -23.192 -17.065  0.00  0.00    +0.146 HD
ENDBRANCH   3  14
BRANCH   2  22
ATOM     20  O   UNL     1      33.929 -23.963 -19.452  0.00  0.00    -0.270 OA
ATOM     21  N   UNL     1      33.564 -22.785 -17.488  0.00  0.00    -0.304 N 
ATOM     22  C   UNL     1      34.033 -22.937 -18.784  0.00  0.00    +0.253 C 
ATOM     23  H   UNL     1      33.695 -21.920 -17.035  0.00  0.00    +0.150 HD
BRANCH  21  25
ATOM     24  N   UNL     1      31.194 -22.436 -15.624  0.00  0.00    +0.385 N 
ATOM     25  C   UNL     1      32.889 -23.849 -16.775  0.00  0.00    +0.051 C 
ATOM     26  C   UNL     1      33.567 -24.129 -15.431  0.00  0.00    +0.015 C 
ATOM     27  C   UNL     1      33.268 -23.026 -14.417  0.00  0.00    -0.022 C 
ATOM     28  C   UNL     1      31.402 -23.527 -16.580  0.00  0.00    -0.062 C 
ATOM     29  C   UNL     1      31.769 -22.753 -14.317  0.00  0.00    -0.082 C 
ATOM     30  H   UNL     1      30.192 -22.277 -15.515  0.00  0.00    -0.084 HD
ATOM     31  H   UNL     1      31.656 -21.601 -15.983  0.00  0.00    -0.084 HD
ENDBRANCH  21  25
ENDBRANCH   2  22
TORSDOF 4
ENDMDL
MODEL 6
REMARK VINA RESULT:      -9.2      2.143      2.940
REMARK  Name = 11152667
REMARK  4 active torsions:
REMARK  status: ('A' for Active; 'I' for Inactive)
REMARK    1  A    between atoms: C_2  and  C_22
REMARK    2  A    between atoms: C_3  and  N_14
REMARK    3  A    between atoms: C_4  and  C_7
REMARK    4  A    between atoms: N_21  and  C_25
REMARK                            x       y       z     vdW  Elec       q    Type
REMARK                         _______ _______ _______ _____ _____    ______ ____
ROOT
ATOM      1  S   UNL     1      36.577 -21.671 -17.709  0.00  0.00    -0.081 S 
ATOM      2  C   UNL     1      36.153 -22.775 -16.508  0.00  0.00    +0.096 C 
ATOM      3  C   UNL     1      34.893 -23.235 -16.560  0.00  0.00    +0.062 C 
ATOM      4  C   UNL     1      35.001 -21.781 -18.371  0.00  0.00    +0.031 C 
ATOM      5  C   UNL     1      34.202 -22.651 -17.662  0.00  0.00    +0.022 C 
ENDROOT
BRANCH   4   7
ATOM      6  F   UNL     1      36.365 -19.060 -22.114  0.00  0.00    -0.204 F 
ATOM      7  C   UNL     1      34.678 -20.998 -19.540  0.00  0.00    +0.008 C 
ATOM      8  C   UNL     1      35.698 -20.396 -20.277  0.00  0.00    +0.030 C 
ATOM      9  C   UNL     1      33.350 -20.846 -19.931  0.00  0.00    +0.001 C 
ATOM     10  C   UNL     1      35.386 -19.640 -21.407  0.00  0.00    +0.140 C 
ATOM     11  C   UNL     1      33.038 -20.090 -21.061  0.00  0.00    +0.002 C 
ATOM     12  C   UNL     1      34.057 -19.487 -21.799  0.00  0.00    +0.030 C 
ENDBRANCH   4   7
BRANCH   3  14
ATOM     13  O   UNL     1      32.640 -22.895 -14.618  0.00  0.00    -0.253 OA
ATOM     14  N   UNL     1      34.334 -24.142 -15.681  0.00  0.00    -0.268 N 
ATOM     15  N   UNL     1      32.986 -25.083 -14.060  0.00  0.00    -0.313 N 
ATOM     16  C   UNL     1      33.274 -23.934 -14.785  0.00  0.00    +0.301 C 
ATOM     17  H   UNL     1      34.728 -25.044 -15.683  0.00  0.00    +0.156 HD
ATOM     18  H   UNL     1      32.261 -25.076 -13.394  0.00  0.00    +0.146 HD
ATOM     19  H   UNL     1      33.507 -25.905 -14.212  0.00  0.00    +0.146 HD
ENDBRANCH   3  14
BRANCH   2  22
ATOM     20  O   UNL     1      38.374 -23.202 -15.889  0.00  0.00    -0.270 OA
ATOM     21  N   UNL     1      36.771 -23.326 -14.217  0.00  0.00    -0.304 N 
ATOM     22  C   UNL     1      37.205 -23.127 -15.520  0.00  0.00    +0.253 C 
ATOM     23  H   UNL     1      35.810 -23.244 -14.021  0.00  0.00    +0.150 HD
BRANCH  21  25
ATOM     24  N   UNL     1      36.498 -25.687 -12.330  0.00  0.00    +0.385 N 
ATOM     25  C   UNL     1      37.678 -23.650 -13.136  0.00  0.00    +0.051 C 
ATOM     26  C   UNL     1      37.287 -22.916 -11.851  0.00  0.00    +0.015 C 
ATOM     27  C   UNL     1      36.038 -23.529 -11.217  0.00  0.00    -0.022 C 
ATOM     28  C   UNL     1      37.741 -25.164 -12.903  0.00  0.00    -0.062 C 
ATOM     29  C   UNL     1      36.182 -25.040 -11.057  0.00  0.00    -0.082 C 
ATOM     30  H   UNL     1      36.601 -26.691 -12.175  0.00  0.00    -0.084 HD
ATOM     31  H   UNL     1      35.739 -25.497 -12.983  0.00  0.00    -0.084 HD
ENDBRANCH  21  25
ENDBRANCH   2  22
TORSDOF 4
ENDMDL
MODEL 7
REMARK VINA RESULT:      -9.0     10.772     14.134
REMARK  Name = 11152667
REMARK  4 active torsions:
REMARK  status: ('A' for Active; 'I' for Inactive)
REMARK    1  A    between atoms: C_2  and  C_22
REMARK    2  A    between atoms: C_3  and  N_14
REMARK    3  A    between atoms: C_4  and  C_7
REMARK    4  A    between atoms: N_21  and  C_25
REMARK                            x       y       z     vdW  Elec       q    Type
REMARK                         _______ _______ _______ _____ _____    ______ ____
ROOT
ATOM      1  S   UNL     1      32.568 -14.598 -21.772  0.00  0.00    -0.081 S 
ATOM      2  C   UNL     1      32.853 -13.086 -22.461  0.00  0.00    +0.096 C 
ATOM      3  C   UNL     1      33.865 -13.029 -23.341  0.00  0.00    +0.062 C 
ATOM      4  C   UNL     1      33.861 -15.259 -22.682  0.00  0.00    +0.031 C 
ATOM      5  C   UNL     1      34.468 -14.314 -23.479  0.00  0.00    +0.022 C 
ENDROOT
BRANCH   4   7
ATOM      6  F   UNL     1      35.067 -19.520 -24.597  0.00  0.00    -0.204 F 
ATOM      7  C   UNL     1      34.172 -16.661 -22.535  0.00  0.00    +0.008 C 
ATOM      8  C   UNL     1      34.475 -17.428 -23.659  0.00  0.00    +0.030 C 
ATOM      9  C   UNL     1      34.171 -17.245 -21.270  0.00  0.00    +0.001 C 
ATOM     10  C   UNL     1      34.777 -18.782 -23.517  0.00  0.00    +0.140 C 
ATOM     11  C   UNL     1      34.472 -18.600 -21.128  0.00  0.00    +0.002 C 
ATOM     12  C   UNL     1      34.775 -19.368 -22.251  0.00  0.00    +0.030 C 
ENDBRANCH   4   7
BRANCH   3  14
ATOM     13  O   UNL     1      33.605 -12.333 -26.241  0.00  0.00    -0.253 OA
ATOM     14  N   UNL     1      34.273 -11.899 -24.022  0.00  0.00    -0.268 N 
ATOM     15  N   UNL     1      34.663 -10.377 -25.714  0.00  0.00    -0.313 N 
ATOM     16  C   UNL     1      34.128 -11.617 -25.390  0.00  0.00    +0.301 C 
ATOM     17  H   UNL     1      34.719 -11.207 -23.483  0.00  0.00    +0.156 HD
ATOM     18  H   UNL     1      34.628 -10.054 -26.643  0.00  0.00    +0.146 HD
ATOM     19  H   UNL     1      35.076  -9.821 -25.014  0.00  0.00    +0.146 HD
ENDBRANCH   3  14
BRANCH   2  22
ATOM     20  O   UNL     1      31.102 -12.191 -21.183  0.00  0.00    -0.270 OA
ATOM     21  N   UNL     1      32.208 -10.742 -22.618  0.00  0.00    -0.304 N 
ATOM     22  C   UNL     1      31.966 -11.975 -22.029  0.00  0.00    +0.253 C 
ATOM     23  H   UNL     1      32.925 -10.671 -23.289  0.00  0.00    +0.150 HD
BRANCH  21  25
ATOM     24  N   UNL     1      32.623  -7.981 -23.806  0.00  0.00    +0.385 N 
ATOM     25  C   UNL     1      31.445  -9.558 -22.284  0.00  0.00    +0.051 C 
ATOM     26  C   UNL     1      32.048  -8.839 -21.074  0.00  0.00    +0.015 C 
ATOM     27  C   UNL     1      33.340  -8.112 -21.445  0.00  0.00    -0.022 C 
ATOM     28  C   UNL     1      31.339  -8.612 -23.486  0.00  0.00    -0.062 C 
ATOM     29  C   UNL     1      33.145  -7.222 -22.670  0.00  0.00    -0.082 C 
ATOM     30  H   UNL     1      32.492  -7.347 -24.596  0.00  0.00    -0.084 HD
ATOM     31  H   UNL     1      33.292  -8.714 -24.037  0.00  0.00    -0.084 HD
ENDBRANCH  21  25
ENDBRANCH   2  22
TORSDOF 4
ENDMDL
MODEL 8
REMARK VINA RESULT:      -8.9     10.724     14.092
REMARK  Name = 11152667
REMARK  4 active torsions:
REMARK  status: ('A' for Active; 'I' for Inactive)
REMARK    1  A    between atoms: C_2  and  C_22
REMARK    2  A    between atoms: C_3  and  N_14
REMARK    3  A    between atoms: C_4  and  C_7
REMARK    4  A    between atoms: N_21  and  C_25
REMARK                            x       y       z     vdW  Elec       q    Type
REMARK                         _______ _______ _______ _____ _____    ______ ____
ROOT
ATOM      1  S   UNL     1      32.602 -14.656 -21.800  0.00  0.00    -0.081 S 
ATOM      2  C   UNL     1      32.872 -13.122 -22.444  0.00  0.00    +0.096 C 
ATOM      3  C   UNL     1      33.873 -13.032 -23.333  0.00  0.00    +0.062 C 
ATOM      4  C   UNL     1      33.887 -15.281 -22.744  0.00  0.00    +0.031 C 
ATOM      5  C   UNL     1      34.481 -14.309 -23.518  0.00  0.00    +0.022 C 
ENDROOT
BRANCH   4   7
ATOM      6  F   UNL     1      33.874 -19.432 -20.283  0.00  0.00    -0.204 F 
ATOM      7  C   UNL     1      34.207 -16.686 -22.645  0.00  0.00    +0.008 C 
ATOM      8  C   UNL     1      33.880 -17.394 -21.489  0.00  0.00    +0.030 C 
ATOM      9  C   UNL     1      34.842 -17.332 -23.704  0.00  0.00    +0.001 C 
ATOM     10  C   UNL     1      34.188 -18.751 -21.394  0.00  0.00    +0.140 C 
ATOM     11  C   UNL     1      35.150 -18.689 -23.609  0.00  0.00    +0.002 C 
ATOM     12  C   UNL     1      34.823 -19.398 -22.453  0.00  0.00    +0.030 C 
ENDBRANCH   4   7
BRANCH   3  14
ATOM     13  O   UNL     1      33.641 -12.276 -26.221  0.00  0.00    -0.253 OA
ATOM     14  N   UNL     1      34.267 -11.880 -23.983  0.00  0.00    -0.268 N 
ATOM     15  N   UNL     1      34.650 -10.312 -25.635  0.00  0.00    -0.313 N 
ATOM     16  C   UNL     1      34.137 -11.570 -25.346  0.00  0.00    +0.301 C 
ATOM     17  H   UNL     1      34.691 -11.191 -23.422  0.00  0.00    +0.156 HD
ATOM     18  H   UNL     1      34.622  -9.969 -26.557  0.00  0.00    +0.146 HD
ATOM     19  H   UNL     1      35.042  -9.764 -24.917  0.00  0.00    +0.146 HD
ENDBRANCH   3  14
BRANCH   2  22
ATOM     20  O   UNL     1      31.162 -12.266 -21.086  0.00  0.00    -0.270 OA
ATOM     21  N   UNL     1      32.177 -10.790 -22.560  0.00  0.00    -0.304 N 
ATOM     22  C   UNL     1      31.984 -12.030 -21.968  0.00  0.00    +0.253 C 
ATOM     23  H   UNL     1      32.862 -10.702 -23.260  0.00  0.00    +0.150 HD
BRANCH  21  25
ATOM     24  N   UNL     1      32.469  -8.022 -23.768  0.00  0.00    +0.385 N 
ATOM     25  C   UNL     1      31.408  -9.622 -22.186  0.00  0.00    +0.051 C 
ATOM     26  C   UNL     1      32.058  -8.888 -21.009  0.00  0.00    +0.015 C 
ATOM     27  C   UNL     1      33.313  -8.135 -21.448  0.00  0.00    -0.022 C 
ATOM     28  C   UNL     1      31.219  -8.679 -23.380  0.00  0.00    -0.062 C 
ATOM     29  C   UNL     1      33.035  -7.251 -22.661  0.00  0.00    -0.082 C 
ATOM     30  H   UNL     1      32.284  -7.392 -24.550  0.00  0.00    -0.084 HD
ATOM     31  H   UNL     1      33.141  -8.741 -24.034  0.00  0.00    -0.084 HD
ENDBRANCH  21  25
ENDBRANCH   2  22
TORSDOF 4
ENDMDL
MODEL 9
REMARK VINA RESULT:      -8.8      9.657     12.849
REMARK  Name = 11152667
REMARK  4 active torsions:
REMARK  status: ('A' for Active; 'I' for Inactive)
REMARK    1  A    between atoms: C_2  and  C_22
REMARK    2  A    between atoms: C_3  and  N_14
REMARK    3  A    between atoms: C_4  and  C_7
REMARK    4  A    between atoms: N_21  and  C_25
REMARK                            x       y       z     vdW  Elec       q    Type
REMARK                         _______ _______ _______ _____ _____    ______ ____
ROOT
ATOM      1  S   UNL     1      32.734 -15.315 -21.183  0.00  0.00    -0.081 S 
ATOM      2  C   UNL     1      32.919 -13.965 -22.174  0.00  0.00    +0.096 C 
ATOM      3  C   UNL     1      33.920 -14.030 -23.067  0.00  0.00    +0.062 C 
ATOM      4  C   UNL     1      34.061 -16.071 -21.961  0.00  0.00    +0.031 C 
ATOM      5  C   UNL     1      34.602 -15.277 -22.948  0.00  0.00    +0.022 C 
ENDROOT
BRANCH   4   7
ATOM      6  F   UNL     1      37.502 -19.295 -20.940  0.00  0.00    -0.204 F 
ATOM      7  C   UNL     1      34.461 -17.391 -21.534  0.00  0.00    +0.008 C 
ATOM      8  C   UNL     1      35.815 -17.711 -21.442  0.00  0.00    +0.030 C 
ATOM      9  C   UNL     1      33.494 -18.341 -21.213  0.00  0.00    +0.001 C 
ATOM     10  C   UNL     1      36.202 -18.986 -21.028  0.00  0.00    +0.140 C 
ATOM     11  C   UNL     1      33.881 -19.616 -20.799  0.00  0.00    +0.002 C 
ATOM     12  C   UNL     1      35.234 -19.938 -20.706  0.00  0.00    +0.030 C 
ENDBRANCH   4   7
BRANCH   3  14
ATOM     13  O   UNL     1      32.948 -13.584 -25.863  0.00  0.00    -0.253 OA
ATOM     14  N   UNL     1      34.251 -13.044 -23.974  0.00  0.00    -0.268 N 
ATOM     15  N   UNL     1      34.330 -11.764 -25.895  0.00  0.00    -0.313 N 
ATOM     16  C   UNL     1      33.766 -12.876 -25.281  0.00  0.00    +0.301 C 
ATOM     17  H   UNL     1      34.906 -12.377 -23.667  0.00  0.00    +0.156 HD
ATOM     18  H   UNL     1      34.077 -11.531 -26.817  0.00  0.00    +0.146 HD
ATOM     19  H   UNL     1      34.984 -11.212 -25.408  0.00  0.00    +0.146 HD
ENDBRANCH   3  14
BRANCH   2  22
ATOM     20  O   UNL     1      31.390 -12.358 -22.935  0.00  0.00    -0.270 OA
ATOM     21  N   UNL     1      31.782 -12.442 -20.650  0.00  0.00    -0.304 N 
ATOM     22  C   UNL     1      31.966 -12.845 -21.965  0.00  0.00    +0.253 C 
ATOM     23  H   UNL     1      32.293 -12.895 -19.940  0.00  0.00    +0.150 HD
BRANCH  21  25
ATOM     24  N   UNL     1      32.045  -9.527 -21.453  0.00  0.00    +0.385 N 
ATOM     25  C   UNL     1      30.869 -11.381 -20.282  0.00  0.00    +0.051 C 
ATOM     26  C   UNL     1      31.251 -10.769 -18.931  0.00  0.00    +0.015 C 
ATOM     27  C   UNL     1      32.495  -9.891 -19.050  0.00  0.00    -0.022 C 
ATOM     28  C   UNL     1      30.805 -10.304 -21.371  0.00  0.00    -0.062 C 
ATOM     29  C   UNL     1      32.352  -8.874 -20.180  0.00  0.00    -0.082 C 
ATOM     30  H   UNL     1      31.941  -8.813 -22.175  0.00  0.00    -0.084 HD
ATOM     31  H   UNL     1      32.808 -10.164 -21.679  0.00  0.00    -0.084 HD
ENDBRANCH  21  25
ENDBRANCH   2  22
TORSDOF 4
ENDMDL
