MODEL 1
REMARK VINA RESULT:      -5.9      0.000      0.000
REMARK  Name = 9898908
REMARK  7 active torsions:
REMARK  status: ('A' for Active; 'I' for Inactive)
REMARK    1  A    between atoms: C_1  and  N_2
REMARK    2  A    between atoms: C_1  and  C_7
REMARK    3  A    between atoms: C_1  and  C_10
REMARK    4  A    between atoms: C_7  and  O_8
REMARK    5  A    between atoms: C_10  and  C_12
REMARK    6  A    between atoms: C_12  and  C_14
REMARK    7  A    between atoms: C_14  and  O_15
REMARK                            x       y       z     vdW  Elec       q    Type
REMARK                         _______ _______ _______ _____ _____    ______ ____
ROOT
ATOM      1  C   UNK     1      36.827 -25.591 -13.672  0.00  0.00    +0.036 C 
ENDROOT
BRANCH   1   2
ATOM      2  N   UNK     1      37.071 -26.982 -13.278  0.00  0.00    +0.389 N 
ATOM      3  H   UNK     1      36.186 -27.426 -13.031  0.00  0.00    -0.088 HD
ATOM      4  H   UNK     1      37.698 -27.004 -12.474  0.00  0.00    -0.088 HD
ATOM      5  H   UNK     1      37.498 -27.486 -14.056  0.00  0.00    -0.088 HD
ENDBRANCH   1   2
BRANCH   1   7
ATOM      6  O   UNK     1      36.021 -26.601 -15.744  0.00  0.00    -0.253 OA
ATOM      7  C   UNK     1      36.434 -25.617 -15.142  0.00  0.00    +0.293 C 
BRANCH   7   8
ATOM      8  O   UNK     1      36.599 -24.409 -15.742  0.00  0.00    -0.482 OA
ATOM      9  H   UNK     1      36.541 -24.337 -16.674  0.00  0.00    +0.295 HD
ENDBRANCH   7   8
ENDBRANCH   1   7
BRANCH   1  10
ATOM     10  C   UNK     1      38.069 -24.708 -13.384  0.00  0.00    +0.002 C 
ATOM     11  C   UNK     1      38.017 -24.030 -12.008  0.00  0.00    -0.001 C 
BRANCH  10  12
ATOM     12  C   UNK     1      39.401 -25.475 -13.517  0.00  0.00    +0.108 C 
BRANCH  12  14
ATOM     13  O   UNK     1      40.879 -26.090 -15.354  0.00  0.00    -0.250 OA
ATOM     14  C   UNK     1      40.046 -25.330 -14.878  0.00  0.00    +0.314 C 
BRANCH  14  15
ATOM     15  O   UNK     1      39.559 -24.254 -15.550  0.00  0.00    -0.480 OA
ATOM     16  H   UNK     1      40.044 -23.888 -16.264  0.00  0.00    +0.295 HD
ENDBRANCH  14  15
ENDBRANCH  12  14
ENDBRANCH  10  12
ENDBRANCH   1  10
TORSDOF 7
ENDMDL
MODEL 2
REMARK VINA RESULT:      -5.8      2.397      3.165
REMARK  Name = 9898908
REMARK  7 active torsions:
REMARK  status: ('A' for Active; 'I' for Inactive)
REMARK    1  A    between atoms: C_1  and  N_2
REMARK    2  A    between atoms: C_1  and  C_7
REMARK    3  A    between atoms: C_1  and  C_10
REMARK    4  A    between atoms: C_7  and  O_8
REMARK    5  A    between atoms: C_10  and  C_12
REMARK    6  A    between atoms: C_12  and  C_14
REMARK    7  A    between atoms: C_14  and  O_15
REMARK                            x       y       z     vdW  Elec       q    Type
REMARK                         _______ _______ _______ _____ _____    ______ ____
ROOT
ATOM      1  C   UNK     1      36.430 -25.203 -15.043  0.00  0.00    +0.036 C 
ENDROOT
BRANCH   1   2
ATOM      2  N   UNK     1      35.321 -25.306 -14.090  0.00  0.00    +0.389 N 
ATOM      3  H   UNK     1      35.237 -26.271 -13.769  0.00  0.00    -0.088 HD
ATOM      4  H   UNK     1      34.453 -25.022 -14.545  0.00  0.00    -0.088 HD
ATOM      5  H   UNK     1      35.502 -24.697 -13.291  0.00  0.00    -0.088 HD
ENDBRANCH   1   2
BRANCH   1   7
ATOM      6  O   UNK     1      37.813 -27.031 -14.203  0.00  0.00    -0.253 OA
ATOM      7  C   UNK     1      37.098 -26.570 -15.083  0.00  0.00    +0.293 C 
BRANCH   7   8
ATOM      8  O   UNK     1      36.822 -27.246 -16.230  0.00  0.00    -0.482 OA
ATOM      9  H   UNK     1      36.942 -28.173 -16.267  0.00  0.00    +0.295 HD
ENDBRANCH   7   8
ENDBRANCH   1   7
BRANCH   1  10
ATOM     10  C   UNK     1      37.398 -24.059 -14.645  0.00  0.00    +0.002 C 
ATOM     11  C   UNK     1      37.479 -22.947 -15.702  0.00  0.00    -0.001 C 
BRANCH  10  12
ATOM     12  C   UNK     1      37.063 -23.430 -13.278  0.00  0.00    +0.108 C 
BRANCH  12  14
ATOM     13  O   UNK     1      38.841 -23.272 -11.620  0.00  0.00    -0.250 OA
ATOM     14  C   UNK     1      37.952 -23.920 -12.156  0.00  0.00    +0.314 C 
BRANCH  14  15
ATOM     15  O   UNK     1      37.621 -25.180 -11.770  0.00  0.00    -0.480 OA
ATOM     16  H   UNK     1      38.294 -25.810 -11.601  0.00  0.00    +0.295 HD
ENDBRANCH  14  15
ENDBRANCH  12  14
ENDBRANCH  10  12
ENDBRANCH   1  10
TORSDOF 7
ENDMDL
MODEL 3
REMARK VINA RESULT:      -5.8      2.362      3.882
REMARK  Name = 9898908
REMARK  7 active torsions:
REMARK  status: ('A' for Active; 'I' for Inactive)
REMARK    1  A    between atoms: C_1  and  N_2
REMARK    2  A    between atoms: C_1  and  C_7
REMARK    3  A    between atoms: C_1  and  C_10
REMARK    4  A    between atoms: C_7  and  O_8
REMARK    5  A    between atoms: C_10  and  C_12
REMARK    6  A    between atoms: C_12  and  C_14
REMARK    7  A    between atoms: C_14  and  O_15
REMARK                            x       y       z     vdW  Elec       q    Type
REMARK                         _______ _______ _______ _____ _____    ______ ____
ROOT
ATOM      1  C   UNK     1      38.525 -25.479 -14.842  0.00  0.00    +0.036 C 
ENDROOT
BRANCH   1   2
ATOM      2  N   UNK     1      38.238 -26.769 -14.208  0.00  0.00    +0.389 N 
ATOM      3  H   UNK     1      38.607 -26.769 -13.256  0.00  0.00    -0.088 HD
ATOM      4  H   UNK     1      38.680 -27.517 -14.743  0.00  0.00    -0.088 HD
ATOM      5  H   UNK     1      37.230 -26.919 -14.181  0.00  0.00    -0.088 HD
ENDBRANCH   1   2
BRANCH   1   7
ATOM      6  O   UNK     1      40.766 -24.797 -14.156  0.00  0.00    -0.253 OA
ATOM      7  C   UNK     1      40.039 -25.375 -14.954  0.00  0.00    +0.293 C 
BRANCH   7   8
ATOM      8  O   UNK     1      40.518 -25.996 -16.064  0.00  0.00    -0.482 OA
ATOM      9  H   UNK     1      40.088 -26.758 -16.396  0.00  0.00    +0.295 HD
ENDBRANCH   7   8
ENDBRANCH   1   7
BRANCH   1  10
ATOM     10  C   UNK     1      37.887 -24.314 -14.040  0.00  0.00    +0.002 C 
ATOM     11  C   UNK     1      36.774 -23.592 -14.814  0.00  0.00    -0.001 C 
BRANCH  10  12
ATOM     12  C   UNK     1      37.341 -24.753 -12.666  0.00  0.00    +0.108 C 
BRANCH  12  14
ATOM     13  O   UNK     1      38.352 -22.795 -11.627  0.00  0.00    -0.250 OA
ATOM     14  C   UNK     1      37.561 -23.728 -11.575  0.00  0.00    +0.314 C 
BRANCH  14  15
ATOM     15  O   UNK     1      36.734 -23.937 -10.518  0.00  0.00    -0.480 OA
ATOM     16  H   UNK     1      36.900 -24.643  -9.925  0.00  0.00    +0.295 HD
ENDBRANCH  14  15
ENDBRANCH  12  14
ENDBRANCH  10  12
ENDBRANCH   1  10
TORSDOF 7
ENDMDL
MODEL 4
REMARK VINA RESULT:      -5.7      3.089      3.773
REMARK  Name = 9898908
REMARK  7 active torsions:
REMARK  status: ('A' for Active; 'I' for Inactive)
REMARK    1  A    between atoms: C_1  and  N_2
REMARK    2  A    between atoms: C_1  and  C_7
REMARK    3  A    between atoms: C_1  and  C_10
REMARK    4  A    between atoms: C_7  and  O_8
REMARK    5  A    between atoms: C_10  and  C_12
REMARK    6  A    between atoms: C_12  and  C_14
REMARK    7  A    between atoms: C_14  and  O_15
REMARK                            x       y       z     vdW  Elec       q    Type
REMARK                         _______ _______ _______ _____ _____    ______ ____
ROOT
ATOM      1  C   UNK     1      36.678 -23.537 -12.058  0.00  0.00    +0.036 C 
ENDROOT
BRANCH   1   2
ATOM      2  N   UNK     1      38.073 -23.547 -11.607  0.00  0.00    +0.389 N 
ATOM      3  H   UNK     1      38.218 -24.331 -10.971  0.00  0.00    -0.088 HD
ATOM      4  H   UNK     1      38.281 -22.674 -11.122  0.00  0.00    -0.088 HD
ATOM      5  H   UNK     1      38.690 -23.645 -12.413  0.00  0.00    -0.088 HD
ENDBRANCH   1   2
BRANCH   1   7
ATOM      6  O   UNK     1      36.049 -24.169  -9.785  0.00  0.00    -0.253 OA
ATOM      7  C   UNK     1      35.870 -24.264 -10.993  0.00  0.00    +0.293 C 
BRANCH   7   8
ATOM      8  O   UNK     1      34.909 -25.062 -11.529  0.00  0.00    -0.482 OA
ATOM      9  H   UNK     1      34.525 -25.743 -11.014  0.00  0.00    +0.295 HD
ENDBRANCH   7   8
ENDBRANCH   1   7
BRANCH   1  10
ATOM     10  C   UNK     1      36.547 -24.170 -13.467  0.00  0.00    +0.002 C 
ATOM     11  C   UNK     1      36.124 -23.159 -14.543  0.00  0.00    -0.001 C 
BRANCH  10  12
ATOM     12  C   UNK     1      37.831 -24.888 -13.930  0.00  0.00    +0.108 C 
BRANCH  12  14
ATOM     13  O   UNK     1      38.314 -27.133 -14.747  0.00  0.00    -0.250 OA
ATOM     14  C   UNK     1      37.688 -26.393 -13.998  0.00  0.00    +0.314 C 
BRANCH  14  15
ATOM     15  O   UNK     1      36.792 -26.852 -13.087  0.00  0.00    -0.480 OA
ATOM     16  H   UNK     1      36.535 -27.754 -13.094  0.00  0.00    +0.295 HD
ENDBRANCH  14  15
ENDBRANCH  12  14
ENDBRANCH  10  12
ENDBRANCH   1  10
TORSDOF 7
ENDMDL
MODEL 5
REMARK VINA RESULT:      -5.5      2.509      2.961
REMARK  Name = 9898908
REMARK  7 active torsions:
REMARK  status: ('A' for Active; 'I' for Inactive)
REMARK    1  A    between atoms: C_1  and  N_2
REMARK    2  A    between atoms: C_1  and  C_7
REMARK    3  A    between atoms: C_1  and  C_10
REMARK    4  A    between atoms: C_7  and  O_8
REMARK    5  A    between atoms: C_10  and  C_12
REMARK    6  A    between atoms: C_12  and  C_14
REMARK    7  A    between atoms: C_14  and  O_15
REMARK                            x       y       z     vdW  Elec       q    Type
REMARK                         _______ _______ _______ _____ _____    ______ ____
ROOT
ATOM      1  C   UNK     1      36.640 -24.847 -13.302  0.00  0.00    +0.036 C 
ENDROOT
BRANCH   1   2
ATOM      2  N   UNK     1      36.872 -23.451 -13.685  0.00  0.00    +0.389 N 
ATOM      3  H   UNK     1      36.419 -23.265 -14.580  0.00  0.00    -0.088 HD
ATOM      4  H   UNK     1      37.875 -23.284 -13.771  0.00  0.00    -0.088 HD
ATOM      5  H   UNK     1      36.483 -22.834 -12.973  0.00  0.00    -0.088 HD
ENDBRANCH   1   2
BRANCH   1   7
ATOM      6  O   UNK     1      35.497 -25.122 -11.162  0.00  0.00    -0.253 OA
ATOM      7  C   UNK     1      36.520 -24.868 -11.785  0.00  0.00    +0.293 C 
BRANCH   7   8
ATOM      8  O   UNK     1      37.693 -24.558 -11.170  0.00  0.00    -0.482 OA
ATOM      9  H   UNK     1      38.008 -23.677 -11.182  0.00  0.00    +0.295 HD
ENDBRANCH   7   8
ENDBRANCH   1   7
BRANCH   1  10
ATOM     10  C   UNK     1      37.768 -25.764 -13.841  0.00  0.00    +0.002 C 
ATOM     11  C   UNK     1      37.253 -26.852 -14.796  0.00  0.00    -0.001 C 
BRANCH  10  12
ATOM     12  C   UNK     1      38.904 -24.984 -14.534  0.00  0.00    +0.108 C 
BRANCH  12  14
ATOM     13  O   UNK     1      40.827 -26.336 -13.892  0.00  0.00    -0.250 OA
ATOM     14  C   UNK     1      40.149 -25.812 -14.766  0.00  0.00    +0.314 C 
BRANCH  14  15
ATOM     15  O   UNK     1      40.420 -25.947 -16.091  0.00  0.00    -0.480 OA
ATOM     16  H   UNK     1      39.918 -26.541 -16.613  0.00  0.00    +0.295 HD
ENDBRANCH  14  15
ENDBRANCH  12  14
ENDBRANCH  10  12
ENDBRANCH   1  10
TORSDOF 7
ENDMDL
MODEL 6
REMARK VINA RESULT:      -5.3      2.666      3.879
REMARK  Name = 9898908
REMARK  7 active torsions:
REMARK  status: ('A' for Active; 'I' for Inactive)
REMARK    1  A    between atoms: C_1  and  N_2
REMARK    2  A    between atoms: C_1  and  C_7
REMARK    3  A    between atoms: C_1  and  C_10
REMARK    4  A    between atoms: C_7  and  O_8
REMARK    5  A    between atoms: C_10  and  C_12
REMARK    6  A    between atoms: C_12  and  C_14
REMARK    7  A    between atoms: C_14  and  O_15
REMARK                            x       y       z     vdW  Elec       q    Type
REMARK                         _______ _______ _______ _____ _____    ______ ____
ROOT
ATOM      1  C   UNK     1      36.722 -23.510 -13.296  0.00  0.00    +0.036 C 
ENDROOT
BRANCH   1   2
ATOM      2  N   UNK     1      37.514 -23.170 -14.482  0.00  0.00    +0.389 N 
ATOM      3  H   UNK     1      36.931 -23.252 -15.315  0.00  0.00    -0.088 HD
ATOM      4  H   UNK     1      38.306 -23.809 -14.558  0.00  0.00    -0.088 HD
ATOM      5  H   UNK     1      37.856 -22.213 -14.400  0.00  0.00    -0.088 HD
ENDBRANCH   1   2
BRANCH   1   7
ATOM      6  O   UNK     1      38.422 -22.899 -11.653  0.00  0.00    -0.253 OA
ATOM      7  C   UNK     1      37.713 -23.755 -12.167  0.00  0.00    +0.293 C 
BRANCH   7   8
ATOM      8  O   UNK     1      37.741 -25.058 -11.779  0.00  0.00    -0.482 OA
ATOM      9  H   UNK     1      38.526 -25.423 -11.422  0.00  0.00    +0.295 HD
ENDBRANCH   7   8
ENDBRANCH   1   7
BRANCH   1  10
ATOM     10  C   UNK     1      35.799 -24.724 -13.577  0.00  0.00    +0.002 C 
ATOM     11  C   UNK     1      34.310 -24.404 -13.379  0.00  0.00    -0.001 C 
BRANCH  10  12
ATOM     12  C   UNK     1      36.001 -25.327 -14.982  0.00  0.00    +0.108 C 
BRANCH  12  14
ATOM     13  O   UNK     1      37.474 -27.016 -14.025  0.00  0.00    -0.250 OA
ATOM     14  C   UNK     1      36.852 -26.578 -14.984  0.00  0.00    +0.314 C 
BRANCH  14  15
ATOM     15  O   UNK     1      36.819 -27.203 -16.190  0.00  0.00    -0.480 OA
ATOM     16  H   UNK     1      36.023 -27.231 -16.682  0.00  0.00    +0.295 HD
ENDBRANCH  14  15
ENDBRANCH  12  14
ENDBRANCH  10  12
ENDBRANCH   1  10
TORSDOF 7
ENDMDL
MODEL 7
REMARK VINA RESULT:      -5.2     13.105     14.209
REMARK  Name = 9898908
REMARK  7 active torsions:
REMARK  status: ('A' for Active; 'I' for Inactive)
REMARK    1  A    between atoms: C_1  and  N_2
REMARK    2  A    between atoms: C_1  and  C_7
REMARK    3  A    between atoms: C_1  and  C_10
REMARK    4  A    between atoms: C_7  and  O_8
REMARK    5  A    between atoms: C_10  and  C_12
REMARK    6  A    between atoms: C_12  and  C_14
REMARK    7  A    between atoms: C_14  and  O_15
REMARK                            x       y       z     vdW  Elec       q    Type
REMARK                         _______ _______ _______ _____ _____    ______ ____
ROOT
ATOM      1  C   UNK     1      34.839 -15.770 -22.551  0.00  0.00    +0.036 C 
ENDROOT
BRANCH   1   2
ATOM      2  N   UNK     1      35.493 -16.686 -23.491  0.00  0.00    +0.389 N 
ATOM      3  H   UNK     1      35.017 -16.644 -24.393  0.00  0.00    -0.088 HD
ATOM      4  H   UNK     1      35.447 -17.638 -23.127  0.00  0.00    -0.088 HD
ATOM      5  H   UNK     1      36.468 -16.413 -23.609  0.00  0.00    -0.088 HD
ENDBRANCH   1   2
BRANCH   1   7
ATOM      6  O   UNK     1      35.085 -16.080 -20.142  0.00  0.00    -0.253 OA
ATOM      7  C   UNK     1      34.722 -16.513 -21.229  0.00  0.00    +0.293 C 
BRANCH   7   8
ATOM      8  O   UNK     1      34.169 -17.746 -21.377  0.00  0.00    -0.482 OA
ATOM      9  H   UNK     1      33.247 -17.832 -21.515  0.00  0.00    +0.295 HD
ENDBRANCH   7   8
ENDBRANCH   1   7
BRANCH   1  10
ATOM     10  C   UNK     1      33.473 -15.288 -23.108  0.00  0.00    +0.002 C 
ATOM     11  C   UNK     1      32.609 -14.585 -22.050  0.00  0.00    -0.001 C 
BRANCH  10  12
ATOM     12  C   UNK     1      33.611 -14.368 -24.338  0.00  0.00    +0.108 C 
BRANCH  12  14
ATOM     13  O   UNK     1      33.900 -16.048 -26.079  0.00  0.00    -0.250 OA
ATOM     14  C   UNK     1      33.312 -15.065 -25.647  0.00  0.00    +0.314 C 
BRANCH  14  15
ATOM     15  O   UNK     1      32.264 -14.490 -26.292  0.00  0.00    -0.480 OA
ATOM     16  H   UNK     1      31.640 -15.024 -26.743  0.00  0.00    +0.295 HD
ENDBRANCH  14  15
ENDBRANCH  12  14
ENDBRANCH  10  12
ENDBRANCH   1  10
TORSDOF 7
ENDMDL
MODEL 8
REMARK VINA RESULT:      -5.2      2.010      2.882
REMARK  Name = 9898908
REMARK  7 active torsions:
REMARK  status: ('A' for Active; 'I' for Inactive)
REMARK    1  A    between atoms: C_1  and  N_2
REMARK    2  A    between atoms: C_1  and  C_7
REMARK    3  A    between atoms: C_1  and  C_10
REMARK    4  A    between atoms: C_7  and  O_8
REMARK    5  A    between atoms: C_10  and  C_12
REMARK    6  A    between atoms: C_12  and  C_14
REMARK    7  A    between atoms: C_14  and  O_15
REMARK                            x       y       z     vdW  Elec       q    Type
REMARK                         _______ _______ _______ _____ _____    ______ ____
ROOT
ATOM      1  C   UNK     1      37.029 -23.218 -14.064  0.00  0.00    +0.036 C 
ENDROOT
BRANCH   1   2
ATOM      2  N   UNK     1      35.581 -23.258 -13.837  0.00  0.00    +0.389 N 
ATOM      3  H   UNK     1      35.371 -22.880 -12.913  0.00  0.00    -0.088 HD
ATOM      4  H   UNK     1      35.254 -24.223 -13.891  0.00  0.00    -0.088 HD
ATOM      5  H   UNK     1      35.109 -22.699 -14.548  0.00  0.00    -0.088 HD
ENDBRANCH   1   2
BRANCH   1   7
ATOM      6  O   UNK     1      36.346 -23.065 -16.403  0.00  0.00    -0.253 OA
ATOM      7  C   UNK     1      37.233 -23.214 -15.572  0.00  0.00    +0.293 C 
BRANCH   7   8
ATOM      8  O   UNK     1      38.533 -23.408 -15.917  0.00  0.00    -0.482 OA
ATOM      9  H   UNK     1      38.752 -24.013 -16.597  0.00  0.00    +0.295 HD
ENDBRANCH   7   8
ENDBRANCH   1   7
BRANCH   1  10
ATOM     10  C   UNK     1      37.733 -24.403 -13.352  0.00  0.00    +0.002 C 
ATOM     11  C   UNK     1      38.188 -24.060 -11.925  0.00  0.00    -0.001 C 
BRANCH  10  12
ATOM     12  C   UNK     1      36.874 -25.683 -13.313  0.00  0.00    +0.108 C 
BRANCH  12  14
ATOM     13  O   UNK     1      38.282 -27.148 -14.658  0.00  0.00    -0.250 OA
ATOM     14  C   UNK     1      37.186 -26.652 -14.433  0.00  0.00    +0.314 C 
BRANCH  14  15
ATOM     15  O   UNK     1      36.078 -26.950 -15.159  0.00  0.00    -0.480 OA
ATOM     16  H   UNK     1      36.121 -27.595 -15.838  0.00  0.00    +0.295 HD
ENDBRANCH  14  15
ENDBRANCH  12  14
ENDBRANCH  10  12
ENDBRANCH   1  10
TORSDOF 7
ENDMDL
MODEL 9
REMARK VINA RESULT:      -5.2      7.352      8.844
REMARK  Name = 9898908
REMARK  7 active torsions:
REMARK  status: ('A' for Active; 'I' for Inactive)
REMARK    1  A    between atoms: C_1  and  N_2
REMARK    2  A    between atoms: C_1  and  C_7
REMARK    3  A    between atoms: C_1  and  C_10
REMARK    4  A    between atoms: C_7  and  O_8
REMARK    5  A    between atoms: C_10  and  C_12
REMARK    6  A    between atoms: C_12  and  C_14
REMARK    7  A    between atoms: C_14  and  O_15
REMARK                            x       y       z     vdW  Elec       q    Type
REMARK                         _______ _______ _______ _____ _____    ______ ____
ROOT
ATOM      1  C   UNK     1      35.369 -20.327 -20.635  0.00  0.00    +0.036 C 
ENDROOT
BRANCH   1   2
ATOM      2  N   UNK     1      36.489 -20.424 -19.693  0.00  0.00    +0.389 N 
ATOM      3  H   UNK     1      36.806 -21.393 -19.641  0.00  0.00    -0.088 HD
ATOM      4  H   UNK     1      36.185 -20.116 -18.770  0.00  0.00    -0.088 HD
ATOM      5  H   UNK     1      37.256 -19.833 -20.014  0.00  0.00    -0.088 HD
ENDBRANCH   1   2
BRANCH   1   7
ATOM      6  O   UNK     1      35.507 -17.890 -20.596  0.00  0.00    -0.253 OA
ATOM      7  C   UNK     1      35.426 -18.930 -21.237  0.00  0.00    +0.293 C 
BRANCH   7   8
ATOM      8  O   UNK     1      35.367 -18.951 -22.594  0.00  0.00    -0.482 OA
ATOM      9  H   UNK     1      35.080 -19.723 -23.039  0.00  0.00    +0.295 HD
ENDBRANCH   7   8
ENDBRANCH   1   7
BRANCH   1  10
ATOM     10  C   UNK     1      34.024 -20.637 -19.929  0.00  0.00    +0.002 C 
ATOM     11  C   UNK     1      32.813 -20.029 -20.652  0.00  0.00    -0.001 C 
BRANCH  10  12
ATOM     12  C   UNK     1      33.781 -22.147 -19.724  0.00  0.00    +0.108 C 
BRANCH  12  14
ATOM     13  O   UNK     1      32.957 -22.915 -17.563  0.00  0.00    -0.250 OA
ATOM     14  C   UNK     1      33.893 -22.583 -18.279  0.00  0.00    +0.314 C 
BRANCH  14  15
ATOM     15  O   UNK     1      35.186 -22.605 -17.862  0.00  0.00    -0.480 OA
ATOM     16  H   UNK     1      35.881 -22.584 -18.490  0.00  0.00    +0.295 HD
ENDBRANCH  14  15
ENDBRANCH  12  14
ENDBRANCH  10  12
ENDBRANCH   1  10
TORSDOF 7
ENDMDL
