MODEL 1
REMARK VINA RESULT:      -9.8      0.000      0.000
REMARK  Name = 71535003
REMARK  6 active torsions:
REMARK  status: ('A' for Active; 'I' for Inactive)
REMARK    1  A    between atoms: N_5  and  C_16
REMARK    2  A    between atoms: C_6  and  O_20
REMARK    3  A    between atoms: O_20  and  C_21
REMARK    4  A    between atoms: C_21  and  C_24
REMARK    5  A    between atoms: C_25  and  O_29
REMARK    6  A    between atoms: C_28  and  C_31
REMARK                            x       y       z     vdW  Elec       q    Type
REMARK                         _______ _______ _______ _____ _____    ______ ____
ROOT
ATOM      1 CL   UNL     1      32.161 -25.317 -13.125  0.00  0.00    -0.085 Cl
ATOM      2  N   UNL     1      33.540 -22.896 -17.028  0.00  0.00    -0.294 NA
ATOM      3  N   UNL     1      29.796 -23.638 -15.702  0.00  0.00    -0.289 N 
ATOM      4  N   UNL     1      31.152 -22.600 -17.404  0.00  0.00    -0.316 NA
ATOM      5  N   UNL     1      32.734 -21.711 -18.879  0.00  0.00    -0.235 N 
ATOM      6  C   UNL     1      33.318 -23.602 -15.895  0.00  0.00    +0.277 C 
ATOM      7  C   UNL     1      32.008 -23.834 -15.476  0.00  0.00    +0.191 C 
ATOM      8  C   UNL     1      30.997 -23.309 -16.271  0.00  0.00    +0.189 C 
ATOM      9  C   UNL     1      31.378 -24.499 -14.394  0.00  0.00    +0.068 C 
ATOM     10  C   UNL     1      32.459 -22.444 -17.702  0.00  0.00    +0.207 C 
ATOM     11  C   UNL     1      30.017 -24.363 -14.558  0.00  0.00    +0.072 C 
ATOM     12  H   UNL     1      28.912 -23.393 -16.057  0.00  0.00    +0.154 HD
ATOM     13  H   UNL     1      31.928 -21.397 -19.348  0.00  0.00    +0.166 HD
ENDROOT
BRANCH   5  16
ATOM     14  N   UNL     1      35.479 -20.308 -20.660  0.00  0.00    -0.207 N 
ATOM     15  N   UNL     1      36.107 -21.411 -20.218  0.00  0.00    -0.175 NA
ATOM     16  C   UNL     1      33.936 -21.344 -19.510  0.00  0.00    +0.095 C 
ATOM     17  C   UNL     1      34.175 -20.222 -20.263  0.00  0.00    +0.101 C 
ATOM     18  C   UNL     1      35.160 -22.040 -19.516  0.00  0.00    +0.134 C 
ATOM     19  C   UNL     1      36.191 -19.354 -21.474  0.00  0.00    +0.140 C 
ENDBRANCH   5  16
BRANCH   6  20
ATOM     20  O   UNL     1      34.411 -24.063 -15.204  0.00  0.00    -0.454 OA
BRANCH  20  21
ATOM     21  C   UNL     1      34.897 -23.249 -14.152  0.00  0.00    +0.212 C 
BRANCH  21  24
ATOM     22  O   UNL     1      37.902 -26.908 -15.298  0.00  0.00    -0.270 OA
ATOM     23  N   UNL     1      37.484 -25.075 -13.949  0.00  0.00    -0.273 N 
ATOM     24  C   UNL     1      35.482 -24.154 -13.070  0.00  0.00    +0.092 C 
ATOM     25  C   UNL     1      36.680 -23.507 -12.368  0.00  0.00    +0.140 C 
ATOM     26  C   UNL     1      36.096 -25.420 -13.672  0.00  0.00    +0.100 C 
ATOM     27  C   UNL     1      37.866 -23.835 -13.269  0.00  0.00    +0.123 C 
ATOM     28  C   UNL     1      38.277 -25.870 -14.756  0.00  0.00    +0.249 C 
BRANCH  25  29
ATOM     29  O   UNL     1      36.863 -24.132 -11.099  0.00  0.00    -0.352 OA
ATOM     30  C   UNL     1      35.625 -24.314 -10.429  0.00  0.00    +0.174 C 
ENDBRANCH  25  29
BRANCH  28  31
ATOM     31  C   UNL     1      39.665 -25.419 -14.970  0.00  0.00    +0.058 C 
ATOM     32  C   UNL     1      40.642 -25.973 -14.249  0.00  0.00    +0.005 C 
ENDBRANCH  28  31
ENDBRANCH  21  24
ENDBRANCH  20  21
ENDBRANCH   6  20
TORSDOF 6
ENDMDL
MODEL 2
REMARK VINA RESULT:      -9.5      2.090      5.078
REMARK  Name = 71535003
REMARK  6 active torsions:
REMARK  status: ('A' for Active; 'I' for Inactive)
REMARK    1  A    between atoms: N_5  and  C_16
REMARK    2  A    between atoms: C_6  and  O_20
REMARK    3  A    between atoms: O_20  and  C_21
REMARK    4  A    between atoms: C_21  and  C_24
REMARK    5  A    between atoms: C_25  and  O_29
REMARK    6  A    between atoms: C_28  and  C_31
REMARK                            x       y       z     vdW  Elec       q    Type
REMARK                         _______ _______ _______ _____ _____    ______ ____
ROOT
ATOM      1 CL   UNL     1      37.346 -21.508 -19.463  0.00  0.00    -0.085 Cl
ATOM      2  N   UNL     1      33.367 -22.880 -17.164  0.00  0.00    -0.294 NA
ATOM      3  N   UNL     1      33.715 -20.590 -20.475  0.00  0.00    -0.289 N 
ATOM      4  N   UNL     1      32.211 -21.609 -18.890  0.00  0.00    -0.316 NA
ATOM      5  N   UNL     1      31.033 -22.718 -17.201  0.00  0.00    -0.235 N 
ATOM      6  C   UNL     1      34.576 -22.582 -17.694  0.00  0.00    +0.277 C 
ATOM      7  C   UNL     1      34.647 -21.787 -18.838  0.00  0.00    +0.191 C 
ATOM      8  C   UNL     1      33.441 -21.347 -19.367  0.00  0.00    +0.189 C 
ATOM      9  C   UNL     1      35.675 -21.269 -19.667  0.00  0.00    +0.068 C 
ATOM     10  C   UNL     1      32.275 -22.383 -17.786  0.00  0.00    +0.207 C 
ATOM     11  C   UNL     1      35.073 -20.536 -20.666  0.00  0.00    +0.072 C 
ATOM     12  H   UNL     1      33.043 -20.152 -21.045  0.00  0.00    +0.154 HD
ATOM     13  H   UNL     1      30.257 -22.340 -17.675  0.00  0.00    +0.166 HD
ENDROOT
BRANCH   5  16
ATOM     14  N   UNL     1      30.414 -24.224 -14.036  0.00  0.00    -0.207 N 
ATOM     15  N   UNL     1      29.860 -25.185 -14.794  0.00  0.00    -0.175 NA
ATOM     16  C   UNL     1      30.690 -23.484 -16.073  0.00  0.00    +0.095 C 
ATOM     17  C   UNL     1      30.926 -23.183 -14.755  0.00  0.00    +0.101 C 
ATOM     18  C   UNL     1      30.030 -24.727 -16.037  0.00  0.00    +0.134 C 
ATOM     19  C   UNL     1      30.424 -24.359 -12.599  0.00  0.00    +0.140 C 
ENDBRANCH   5  16
BRANCH   6  20
ATOM     20  O   UNL     1      35.691 -23.084 -17.069  0.00  0.00    -0.454 OA
BRANCH  20  21
ATOM     21  C   UNL     1      36.022 -22.535 -15.807  0.00  0.00    +0.212 C 
BRANCH  21  24
ATOM     22  O   UNL     1      37.831 -27.037 -15.366  0.00  0.00    -0.270 OA
ATOM     23  N   UNL     1      37.246 -25.057 -14.320  0.00  0.00    -0.273 N 
ATOM     24  C   UNL     1      35.517 -23.483 -14.720  0.00  0.00    +0.092 C 
ATOM     25  C   UNL     1      36.156 -23.187 -13.359  0.00  0.00    +0.140 C 
ATOM     26  C   UNL     1      35.957 -24.923 -14.986  0.00  0.00    +0.100 C 
ATOM     27  C   UNL     1      37.479 -23.946 -13.394  0.00  0.00    +0.123 C 
ATOM     28  C   UNL     1      38.083 -26.127 -14.577  0.00  0.00    +0.249 C 
BRANCH  25  29
ATOM     29  O   UNL     1      35.327 -23.727 -12.333  0.00  0.00    -0.352 OA
ATOM     30  C   UNL     1      36.071 -23.991 -11.153  0.00  0.00    +0.174 C 
ENDBRANCH  25  29
BRANCH  28  31
ATOM     31  C   UNL     1      39.365 -26.155 -13.848  0.00  0.00    +0.058 C 
ATOM     32  C   UNL     1      40.490 -25.872 -14.508  0.00  0.00    +0.005 C 
ENDBRANCH  28  31
ENDBRANCH  21  24
ENDBRANCH  20  21
ENDBRANCH   6  20
TORSDOF 6
ENDMDL
MODEL 3
REMARK VINA RESULT:      -9.4      4.000      8.868
REMARK  Name = 71535003
REMARK  6 active torsions:
REMARK  status: ('A' for Active; 'I' for Inactive)
REMARK    1  A    between atoms: N_5  and  C_16
REMARK    2  A    between atoms: C_6  and  O_20
REMARK    3  A    between atoms: O_20  and  C_21
REMARK    4  A    between atoms: C_21  and  C_24
REMARK    5  A    between atoms: C_25  and  O_29
REMARK    6  A    between atoms: C_28  and  C_31
REMARK                            x       y       z     vdW  Elec       q    Type
REMARK                         _______ _______ _______ _____ _____    ______ ____
ROOT
ATOM      1 CL   UNL     1      36.744 -21.661 -19.036  0.00  0.00    -0.085 Cl
ATOM      2  N   UNL     1      32.261 -22.681 -17.672  0.00  0.00    -0.294 NA
ATOM      3  N   UNL     1      35.705 -23.171 -15.617  0.00  0.00    -0.289 N 
ATOM      4  N   UNL     1      33.308 -23.423 -15.602  0.00  0.00    -0.316 NA
ATOM      5  N   UNL     1      30.991 -23.537 -15.902  0.00  0.00    -0.235 N 
ATOM      6  C   UNL     1      33.457 -22.338 -18.204  0.00  0.00    +0.277 C 
ATOM      7  C   UNL     1      34.620 -22.526 -17.458  0.00  0.00    +0.191 C 
ATOM      8  C   UNL     1      34.464 -23.064 -16.187  0.00  0.00    +0.189 C 
ATOM      9  C   UNL     1      36.008 -22.306 -17.646  0.00  0.00    +0.068 C 
ATOM     10  C   UNL     1      32.260 -23.193 -16.421  0.00  0.00    +0.207 C 
ATOM     11  C   UNL     1      36.652 -22.712 -16.497  0.00  0.00    +0.072 C 
ATOM     12  H   UNL     1      35.889 -23.522 -14.717  0.00  0.00    +0.154 HD
ATOM     13  H   UNL     1      31.022 -23.909 -14.991  0.00  0.00    +0.166 HD
ENDROOT
BRANCH   5  16
ATOM     14  N   UNL     1      27.755 -22.745 -17.156  0.00  0.00    -0.207 N 
ATOM     15  N   UNL     1      27.691 -24.074 -17.344  0.00  0.00    -0.175 NA
ATOM     16  C   UNL     1      29.692 -23.453 -16.435  0.00  0.00    +0.095 C 
ATOM     17  C   UNL     1      28.933 -22.322 -16.613  0.00  0.00    +0.101 C 
ATOM     18  C   UNL     1      28.876 -24.501 -16.903  0.00  0.00    +0.134 C 
ATOM     19  C   UNL     1      26.634 -21.913 -17.523  0.00  0.00    +0.140 C 
ENDBRANCH   5  16
BRANCH   6  20
ATOM     20  O   UNL     1      33.466 -21.816 -19.474  0.00  0.00    -0.454 OA
BRANCH  20  21
ATOM     21  C   UNL     1      33.823 -20.452 -19.605  0.00  0.00    +0.212 C 
BRANCH  21  24
ATOM     22  O   UNL     1      32.121 -16.011 -20.665  0.00  0.00    -0.270 OA
ATOM     23  N   UNL     1      33.689 -17.656 -21.101  0.00  0.00    -0.273 N 
ATOM     24  C   UNL     1      33.583 -20.026 -21.053  0.00  0.00    +0.092 C 
ATOM     25  C   UNL     1      34.880 -19.599 -21.746  0.00  0.00    +0.140 C 
ATOM     26  C   UNL     1      32.733 -18.756 -21.128  0.00  0.00    +0.100 C 
ATOM     27  C   UNL     1      35.051 -18.135 -21.355  0.00  0.00    +0.123 C 
ATOM     28  C   UNL     1      33.285 -16.355 -20.867  0.00  0.00    +0.249 C 
BRANCH  25  29
ATOM     29  O   UNL     1      34.700 -19.693 -23.158  0.00  0.00    -0.352 OA
ATOM     30  C   UNL     1      35.293 -18.591 -23.829  0.00  0.00    +0.174 C 
ENDBRANCH  25  29
BRANCH  28  31
ATOM     31  C   UNL     1      34.342 -15.325 -20.858  0.00  0.00    +0.058 C 
ATOM     32  C   UNL     1      34.450 -14.504 -21.904  0.00  0.00    +0.005 C 
ENDBRANCH  28  31
ENDBRANCH  21  24
ENDBRANCH  20  21
ENDBRANCH   6  20
TORSDOF 6
ENDMDL
MODEL 4
REMARK VINA RESULT:      -9.2      1.879      4.866
REMARK  Name = 71535003
REMARK  6 active torsions:
REMARK  status: ('A' for Active; 'I' for Inactive)
REMARK    1  A    between atoms: N_5  and  C_16
REMARK    2  A    between atoms: C_6  and  O_20
REMARK    3  A    between atoms: O_20  and  C_21
REMARK    4  A    between atoms: C_21  and  C_24
REMARK    5  A    between atoms: C_25  and  O_29
REMARK    6  A    between atoms: C_28  and  C_31
REMARK                            x       y       z     vdW  Elec       q    Type
REMARK                         _______ _______ _______ _____ _____    ______ ____
ROOT
ATOM      1 CL   UNL     1      37.941 -22.952 -16.150  0.00  0.00    -0.085 Cl
ATOM      2  N   UNL     1      33.165 -23.380 -16.190  0.00  0.00    -0.294 NA
ATOM      3  N   UNL     1      35.563 -21.538 -18.870  0.00  0.00    -0.289 N 
ATOM      4  N   UNL     1      33.301 -22.116 -18.267  0.00  0.00    -0.316 NA
ATOM      5  N   UNL     1      31.245 -22.827 -17.409  0.00  0.00    -0.235 N 
ATOM      6  C   UNL     1      34.508 -23.349 -16.033  0.00  0.00    +0.277 C 
ATOM      7  C   UNL     1      35.296 -22.701 -16.984  0.00  0.00    +0.191 C 
ATOM      8  C   UNL     1      34.629 -22.119 -18.053  0.00  0.00    +0.189 C 
ATOM      9  C   UNL     1      36.679 -22.454 -17.176  0.00  0.00    +0.068 C 
ATOM     10  C   UNL     1      32.651 -22.771 -17.283  0.00  0.00    +0.207 C 
ATOM     11  C   UNL     1      36.815 -21.736 -18.344  0.00  0.00    +0.072 C 
ATOM     12  H   UNL     1      35.367 -21.053 -19.703  0.00  0.00    +0.154 HD
ATOM     13  H   UNL     1      30.901 -22.374 -18.213  0.00  0.00    +0.166 HD
ENDROOT
BRANCH   5  16
ATOM     14  N   UNL     1      29.115 -24.679 -15.241  0.00  0.00    -0.207 N 
ATOM     15  N   UNL     1      28.216 -23.753 -15.614  0.00  0.00    -0.175 NA
ATOM     16  C   UNL     1      30.240 -23.403 -16.611  0.00  0.00    +0.095 C 
ATOM     17  C   UNL     1      30.344 -24.514 -15.811  0.00  0.00    +0.101 C 
ATOM     18  C   UNL     1      28.909 -22.976 -16.450  0.00  0.00    +0.134 C 
ATOM     19  C   UNL     1      28.732 -25.720 -14.317  0.00  0.00    +0.140 C 
ENDBRANCH   5  16
BRANCH   6  20
ATOM     20  O   UNL     1      35.037 -23.966 -14.926  0.00  0.00    -0.454 OA
BRANCH  20  21
ATOM     21  C   UNL     1      35.227 -23.167 -13.773  0.00  0.00    +0.212 C 
BRANCH  21  24
ATOM     22  O   UNL     1      38.145 -27.002 -14.488  0.00  0.00    -0.270 OA
ATOM     23  N   UNL     1      37.668 -25.120 -13.229  0.00  0.00    -0.273 N 
ATOM     24  C   UNL     1      35.628 -24.078 -12.614  0.00  0.00    +0.092 C 
ATOM     25  C   UNL     1      36.765 -23.478 -11.781  0.00  0.00    +0.140 C 
ATOM     26  C   UNL     1      36.240 -25.386 -13.116  0.00  0.00    +0.100 C 
ATOM     27  C   UNL     1      38.032 -23.887 -12.527  0.00  0.00    +0.123 C 
ATOM     28  C   UNL     1      38.508 -25.973 -13.920  0.00  0.00    +0.249 C 
BRANCH  25  29
ATOM     29  O   UNL     1      36.760 -24.084 -10.490  0.00  0.00    -0.352 OA
ATOM     30  C   UNL     1      35.440 -24.397 -10.071  0.00  0.00    +0.174 C 
ENDBRANCH  25  29
BRANCH  28  31
ATOM     31  C   UNL     1      39.935 -25.599 -13.971  0.00  0.00    +0.058 C 
ATOM     32  C   UNL     1      40.541 -25.529 -15.158  0.00  0.00    +0.005 C 
ENDBRANCH  28  31
ENDBRANCH  21  24
ENDBRANCH  20  21
ENDBRANCH   6  20
TORSDOF 6
ENDMDL
MODEL 5
REMARK VINA RESULT:      -9.1      2.393      5.709
REMARK  Name = 71535003
REMARK  6 active torsions:
REMARK  status: ('A' for Active; 'I' for Inactive)
REMARK    1  A    between atoms: N_5  and  C_16
REMARK    2  A    between atoms: C_6  and  O_20
REMARK    3  A    between atoms: O_20  and  C_21
REMARK    4  A    between atoms: C_21  and  C_24
REMARK    5  A    between atoms: C_25  and  O_29
REMARK    6  A    between atoms: C_28  and  C_31
REMARK                            x       y       z     vdW  Elec       q    Type
REMARK                         _______ _______ _______ _____ _____    ______ ____
ROOT
ATOM      1 CL   UNL     1      37.409 -20.927 -20.022  0.00  0.00    -0.085 Cl
ATOM      2  N   UNL     1      33.712 -22.702 -17.538  0.00  0.00    -0.294 NA
ATOM      3  N   UNL     1      33.658 -20.310 -20.793  0.00  0.00    -0.289 N 
ATOM      4  N   UNL     1      32.347 -21.497 -19.154  0.00  0.00    -0.316 NA
ATOM      5  N   UNL     1      31.374 -22.747 -17.433  0.00  0.00    -0.235 N 
ATOM      6  C   UNL     1      34.856 -22.285 -18.128  0.00  0.00    +0.277 C 
ATOM      7  C   UNL     1      34.788 -21.460 -19.250  0.00  0.00    +0.191 C 
ATOM      8  C   UNL     1      33.518 -21.116 -19.694  0.00  0.00    +0.189 C 
ATOM      9  C   UNL     1      35.714 -20.833 -20.121  0.00  0.00    +0.068 C 
ATOM     10  C   UNL     1      32.545 -22.289 -18.080  0.00  0.00    +0.207 C 
ATOM     11  C   UNL     1      34.991 -20.131 -21.061  0.00  0.00    +0.072 C 
ATOM     12  H   UNL     1      32.917 -19.920 -21.310  0.00  0.00    +0.154 HD
ATOM     13  H   UNL     1      30.541 -22.429 -17.850  0.00  0.00    +0.166 HD
ENDROOT
BRANCH   5  16
ATOM     14  N   UNL     1      31.371 -24.617 -14.405  0.00  0.00    -0.207 N 
ATOM     15  N   UNL     1      30.195 -25.061 -14.881  0.00  0.00    -0.175 NA
ATOM     16  C   UNL     1      31.168 -23.568 -16.310  0.00  0.00    +0.095 C 
ATOM     17  C   UNL     1      31.994 -23.721 -15.224  0.00  0.00    +0.101 C 
ATOM     18  C   UNL     1      30.076 -24.417 -16.045  0.00  0.00    +0.134 C 
ATOM     19  C   UNL     1      31.857 -25.097 -13.133  0.00  0.00    +0.140 C 
ENDBRANCH   5  16
BRANCH   6  20
ATOM     20  O   UNL     1      36.046 -22.702 -17.584  0.00  0.00    -0.454 OA
BRANCH  20  21
ATOM     21  C   UNL     1      36.269 -22.399 -16.219  0.00  0.00    +0.212 C 
BRANCH  21  24
ATOM     22  O   UNL     1      37.281 -22.474 -11.454  0.00  0.00    -0.270 OA
ATOM     23  N   UNL     1      36.587 -23.652 -13.320  0.00  0.00    -0.273 N 
ATOM     24  C   UNL     1      37.152 -23.492 -15.619  0.00  0.00    +0.092 C 
ATOM     25  C   UNL     1      36.376 -24.792 -15.386  0.00  0.00    +0.140 C 
ATOM     26  C   UNL     1      37.615 -23.125 -14.208  0.00  0.00    +0.100 C 
ATOM     27  C   UNL     1      35.714 -24.594 -14.025  0.00  0.00    +0.123 C 
ATOM     28  C   UNL     1      36.514 -23.269 -11.994  0.00  0.00    +0.249 C 
BRANCH  25  29
ATOM     29  O   UNL     1      37.302 -25.874 -15.308  0.00  0.00    -0.352 OA
ATOM     30  C   UNL     1      36.899 -26.830 -14.340  0.00  0.00    +0.174 C 
ENDBRANCH  25  29
BRANCH  28  31
ATOM     31  C   UNL     1      35.428 -23.864 -11.192  0.00  0.00    +0.058 C 
ATOM     32  C   UNL     1      35.738 -24.518 -10.071  0.00  0.00    +0.005 C 
ENDBRANCH  28  31
ENDBRANCH  21  24
ENDBRANCH  20  21
ENDBRANCH   6  20
TORSDOF 6
ENDMDL
MODEL 6
REMARK VINA RESULT:      -9.1      1.249      2.080
REMARK  Name = 71535003
REMARK  6 active torsions:
REMARK  status: ('A' for Active; 'I' for Inactive)
REMARK    1  A    between atoms: N_5  and  C_16
REMARK    2  A    between atoms: C_6  and  O_20
REMARK    3  A    between atoms: O_20  and  C_21
REMARK    4  A    between atoms: C_21  and  C_24
REMARK    5  A    between atoms: C_25  and  O_29
REMARK    6  A    between atoms: C_28  and  C_31
REMARK                            x       y       z     vdW  Elec       q    Type
REMARK                         _______ _______ _______ _____ _____    ______ ____
ROOT
ATOM      1 CL   UNL     1      31.753 -25.376 -13.351  0.00  0.00    -0.085 Cl
ATOM      2  N   UNL     1      33.289 -22.901 -17.161  0.00  0.00    -0.294 NA
ATOM      3  N   UNL     1      29.516 -23.349 -15.788  0.00  0.00    -0.289 N 
ATOM      4  N   UNL     1      30.935 -22.360 -17.467  0.00  0.00    -0.316 NA
ATOM      5  N   UNL     1      32.569 -21.552 -18.933  0.00  0.00    -0.235 N 
ATOM      6  C   UNL     1      33.020 -23.640 -16.059  0.00  0.00    +0.277 C 
ATOM      7  C   UNL     1      31.702 -23.766 -15.623  0.00  0.00    +0.191 C 
ATOM      8  C   UNL     1      30.733 -23.107 -16.368  0.00  0.00    +0.189 C 
ATOM      9  C   UNL     1      31.031 -24.423 -14.560  0.00  0.00    +0.068 C 
ATOM     10  C   UNL     1      32.245 -22.314 -17.788  0.00  0.00    +0.207 C 
ATOM     11  C   UNL     1      29.686 -24.149 -14.687  0.00  0.00    +0.072 C 
ATOM     12  H   UNL     1      28.653 -23.003 -16.111  0.00  0.00    +0.154 HD
ATOM     13  H   UNL     1      31.788 -21.139 -19.368  0.00  0.00    +0.166 HD
ENDROOT
BRANCH   5  16
ATOM     14  N   UNL     1      35.409 -20.322 -20.691  0.00  0.00    -0.207 N 
ATOM     15  N   UNL     1      35.923 -21.516 -20.349  0.00  0.00    -0.175 NA
ATOM     16  C   UNL     1      33.789 -21.270 -19.573  0.00  0.00    +0.095 C 
ATOM     17  C   UNL     1      34.132 -20.126 -20.251  0.00  0.00    +0.101 C 
ATOM     18  C   UNL     1      34.930 -22.090 -19.665  0.00  0.00    +0.134 C 
ATOM     19  C   UNL     1      36.203 -19.392 -21.457  0.00  0.00    +0.140 C 
ENDBRANCH   5  16
BRANCH   6  20
ATOM     20  O   UNL     1      34.076 -24.238 -15.417  0.00  0.00    -0.454 OA
BRANCH  20  21
ATOM     21  C   UNL     1      34.367 -23.790 -14.105  0.00  0.00    +0.212 C 
BRANCH  21  24
ATOM     22  O   UNL     1      38.395 -24.868 -11.585  0.00  0.00    -0.270 OA
ATOM     23  N   UNL     1      37.470 -24.234 -13.610  0.00  0.00    -0.273 N 
ATOM     24  C   UNL     1      35.598 -22.887 -14.165  0.00  0.00    +0.092 C 
ATOM     25  C   UNL     1      36.428 -23.133 -15.429  0.00  0.00    +0.140 C 
ATOM     26  C   UNL     1      36.589 -23.218 -13.048  0.00  0.00    +0.100 C 
ATOM     27  C   UNL     1      37.324 -24.313 -15.065  0.00  0.00    +0.123 C 
ATOM     28  C   UNL     1      38.311 -24.982 -12.807  0.00  0.00    +0.249 C 
BRANCH  25  29
ATOM     29  O   UNL     1      37.237 -21.985 -15.679  0.00  0.00    -0.352 OA
ATOM     30  C   UNL     1      37.141 -21.571 -17.034  0.00  0.00    +0.174 C 
ENDBRANCH  25  29
BRANCH  28  31
ATOM     31  C   UNL     1      39.154 -25.985 -13.486  0.00  0.00    +0.058 C 
ATOM     32  C   UNL     1      40.357 -25.620 -13.935  0.00  0.00    +0.005 C 
ENDBRANCH  28  31
ENDBRANCH  21  24
ENDBRANCH  20  21
ENDBRANCH   6  20
TORSDOF 6
ENDMDL
MODEL 7
REMARK VINA RESULT:      -8.9      2.863      8.012
REMARK  Name = 71535003
REMARK  6 active torsions:
REMARK  status: ('A' for Active; 'I' for Inactive)
REMARK    1  A    between atoms: N_5  and  C_16
REMARK    2  A    between atoms: C_6  and  O_20
REMARK    3  A    between atoms: O_20  and  C_21
REMARK    4  A    between atoms: C_21  and  C_24
REMARK    5  A    between atoms: C_25  and  O_29
REMARK    6  A    between atoms: C_28  and  C_31
REMARK                            x       y       z     vdW  Elec       q    Type
REMARK                         _______ _______ _______ _____ _____    ______ ____
ROOT
ATOM      1 CL   UNL     1      33.214 -21.997 -19.930  0.00  0.00    -0.085 Cl
ATOM      2  N   UNL     1      35.283 -23.334 -15.816  0.00  0.00    -0.294 NA
ATOM      3  N   UNL     1      36.823 -21.110 -18.817  0.00  0.00    -0.289 N 
ATOM      4  N   UNL     1      37.208 -22.101 -16.653  0.00  0.00    -0.316 NA
ATOM      5  N   UNL     1      37.264 -23.180 -14.578  0.00  0.00    -0.235 N 
ATOM      6  C   UNL     1      34.560 -23.042 -16.922  0.00  0.00    +0.277 C 
ATOM      7  C   UNL     1      35.134 -22.271 -17.932  0.00  0.00    +0.191 C 
ATOM      8  C   UNL     1      36.440 -21.846 -17.726  0.00  0.00    +0.189 C 
ATOM      9  C   UNL     1      34.729 -21.767 -19.194  0.00  0.00    +0.068 C 
ATOM     10  C   UNL     1      36.544 -22.852 -15.750  0.00  0.00    +0.207 C 
ATOM     11  C   UNL     1      35.789 -21.056 -19.717  0.00  0.00    +0.072 C 
ATOM     12  H   UNL     1      37.703 -20.687 -18.937  0.00  0.00    +0.154 HD
ATOM     13  H   UNL     1      38.179 -22.816 -14.560  0.00  0.00    +0.166 HD
ENDROOT
BRANCH   5  16
ATOM     14  N   UNL     1      36.156 -24.573 -11.496  0.00  0.00    -0.207 N 
ATOM     15  N   UNL     1      36.765 -25.672 -11.971  0.00  0.00    -0.175 NA
ATOM     16  C   UNL     1      36.928 -23.926 -13.434  0.00  0.00    +0.095 C 
ATOM     17  C   UNL     1      36.226 -23.499 -12.335  0.00  0.00    +0.101 C 
ATOM     18  C   UNL     1      37.235 -25.271 -13.155  0.00  0.00    +0.134 C 
ATOM     19  C   UNL     1      35.511 -24.611 -10.206  0.00  0.00    +0.140 C 
ENDBRANCH   5  16
BRANCH   6  20
ATOM     20  O   UNL     1      33.278 -23.527 -16.995  0.00  0.00    -0.454 OA
BRANCH  20  21
ATOM     21  C   UNL     1      32.252 -22.718 -16.450  0.00  0.00    +0.212 C 
BRANCH  21  24
ATOM     22  O   UNL     1      28.057 -21.184 -14.504  0.00  0.00    -0.270 OA
ATOM     23  N   UNL     1      29.277 -22.950 -15.369  0.00  0.00    -0.273 N 
ATOM     24  C   UNL     1      31.588 -23.485 -15.307  0.00  0.00    +0.092 C 
ATOM     25  C   UNL     1      30.808 -24.703 -15.811  0.00  0.00    +0.140 C 
ATOM     26  C   UNL     1      30.499 -22.649 -14.632  0.00  0.00    +0.100 C 
ATOM     27  C   UNL     1      29.448 -24.138 -16.209  0.00  0.00    +0.123 C 
ATOM     28  C   UNL     1      28.144 -22.172 -15.233  0.00  0.00    +0.249 C 
BRANCH  25  29
ATOM     29  O   UNL     1      30.641 -25.622 -14.733  0.00  0.00    -0.352 OA
ATOM     30  C   UNL     1      31.497 -25.304 -13.646  0.00  0.00    +0.174 C 
ENDBRANCH  25  29
BRANCH  28  31
ATOM     31  C   UNL     1      26.968 -22.569 -16.032  0.00  0.00    +0.058 C 
ATOM     32  C   UNL     1      26.643 -21.846 -17.105  0.00  0.00    +0.005 C 
ENDBRANCH  28  31
ENDBRANCH  21  24
ENDBRANCH  20  21
ENDBRANCH   6  20
TORSDOF 6
ENDMDL
MODEL 8
REMARK VINA RESULT:      -8.4      1.096      2.751
REMARK  Name = 71535003
REMARK  6 active torsions:
REMARK  status: ('A' for Active; 'I' for Inactive)
REMARK    1  A    between atoms: N_5  and  C_16
REMARK    2  A    between atoms: C_6  and  O_20
REMARK    3  A    between atoms: O_20  and  C_21
REMARK    4  A    between atoms: C_21  and  C_24
REMARK    5  A    between atoms: C_25  and  O_29
REMARK    6  A    between atoms: C_28  and  C_31
REMARK                            x       y       z     vdW  Elec       q    Type
REMARK                         _______ _______ _______ _____ _____    ______ ____
ROOT
ATOM      1 CL   UNL     1      32.569 -24.982 -13.394  0.00  0.00    -0.085 Cl
ATOM      2  N   UNL     1      33.669 -22.501 -17.348  0.00  0.00    -0.294 NA
ATOM      3  N   UNL     1      30.034 -23.655 -16.013  0.00  0.00    -0.289 N 
ATOM      4  N   UNL     1      31.265 -22.501 -17.735  0.00  0.00    -0.316 NA
ATOM      5  N   UNL     1      32.738 -21.463 -19.227  0.00  0.00    -0.235 N 
ATOM      6  C   UNL     1      33.527 -23.203 -16.199  0.00  0.00    +0.277 C 
ATOM      7  C   UNL     1      32.252 -23.580 -15.779  0.00  0.00    +0.191 C 
ATOM      8  C   UNL     1      31.190 -23.197 -16.587  0.00  0.00    +0.189 C 
ATOM      9  C   UNL     1      31.701 -24.291 -14.682  0.00  0.00    +0.068 C 
ATOM     10  C   UNL     1      32.545 -22.197 -18.035  0.00  0.00    +0.207 C 
ATOM     11  C   UNL     1      30.334 -24.322 -14.853  0.00  0.00    +0.072 C 
ATOM     12  H   UNL     1      29.129 -23.525 -16.377  0.00  0.00    +0.154 HD
ATOM     13  H   UNL     1      31.902 -21.258 -19.706  0.00  0.00    +0.166 HD
ENDROOT
BRANCH   5  16
ATOM     14  N   UNL     1      35.299 -19.799 -21.056  0.00  0.00    -0.207 N 
ATOM     15  N   UNL     1      36.064 -20.773 -20.536  0.00  0.00    -0.175 NA
ATOM     16  C   UNL     1      33.890 -20.969 -19.864  0.00  0.00    +0.095 C 
ATOM     17  C   UNL     1      33.987 -19.872 -20.684  0.00  0.00    +0.101 C 
ATOM     18  C   UNL     1      35.199 -21.485 -19.809  0.00  0.00    +0.134 C 
ATOM     19  C   UNL     1      35.889 -18.805 -21.919  0.00  0.00    +0.140 C 
ENDBRANCH   5  16
BRANCH   6  20
ATOM     20  O   UNL     1      34.664 -23.515 -15.495  0.00  0.00    -0.454 OA
BRANCH  20  21
ATOM     21  C   UNL     1      35.820 -22.743 -15.766  0.00  0.00    +0.212 C 
BRANCH  21  24
ATOM     22  O   UNL     1      37.232 -22.757 -11.104  0.00  0.00    -0.270 OA
ATOM     23  N   UNL     1      36.768 -23.990 -13.006  0.00  0.00    -0.273 N 
ATOM     24  C   UNL     1      37.047 -23.536 -15.318  0.00  0.00    +0.092 C 
ATOM     25  C   UNL     1      36.732 -25.024 -15.137  0.00  0.00    +0.140 C 
ATOM     26  C   UNL     1      37.500 -23.120 -13.918  0.00  0.00    +0.100 C 
ATOM     27  C   UNL     1      36.167 -25.118 -13.722  0.00  0.00    +0.123 C 
ATOM     28  C   UNL     1      36.700 -23.722 -11.652  0.00  0.00    +0.249 C 
BRANCH  25  29
ATOM     29  O   UNL     1      37.949 -25.765 -15.210  0.00  0.00    -0.352 OA
ATOM     30  C   UNL     1      37.811 -27.045 -14.612  0.00  0.00    +0.174 C 
ENDBRANCH  25  29
BRANCH  28  31
ATOM     31  C   UNL     1      35.927 -24.670 -10.827  0.00  0.00    +0.058 C 
ATOM     32  C   UNL     1      35.420 -24.250  -9.666  0.00  0.00    +0.005 C 
ENDBRANCH  28  31
ENDBRANCH  21  24
ENDBRANCH  20  21
ENDBRANCH   6  20
TORSDOF 6
ENDMDL
MODEL 9
REMARK VINA RESULT:      -8.3      2.461      6.422
REMARK  Name = 71535003
REMARK  6 active torsions:
REMARK  status: ('A' for Active; 'I' for Inactive)
REMARK    1  A    between atoms: N_5  and  C_16
REMARK    2  A    between atoms: C_6  and  O_20
REMARK    3  A    between atoms: O_20  and  C_21
REMARK    4  A    between atoms: C_21  and  C_24
REMARK    5  A    between atoms: C_25  and  O_29
REMARK    6  A    between atoms: C_28  and  C_31
REMARK                            x       y       z     vdW  Elec       q    Type
REMARK                         _______ _______ _______ _____ _____    ______ ____
ROOT
ATOM      1 CL   UNL     1      34.711 -24.993 -13.522  0.00  0.00    -0.085 Cl
ATOM      2  N   UNL     1      35.003 -22.335 -17.502  0.00  0.00    -0.294 NA
ATOM      3  N   UNL     1      37.942 -23.373 -14.932  0.00  0.00    -0.289 N 
ATOM      4  N   UNL     1      37.370 -22.183 -16.948  0.00  0.00    -0.316 NA
ATOM      5  N   UNL     1      36.495 -21.134 -18.847  0.00  0.00    -0.235 N 
ATOM      6  C   UNL     1      34.754 -23.099 -16.414  0.00  0.00    +0.277 C 
ATOM      7  C   UNL     1      35.800 -23.432 -15.555  0.00  0.00    +0.191 C 
ATOM      8  C   UNL     1      37.057 -22.944 -15.885  0.00  0.00    +0.189 C 
ATOM      9  C   UNL     1      35.948 -24.180 -14.359  0.00  0.00    +0.068 C 
ATOM     10  C   UNL     1      36.278 -21.930 -17.700  0.00  0.00    +0.207 C 
ATOM     11  C   UNL     1      37.277 -24.126 -13.998  0.00  0.00    +0.072 C 
ATOM     12  H   UNL     1      38.906 -23.172 -14.918  0.00  0.00    +0.154 HD
ATOM     13  H   UNL     1      37.432 -20.854 -18.964  0.00  0.00    +0.166 HD
ENDROOT
BRANCH   5  16
ATOM     14  N   UNL     1      34.801 -19.705 -21.633  0.00  0.00    -0.207 N 
ATOM     15  N   UNL     1      33.728 -20.264 -21.048  0.00  0.00    -0.175 NA
ATOM     16  C   UNL     1      35.634 -20.663 -19.855  0.00  0.00    +0.095 C 
ATOM     17  C   UNL     1      35.968 -19.915 -20.957  0.00  0.00    +0.101 C 
ATOM     18  C   UNL     1      34.243 -20.848 -19.963  0.00  0.00    +0.134 C 
ATOM     19  C   UNL     1      34.645 -18.967 -22.863  0.00  0.00    +0.140 C 
ENDBRANCH   5  16
BRANCH   6  20
ATOM     20  O   UNL     1      33.461 -23.515 -16.207  0.00  0.00    -0.454 OA
BRANCH  20  21
ATOM     21  C   UNL     1      32.606 -22.630 -15.507  0.00  0.00    +0.212 C 
BRANCH  21  24
ATOM     22  O   UNL     1      27.841 -21.613 -15.498  0.00  0.00    -0.270 OA
ATOM     23  N   UNL     1      29.493 -23.222 -15.691  0.00  0.00    -0.273 N 
ATOM     24  C   UNL     1      31.626 -23.460 -14.679  0.00  0.00    +0.092 C 
ATOM     25  C   UNL     1      31.255 -24.773 -15.375  0.00  0.00    +0.140 C 
ATOM     26  C   UNL     1      30.272 -22.760 -14.549  0.00  0.00    +0.100 C 
ATOM     27  C   UNL     1      30.118 -24.390 -16.317  0.00  0.00    +0.123 C 
ATOM     28  C   UNL     1      28.323 -22.592 -16.068  0.00  0.00    +0.249 C 
BRANCH  25  29
ATOM     29  O   UNL     1      30.770 -25.691 -14.397  0.00  0.00    -0.352 OA
ATOM     30  C   UNL     1      31.218 -25.345 -13.095  0.00  0.00    +0.174 C 
ENDBRANCH  25  29
BRANCH  28  31
ATOM     31  C   UNL     1      27.622 -23.145 -17.243  0.00  0.00    +0.058 C 
ATOM     32  C   UNL     1      26.878 -22.329 -17.993  0.00  0.00    +0.005 C 
ENDBRANCH  28  31
ENDBRANCH  21  24
ENDBRANCH  20  21
ENDBRANCH   6  20
TORSDOF 6
ENDMDL
