MODEL 1
REMARK VINA RESULT:      -6.1      0.000      0.000
REMARK  Name = 4369270
REMARK  3 active torsions:
REMARK  status: ('A' for Active; 'I' for Inactive)
REMARK    1  A    between atoms: C_1  and  O_26
REMARK    2  A    between atoms: C_9  and  C_22
REMARK    3  A    between atoms: C_19  and  O_28
REMARK                            x       y       z     vdW  Elec       q    Type
REMARK                         _______ _______ _______ _____ _____    ______ ____
ROOT
ATOM      1  C   UNL     1      32.093  -5.606 -23.609  0.00  0.00    +0.088 C 
ATOM      2  C   UNL     1      32.648  -4.455 -24.508  0.00  0.00    +0.025 C 
ATOM      3  C   UNL     1      33.114  -4.965 -25.899  0.00  0.00    +0.002 C 
ATOM      4  C   UNL     1      33.018  -6.885 -23.578  0.00  0.00    +0.026 C 
ATOM      5  C   UNL     1      33.601  -3.810 -26.859  0.00  0.00    +0.000 C 
ATOM      6  C   UNL     1      32.507  -2.700 -26.953  0.00  0.00    +0.002 C 
ATOM      7  C   UNL     1      34.130  -6.125 -25.782  0.00  0.00    +0.000 C 
ATOM      8  C   UNL     1      34.321  -6.671 -24.370  0.00  0.00    +0.003 C 
ATOM      9  C   UNL     1      32.129  -7.996 -24.221  0.00  0.00    +0.024 C 
ATOM     10  C   UNL     1      31.644  -3.286 -24.622  0.00  0.00    +0.002 C 
ATOM     11  C   UNL     1      30.694  -6.121 -24.031  0.00  0.00    +0.027 C 
ATOM     12  C   UNL     1      32.105  -2.180 -25.565  0.00  0.00    +0.000 C 
ATOM     13  C   UNL     1      30.720  -7.621 -23.776  0.00  0.00    +0.007 C 
ATOM     14  C   UNL     1      33.901  -4.337 -28.292  0.00  0.00    +0.002 C 
ATOM     15  C   UNL     1      33.430  -7.267 -22.131  0.00  0.00    +0.003 C 
ATOM     16  C   UNL     1      31.259  -3.149 -27.746  0.00  0.00    +0.029 C 
ATOM     17  C   UNL     1      34.916  -3.169 -26.338  0.00  0.00    +0.000 C 
ATOM     18  C   UNL     1      32.665  -4.787 -29.069  0.00  0.00    +0.029 C 
ATOM     19  C   UNL     1      31.590  -3.708 -29.129  0.00  0.00    +0.111 C 
ENDROOT
BRANCH   9  22
ATOM     20  O   UNL     1      32.416 -11.462 -22.890  0.00  0.00    -0.441 OA
ATOM     21  O   UNL     1      34.127 -12.396 -24.111  0.00  0.00    -0.245 OA
ATOM     22  C   UNL     1      32.487  -9.413 -23.909  0.00  0.00    +0.005 C 
ATOM     23  C   UNL     1      31.776 -10.181 -22.866  0.00  0.00    +0.231 C 
ATOM     24  C   UNL     1      33.434 -10.147 -24.486  0.00  0.00    +0.077 C 
ATOM     25  C   UNL     1      33.397 -11.459 -23.839  0.00  0.00    +0.341 C 
ENDBRANCH   9  22
BRANCH   1  26
ATOM     26  O   UNL     1      31.967  -5.081 -22.277  0.00  0.00    -0.387 OA
ATOM     27  H   UNL     1      32.402  -4.217 -22.228  0.00  0.00    +0.210 HD
ENDBRANCH   1  26
BRANCH  19  28
ATOM     28  O   UNL     1      31.995  -2.655 -30.000  0.00  0.00    -0.384 OA
ATOM     29  H   UNL     1      32.314  -3.031 -30.835  0.00  0.00    +0.210 HD
ENDBRANCH  19  28
TORSDOF 3
ENDMDL
MODEL 2
REMARK VINA RESULT:      -4.3     18.790     20.780
REMARK  Name = 4369270
REMARK  3 active torsions:
REMARK  status: ('A' for Active; 'I' for Inactive)
REMARK    1  A    between atoms: C_1  and  O_26
REMARK    2  A    between atoms: C_9  and  C_22
REMARK    3  A    between atoms: C_19  and  O_28
REMARK                            x       y       z     vdW  Elec       q    Type
REMARK                         _______ _______ _______ _____ _____    ______ ____
ROOT
ATOM      1  C   UNL     1      31.498 -24.176 -13.681  0.00  0.00    +0.088 C 
ATOM      2  C   UNL     1      32.970 -24.623 -13.955  0.00  0.00    +0.025 C 
ATOM      3  C   UNL     1      33.521 -24.053 -15.291  0.00  0.00    +0.002 C 
ATOM      4  C   UNL     1      30.544 -24.347 -14.927  0.00  0.00    +0.026 C 
ATOM      5  C   UNL     1      35.034 -24.420 -15.551  0.00  0.00    +0.000 C 
ATOM      6  C   UNL     1      35.900 -24.019 -14.315  0.00  0.00    +0.002 C 
ATOM      7  C   UNL     1      32.602 -24.385 -16.488  0.00  0.00    +0.000 C 
ATOM      8  C   UNL     1      31.262 -25.014 -16.115  0.00  0.00    +0.003 C 
ATOM      9  C   UNL     1      30.115 -22.883 -15.263  0.00  0.00    +0.024 C 
ATOM     10  C   UNL     1      33.895 -24.306 -12.759  0.00  0.00    +0.002 C 
ATOM     11  C   UNL     1      31.356 -22.694 -13.255  0.00  0.00    +0.027 C 
ATOM     12  C   UNL     1      35.359 -24.641 -13.019  0.00  0.00    +0.000 C 
ATOM     13  C   UNL     1      30.064 -22.209 -13.897  0.00  0.00    +0.007 C 
ATOM     14  C   UNL     1      35.597 -23.696 -16.809  0.00  0.00    +0.002 C 
ATOM     15  C   UNL     1      29.310 -25.229 -14.597  0.00  0.00    +0.003 C 
ATOM     16  C   UNL     1      36.056 -22.490 -14.158  0.00  0.00    +0.029 C 
ATOM     17  C   UNL     1      35.203 -25.943 -15.804  0.00  0.00    +0.000 C 
ATOM     18  C   UNL     1      35.742 -22.183 -16.652  0.00  0.00    +0.029 C 
ATOM     19  C   UNL     1      36.562 -21.801 -15.425  0.00  0.00    +0.111 C 
ENDROOT
BRANCH   9  22
ATOM     20  O   UNL     1      27.369 -22.921 -17.778  0.00  0.00    -0.441 OA
ATOM     21  O   UNL     1      25.705 -21.655 -16.817  0.00  0.00    -0.245 OA
ATOM     22  C   UNL     1      28.857 -22.711 -16.051  0.00  0.00    +0.005 C 
ATOM     23  C   UNL     1      28.685 -23.324 -17.384  0.00  0.00    +0.231 C 
ATOM     24  C   UNL     1      27.774 -22.026 -15.693  0.00  0.00    +0.077 C 
ATOM     25  C   UNL     1      26.818 -22.155 -16.793  0.00  0.00    +0.341 C 
ENDBRANCH   9  22
BRANCH   1  26
ATOM     26  O   UNL     1      31.006 -24.979 -12.596  0.00  0.00    -0.387 OA
ATOM     27  H   UNL     1      31.311 -24.608 -11.754  0.00  0.00    +0.210 HD
ENDBRANCH   1  26
BRANCH  19  28
ATOM     28  O   UNL     1      37.938 -22.108 -15.635  0.00  0.00    -0.384 OA
ATOM     29  H   UNL     1      38.026 -22.681 -16.412  0.00  0.00    +0.210 HD
ENDBRANCH  19  28
TORSDOF 3
ENDMDL
MODEL 3
REMARK VINA RESULT:      -3.6      2.329      7.896
REMARK  Name = 4369270
REMARK  3 active torsions:
REMARK  status: ('A' for Active; 'I' for Inactive)
REMARK    1  A    between atoms: C_1  and  O_26
REMARK    2  A    between atoms: C_9  and  C_22
REMARK    3  A    between atoms: C_19  and  O_28
REMARK                            x       y       z     vdW  Elec       q    Type
REMARK                         _______ _______ _______ _____ _____    ______ ____
ROOT
ATOM      1  C   UNL     1      32.556  -7.760 -21.349  0.00  0.00    +0.088 C 
ATOM      2  C   UNL     1      31.825  -9.083 -20.951  0.00  0.00    +0.025 C 
ATOM      3  C   UNL     1      31.798 -10.114 -22.112  0.00  0.00    +0.002 C 
ATOM      4  C   UNL     1      32.101  -7.183 -22.746  0.00  0.00    +0.026 C 
ATOM      5  C   UNL     1      31.140 -11.492 -21.710  0.00  0.00    +0.000 C 
ATOM      6  C   UNL     1      31.817 -12.048 -20.418  0.00  0.00    +0.002 C 
ATOM      7  C   UNL     1      31.205  -9.514 -23.408  0.00  0.00    +0.000 C 
ATOM      8  C   UNL     1      30.957  -8.009 -23.364  0.00  0.00    +0.003 C 
ATOM      9  C   UNL     1      33.397  -7.258 -23.614  0.00  0.00    +0.024 C 
ATOM     10  C   UNL     1      32.403  -9.684 -19.650  0.00  0.00    +0.002 C 
ATOM     11  C   UNL     1      34.097  -7.891 -21.441  0.00  0.00    +0.027 C 
ATOM     12  C   UNL     1      31.782 -11.024 -19.274  0.00  0.00    +0.000 C 
ATOM     13  C   UNL     1      34.511  -7.001 -22.604  0.00  0.00    +0.007 C 
ATOM     14  C   UNL     1      31.279 -12.551 -22.842  0.00  0.00    +0.002 C 
ATOM     15  C   UNL     1      31.588  -5.723 -22.632  0.00  0.00    +0.003 C 
ATOM     16  C   UNL     1      33.261 -12.543 -20.660  0.00  0.00    +0.029 C 
ATOM     17  C   UNL     1      29.619 -11.327 -21.443  0.00  0.00    +0.000 C 
ATOM     18  C   UNL     1      32.710 -13.031 -23.082  0.00  0.00    +0.029 C 
ATOM     19  C   UNL     1      33.373 -13.543 -21.809  0.00  0.00    +0.111 C 
ENDROOT
BRANCH   9  22
ATOM     20  O   UNL     1      34.344  -5.289 -26.629  0.00  0.00    -0.441 OA
ATOM     21  O   UNL     1      32.435  -4.121 -27.164  0.00  0.00    -0.245 OA
ATOM     22  C   UNL     1      33.466  -6.360 -24.805  0.00  0.00    +0.005 C 
ATOM     23  C   UNL     1      34.701  -6.225 -25.606  0.00  0.00    +0.231 C 
ATOM     24  C   UNL     1      32.492  -5.597 -25.293  0.00  0.00    +0.077 C 
ATOM     25  C   UNL     1      33.045  -4.908 -26.459  0.00  0.00    +0.341 C 
ENDBRANCH   9  22
BRANCH   1  26
ATOM     26  O   UNL     1      32.272  -6.794 -20.325  0.00  0.00    -0.387 OA
ATOM     27  H   UNL     1      32.973  -6.816 -19.656  0.00  0.00    +0.210 HD
ENDBRANCH   1  26
BRANCH  19  28
ATOM     28  O   UNL     1      32.809 -14.795 -21.428  0.00  0.00    -0.384 OA
ATOM     29  H   UNL     1      33.517 -15.450 -21.323  0.00  0.00    +0.210 HD
ENDBRANCH  19  28
TORSDOF 3
ENDMDL
MODEL 4
REMARK VINA RESULT:      -3.3      3.137      5.574
REMARK  Name = 4369270
REMARK  3 active torsions:
REMARK  status: ('A' for Active; 'I' for Inactive)
REMARK    1  A    between atoms: C_1  and  O_26
REMARK    2  A    between atoms: C_9  and  C_22
REMARK    3  A    between atoms: C_19  and  O_28
REMARK                            x       y       z     vdW  Elec       q    Type
REMARK                         _______ _______ _______ _____ _____    ______ ____
ROOT
ATOM      1  C   UNL     1      32.553 -11.432 -22.046  0.00  0.00    +0.088 C 
ATOM      2  C   UNL     1      32.876  -9.912 -21.874  0.00  0.00    +0.025 C 
ATOM      3  C   UNL     1      33.046  -9.187 -23.237  0.00  0.00    +0.002 C 
ATOM      4  C   UNL     1      33.492 -12.164 -23.082  0.00  0.00    +0.026 C 
ATOM      5  C   UNL     1      33.290  -7.634 -23.093  0.00  0.00    +0.000 C 
ATOM      6  C   UNL     1      32.176  -7.001 -22.202  0.00  0.00    +0.002 C 
ATOM      7  C   UNL     1      34.090  -9.884 -24.139  0.00  0.00    +0.000 C 
ATOM      8  C   UNL     1      34.591 -11.229 -23.622  0.00  0.00    +0.003 C 
ATOM      9  C   UNL     1      32.513 -12.612 -24.212  0.00  0.00    +0.024 C 
ATOM     10  C   UNL     1      31.845  -9.209 -20.964  0.00  0.00    +0.002 C 
ATOM     11  C   UNL     1      31.109 -11.721 -22.526  0.00  0.00    +0.027 C 
ATOM     12  C   UNL     1      32.069  -7.706 -20.842  0.00  0.00    +0.000 C 
ATOM     13  C   UNL     1      31.223 -12.918 -23.459  0.00  0.00    +0.007 C 
ATOM     14  C   UNL     1      33.290  -6.918 -24.476  0.00  0.00    +0.002 C 
ATOM     15  C   UNL     1      34.213 -13.384 -22.450  0.00  0.00    +0.003 C 
ATOM     16  C   UNL     1      30.798  -6.955 -22.900  0.00  0.00    +0.029 C 
ATOM     17  C   UNL     1      34.672  -7.344 -22.445  0.00  0.00    +0.000 C 
ATOM     18  C   UNL     1      31.927  -6.883 -25.165  0.00  0.00    +0.029 C 
ATOM     19  C   UNL     1      30.840  -6.292 -24.276  0.00  0.00    +0.111 C 
ENDROOT
BRANCH   9  22
ATOM     20  O   UNL     1      33.532 -14.863 -26.999  0.00  0.00    -0.441 OA
ATOM     21  O   UNL     1      34.020 -16.859 -25.963  0.00  0.00    -0.245 OA
ATOM     22  C   UNL     1      32.961 -13.736 -25.089  0.00  0.00    +0.005 C 
ATOM     23  C   UNL     1      33.086 -13.578 -26.552  0.00  0.00    +0.231 C 
ATOM     24  C   UNL     1      33.293 -14.968 -24.709  0.00  0.00    +0.077 C 
ATOM     25  C   UNL     1      33.659 -15.695 -25.925  0.00  0.00    +0.341 C 
ENDBRANCH   9  22
BRANCH   1  26
ATOM     26  O   UNL     1      32.703 -12.046 -20.756  0.00  0.00    -0.387 OA
ATOM     27  H   UNL     1      33.570 -12.475 -20.700  0.00  0.00    +0.210 HD
ENDBRANCH   1  26
BRANCH  19  28
ATOM     28  O   UNL     1      31.025  -4.885 -24.138  0.00  0.00    -0.384 OA
ATOM     29  H   UNL     1      31.470  -4.539 -24.926  0.00  0.00    +0.210 HD
ENDBRANCH  19  28
TORSDOF 3
ENDMDL
MODEL 5
REMARK VINA RESULT:      -3.2     19.292     21.782
REMARK  Name = 4369270
REMARK  3 active torsions:
REMARK  status: ('A' for Active; 'I' for Inactive)
REMARK    1  A    between atoms: C_1  and  O_26
REMARK    2  A    between atoms: C_9  and  C_22
REMARK    3  A    between atoms: C_19  and  O_28
REMARK                            x       y       z     vdW  Elec       q    Type
REMARK                         _______ _______ _______ _____ _____    ______ ____
ROOT
ATOM      1  C   UNL     1      34.312 -22.646 -15.194  0.00  0.00    +0.088 C 
ATOM      2  C   UNL     1      35.598 -23.047 -14.401  0.00  0.00    +0.025 C 
ATOM      3  C   UNL     1      35.596 -24.545 -13.991  0.00  0.00    +0.002 C 
ATOM      4  C   UNL     1      32.975 -23.157 -14.529  0.00  0.00    +0.026 C 
ATOM      5  C   UNL     1      36.921 -24.996 -13.262  0.00  0.00    +0.000 C 
ATOM      6  C   UNL     1      38.163 -24.602 -14.123  0.00  0.00    +0.002 C 
ATOM      7  C   UNL     1      34.315 -24.934 -13.218  0.00  0.00    +0.000 C 
ATOM      8  C   UNL     1      33.234 -23.858 -13.182  0.00  0.00    +0.003 C 
ATOM      9  C   UNL     1      32.393 -24.145 -15.588  0.00  0.00    +0.024 C 
ATOM     10  C   UNL     1      36.883 -22.651 -15.161  0.00  0.00    +0.002 C 
ATOM     11  C   UNL     1      34.275 -23.176 -16.649  0.00  0.00    +0.027 C 
ATOM     12  C   UNL     1      38.162 -23.105 -14.467  0.00  0.00    +0.000 C 
ATOM     13  C   UNL     1      32.819 -23.529 -16.916  0.00  0.00    +0.007 C 
ATOM     14  C   UNL     1      36.952 -26.533 -13.017  0.00  0.00    +0.002 C 
ATOM     15  C   UNL     1      31.987 -21.994 -14.246  0.00  0.00    +0.003 C 
ATOM     16  C   UNL     1      38.302 -25.454 -15.405  0.00  0.00    +0.029 C 
ATOM     17  C   UNL     1      37.048 -24.323 -11.868  0.00  0.00    +0.000 C 
ATOM     18  C   UNL     1      37.081 -27.370 -14.289  0.00  0.00    +0.029 C 
ATOM     19  C   UNL     1      38.279 -26.958 -15.138  0.00  0.00    +0.111 C 
ENDROOT
BRANCH   9  22
ATOM     20  O   UNL     1      28.963 -25.377 -14.818  0.00  0.00    -0.441 OA
ATOM     21  O   UNL     1      27.606 -24.205 -16.260  0.00  0.00    -0.245 OA
ATOM     22  C   UNL     1      30.927 -24.428 -15.516  0.00  0.00    +0.005 C 
ATOM     23  C   UNL     1      30.372 -25.412 -14.564  0.00  0.00    +0.231 C 
ATOM     24  C   UNL     1      29.965 -23.872 -16.248  0.00  0.00    +0.077 C 
ATOM     25  C   UNL     1      28.706 -24.474 -15.809  0.00  0.00    +0.341 C 
ENDBRANCH   9  22
BRANCH   1  26
ATOM     26  O   UNL     1      34.287 -21.211 -15.264  0.00  0.00    -0.387 OA
ATOM     27  H   UNL     1      33.581 -20.872 -14.693  0.00  0.00    +0.210 HD
ENDBRANCH   1  26
BRANCH  19  28
ATOM     28  O   UNL     1      39.492 -27.365 -14.511  0.00  0.00    -0.384 OA
ATOM     29  H   UNL     1      40.088 -26.603 -14.434  0.00  0.00    +0.210 HD
ENDBRANCH  19  28
TORSDOF 3
ENDMDL
