MODEL 1
REMARK VINA RESULT:      -4.9      0.000      0.000
REMARK  Name = 5603
REMARK  5 active torsions:
REMARK  status: ('A' for Active; 'I' for Inactive)
REMARK    1  A    between atoms: C_1  and  N_3
REMARK    2  A    between atoms: C_1  and  C_7
REMARK    3  A    between atoms: C_7  and  C_8
REMARK    4  A    between atoms: C_8  and  C_9
REMARK    5  A    between atoms: C_9  and  C_10
REMARK                            x       y       z     vdW  Elec       q    Type
REMARK                         _______ _______ _______ _____ _____    ______ ____
ROOT
ATOM      1  C   UNL     1      35.369 -18.244 -23.123  0.00  0.00    -0.066 C 
ATOM      2  C   UNL     1      34.688 -18.957 -24.290  0.00  0.00    -0.024 C 
ENDROOT
BRANCH   1   3
ATOM      3  N   UNL     1      35.636 -16.852 -23.487  0.00  0.00    +0.382 N 
ATOM      4  H   UNL     1      34.941 -16.246 -23.050  0.00  0.00    -0.089 HD
ATOM      5  H   UNL     1      35.586 -16.750 -24.501  0.00  0.00    -0.089 HD
ATOM      6  H   UNL     1      36.567 -16.589 -23.164  0.00  0.00    -0.089 HD
ENDBRANCH   1   3
BRANCH   1   7
ATOM      7  C   UNL     1      34.496 -18.323 -21.859  0.00  0.00    -0.022 C 
BRANCH   7   8
ATOM      8  C   UNL     1      34.627 -19.661 -21.119  0.00  0.00    -0.002 C 
BRANCH   8   9
ATOM      9  C   UNL     1      33.280 -20.109 -20.548  0.00  0.00    -0.000 C 
BRANCH   9  10
ATOM     10  C   UNL     1      33.393 -21.292 -19.584  0.00  0.00    -0.000 C 
ATOM     11  C   UNL     1      34.823 -21.757 -19.357  0.00  0.00    -0.000 C 
ENDBRANCH   9  10
ENDBRANCH   8   9
ENDBRANCH   7   8
ENDBRANCH   1   7
TORSDOF 5
ENDMDL
MODEL 2
REMARK VINA RESULT:      -4.8      0.882      1.457
REMARK  Name = 5603
REMARK  5 active torsions:
REMARK  status: ('A' for Active; 'I' for Inactive)
REMARK    1  A    between atoms: C_1  and  N_3
REMARK    2  A    between atoms: C_1  and  C_7
REMARK    3  A    between atoms: C_7  and  C_8
REMARK    4  A    between atoms: C_8  and  C_9
REMARK    5  A    between atoms: C_9  and  C_10
REMARK                            x       y       z     vdW  Elec       q    Type
REMARK                         _______ _______ _______ _____ _____    ______ ____
ROOT
ATOM      1  C   UNL     1      34.645 -17.504 -22.474  0.00  0.00    -0.066 C 
ATOM      2  C   UNL     1      34.884 -16.849 -21.114  0.00  0.00    -0.024 C 
ENDROOT
BRANCH   1   3
ATOM      3  N   UNL     1      35.686 -17.079 -23.412  0.00  0.00    +0.382 N 
ATOM      4  H   UNL     1      36.156 -16.251 -23.047  0.00  0.00    -0.089 HD
ATOM      5  H   UNL     1      35.262 -16.860 -24.314  0.00  0.00    -0.089 HD
ATOM      6  H   UNL     1      36.365 -17.831 -23.529  0.00  0.00    -0.089 HD
ENDBRANCH   1   3
BRANCH   1   7
ATOM      7  C   UNL     1      34.620 -19.036 -22.339  0.00  0.00    -0.022 C 
BRANCH   7   8
ATOM      8  C   UNL     1      34.614 -19.512 -20.880  0.00  0.00    -0.002 C 
BRANCH   8   9
ATOM      9  C   UNL     1      33.285 -20.181 -20.525  0.00  0.00    -0.000 C 
BRANCH   9  10
ATOM     10  C   UNL     1      33.443 -21.388 -19.596  0.00  0.00    -0.000 C 
ATOM     11  C   UNL     1      34.891 -21.758 -19.321  0.00  0.00    -0.000 C 
ENDBRANCH   9  10
ENDBRANCH   8   9
ENDBRANCH   7   8
ENDBRANCH   1   7
TORSDOF 5
ENDMDL
MODEL 3
REMARK VINA RESULT:      -4.8      1.194      1.816
REMARK  Name = 5603
REMARK  5 active torsions:
REMARK  status: ('A' for Active; 'I' for Inactive)
REMARK    1  A    between atoms: C_1  and  N_3
REMARK    2  A    between atoms: C_1  and  C_7
REMARK    3  A    between atoms: C_7  and  C_8
REMARK    4  A    between atoms: C_8  and  C_9
REMARK    5  A    between atoms: C_9  and  C_10
REMARK                            x       y       z     vdW  Elec       q    Type
REMARK                         _______ _______ _______ _____ _____    ______ ____
ROOT
ATOM      1  C   UNL     1      34.710 -17.878 -22.382  0.00  0.00    -0.066 C 
ATOM      2  C   UNL     1      35.009 -17.131 -21.083  0.00  0.00    -0.024 C 
ENDROOT
BRANCH   1   3
ATOM      3  N   UNL     1      35.765 -17.604 -23.359  0.00  0.00    +0.382 N 
ATOM      4  H   UNL     1      36.552 -18.233 -23.196  0.00  0.00    -0.089 HD
ATOM      5  H   UNL     1      36.076 -16.638 -23.262  0.00  0.00    -0.089 HD
ATOM      6  H   UNL     1      35.402 -17.752 -24.301  0.00  0.00    -0.089 HD
ENDBRANCH   1   3
BRANCH   1   7
ATOM      7  C   UNL     1      34.583 -19.388 -22.120  0.00  0.00    -0.022 C 
BRANCH   7   8
ATOM      8  C   UNL     1      33.520 -19.729 -21.067  0.00  0.00    -0.002 C 
BRANCH   8   9
ATOM      9  C   UNL     1      34.055 -20.742 -20.052  0.00  0.00    -0.000 C 
BRANCH   9  10
ATOM     10  C   UNL     1      35.580 -20.880 -20.078  0.00  0.00    -0.000 C 
ATOM     11  C   UNL     1      36.149 -21.569 -18.848  0.00  0.00    -0.000 C 
ENDBRANCH   9  10
ENDBRANCH   8   9
ENDBRANCH   7   8
ENDBRANCH   1   7
TORSDOF 5
ENDMDL
MODEL 4
REMARK VINA RESULT:      -4.7      3.150      4.996
REMARK  Name = 5603
REMARK  5 active torsions:
REMARK  status: ('A' for Active; 'I' for Inactive)
REMARK    1  A    between atoms: C_1  and  N_3
REMARK    2  A    between atoms: C_1  and  C_7
REMARK    3  A    between atoms: C_7  and  C_8
REMARK    4  A    between atoms: C_8  and  C_9
REMARK    5  A    between atoms: C_9  and  C_10
REMARK                            x       y       z     vdW  Elec       q    Type
REMARK                         _______ _______ _______ _____ _____    ______ ____
ROOT
ATOM      1  C   UNL     1      33.561 -21.918 -19.515  0.00  0.00    -0.066 C 
ATOM      2  C   UNL     1      34.991 -21.950 -18.978  0.00  0.00    -0.024 C 
ENDROOT
BRANCH   1   3
ATOM      3  N   UNL     1      32.625 -22.256 -18.441  0.00  0.00    +0.382 N 
ATOM      4  H   UNL     1      32.822 -21.678 -17.624  0.00  0.00    -0.089 HD
ATOM      5  H   UNL     1      32.731 -23.240 -18.195  0.00  0.00    -0.089 HD
ATOM      6  H   UNL     1      31.671 -22.085 -18.756  0.00  0.00    -0.089 HD
ENDBRANCH   1   3
BRANCH   1   7
ATOM      7  C   UNL     1      33.237 -20.537 -20.110  0.00  0.00    -0.022 C 
BRANCH   7   8
ATOM      8  C   UNL     1      34.457 -19.853 -20.741  0.00  0.00    -0.002 C 
BRANCH   8   9
ATOM      9  C   UNL     1      34.085 -18.485 -21.318  0.00  0.00    -0.000 C 
BRANCH   9  10
ATOM     10  C   UNL     1      35.194 -17.441 -21.168  0.00  0.00    -0.000 C 
ATOM     11  C   UNL     1      34.680 -16.055 -20.812  0.00  0.00    -0.000 C 
ENDBRANCH   9  10
ENDBRANCH   8   9
ENDBRANCH   7   8
ENDBRANCH   1   7
TORSDOF 5
ENDMDL
MODEL 5
REMARK VINA RESULT:      -4.6      2.572      4.832
REMARK  Name = 5603
REMARK  5 active torsions:
REMARK  status: ('A' for Active; 'I' for Inactive)
REMARK    1  A    between atoms: C_1  and  N_3
REMARK    2  A    between atoms: C_1  and  C_7
REMARK    3  A    between atoms: C_7  and  C_8
REMARK    4  A    between atoms: C_8  and  C_9
REMARK    5  A    between atoms: C_9  and  C_10
REMARK                            x       y       z     vdW  Elec       q    Type
REMARK                         _______ _______ _______ _____ _____    ______ ____
ROOT
ATOM      1  C   UNL     1      33.666 -21.085 -20.166  0.00  0.00    -0.066 C 
ATOM      2  C   UNL     1      35.060 -21.260 -19.566  0.00  0.00    -0.024 C 
ENDROOT
BRANCH   1   3
ATOM      3  N   UNL     1      32.656 -21.294 -19.128  0.00  0.00    +0.382 N 
ATOM      4  H   UNL     1      32.888 -22.129 -18.589  0.00  0.00    -0.089 HD
ATOM      5  H   UNL     1      31.741 -21.413 -19.562  0.00  0.00    -0.089 HD
ATOM      6  H   UNL     1      32.635 -20.485 -18.507  0.00  0.00    -0.089 HD
ENDBRANCH   1   3
BRANCH   1   7
ATOM      7  C   UNL     1      33.521 -19.692 -20.801  0.00  0.00    -0.022 C 
BRANCH   7   8
ATOM      8  C   UNL     1      34.824 -19.177 -21.427  0.00  0.00    -0.002 C 
BRANCH   8   9
ATOM      9  C   UNL     1      34.762 -19.235 -22.955  0.00  0.00    -0.000 C 
BRANCH   9  10
ATOM     10  C   UNL     1      34.949 -17.869 -23.621  0.00  0.00    -0.000 C 
ATOM     11  C   UNL     1      34.540 -17.847 -25.086  0.00  0.00    -0.000 C 
ENDBRANCH   9  10
ENDBRANCH   8   9
ENDBRANCH   7   8
ENDBRANCH   1   7
TORSDOF 5
ENDMDL
MODEL 6
REMARK VINA RESULT:      -4.6      2.073      4.679
REMARK  Name = 5603
REMARK  5 active torsions:
REMARK  status: ('A' for Active; 'I' for Inactive)
REMARK    1  A    between atoms: C_1  and  N_3
REMARK    2  A    between atoms: C_1  and  C_7
REMARK    3  A    between atoms: C_7  and  C_8
REMARK    4  A    between atoms: C_8  and  C_9
REMARK    5  A    between atoms: C_9  and  C_10
REMARK                            x       y       z     vdW  Elec       q    Type
REMARK                         _______ _______ _______ _____ _____    ______ ____
ROOT
ATOM      1  C   UNL     1      34.452 -19.343 -20.985  0.00  0.00    -0.066 C 
ATOM      2  C   UNL     1      33.174 -20.067 -20.562  0.00  0.00    -0.024 C 
ENDROOT
BRANCH   1   3
ATOM      3  N   UNL     1      35.601 -19.933 -20.296  0.00  0.00    +0.382 N 
ATOM      4  H   UNL     1      35.568 -20.949 -20.389  0.00  0.00    -0.089 HD
ATOM      5  H   UNL     1      35.572 -19.681 -19.308  0.00  0.00    -0.089 HD
ATOM      6  H   UNL     1      36.463 -19.582 -20.712  0.00  0.00    -0.089 HD
ENDBRANCH   1   3
BRANCH   1   7
ATOM      7  C   UNL     1      34.632 -19.412 -22.511  0.00  0.00    -0.022 C 
BRANCH   7   8
ATOM      8  C   UNL     1      35.625 -18.372 -23.047  0.00  0.00    -0.002 C 
BRANCH   8   9
ATOM      9  C   UNL     1      35.219 -16.957 -22.630  0.00  0.00    -0.000 C 
BRANCH   9  10
ATOM     10  C   UNL     1      34.863 -16.054 -23.814  0.00  0.00    -0.000 C 
ATOM     11  C   UNL     1      34.730 -16.803 -25.131  0.00  0.00    -0.000 C 
ENDBRANCH   9  10
ENDBRANCH   8   9
ENDBRANCH   7   8
ENDBRANCH   1   7
TORSDOF 5
ENDMDL
MODEL 7
REMARK VINA RESULT:      -4.6      1.427      2.014
REMARK  Name = 5603
REMARK  5 active torsions:
REMARK  status: ('A' for Active; 'I' for Inactive)
REMARK    1  A    between atoms: C_1  and  N_3
REMARK    2  A    between atoms: C_1  and  C_7
REMARK    3  A    between atoms: C_7  and  C_8
REMARK    4  A    between atoms: C_8  and  C_9
REMARK    5  A    between atoms: C_9  and  C_10
REMARK                            x       y       z     vdW  Elec       q    Type
REMARK                         _______ _______ _______ _____ _____    ______ ____
ROOT
ATOM      1  C   UNL     1      34.640 -16.735 -23.420  0.00  0.00    -0.066 C 
ATOM      2  C   UNL     1      34.608 -15.253 -23.050  0.00  0.00    -0.024 C 
ENDROOT
BRANCH   1   3
ATOM      3  N   UNL     1      35.163 -16.890 -24.779  0.00  0.00    +0.382 N 
ATOM      4  H   UNL     1      34.403 -17.152 -25.408  0.00  0.00    -0.089 HD
ATOM      5  H   UNL     1      35.878 -17.617 -24.787  0.00  0.00    -0.089 HD
ATOM      6  H   UNL     1      35.571 -16.008 -25.088  0.00  0.00    -0.089 HD
ENDBRANCH   1   3
BRANCH   1   7
ATOM      7  C   UNL     1      35.490 -17.526 -22.411  0.00  0.00    -0.022 C 
BRANCH   7   8
ATOM      8  C   UNL     1      34.672 -18.073 -21.234  0.00  0.00    -0.002 C 
BRANCH   8   9
ATOM      9  C   UNL     1      34.234 -19.517 -21.491  0.00  0.00    -0.000 C 
BRANCH   9  10
ATOM     10  C   UNL     1      33.038 -19.949 -20.638  0.00  0.00    -0.000 C 
ATOM     11  C   UNL     1      33.340 -21.124 -19.720  0.00  0.00    -0.000 C 
ENDBRANCH   9  10
ENDBRANCH   8   9
ENDBRANCH   7   8
ENDBRANCH   1   7
TORSDOF 5
ENDMDL
MODEL 8
REMARK VINA RESULT:      -4.5      1.492      2.058
REMARK  Name = 5603
REMARK  5 active torsions:
REMARK  status: ('A' for Active; 'I' for Inactive)
REMARK    1  A    between atoms: C_1  and  N_3
REMARK    2  A    between atoms: C_1  and  C_7
REMARK    3  A    between atoms: C_7  and  C_8
REMARK    4  A    between atoms: C_8  and  C_9
REMARK    5  A    between atoms: C_9  and  C_10
REMARK                            x       y       z     vdW  Elec       q    Type
REMARK                         _______ _______ _______ _____ _____    ______ ____
ROOT
ATOM      1  C   UNL     1      35.564 -18.615 -21.622  0.00  0.00    -0.066 C 
ATOM      2  C   UNL     1      34.965 -18.429 -23.016  0.00  0.00    -0.024 C 
ENDROOT
BRANCH   1   3
ATOM      3  N   UNL     1      35.242 -17.453 -20.792  0.00  0.00    +0.382 N 
ATOM      4  H   UNL     1      34.419 -17.658 -20.224  0.00  0.00    -0.089 HD
ATOM      5  H   UNL     1      35.050 -16.649 -21.390  0.00  0.00    -0.089 HD
ATOM      6  H   UNL     1      36.031 -17.243 -20.182  0.00  0.00    -0.089 HD
ENDBRANCH   1   3
BRANCH   1   7
ATOM      7  C   UNL     1      35.045 -19.911 -20.979  0.00  0.00    -0.022 C 
BRANCH   7   8
ATOM      8  C   UNL     1      36.100 -20.622 -20.121  0.00  0.00    -0.002 C 
BRANCH   8   9
ATOM      9  C   UNL     1      35.495 -21.817 -19.380  0.00  0.00    -0.000 C 
BRANCH   9  10
ATOM     10  C   UNL     1      33.964 -21.795 -19.343  0.00  0.00    -0.000 C 
ATOM     11  C   UNL     1      33.371 -22.667 -18.247  0.00  0.00    -0.000 C 
ENDBRANCH   9  10
ENDBRANCH   8   9
ENDBRANCH   7   8
ENDBRANCH   1   7
TORSDOF 5
ENDMDL
MODEL 9
REMARK VINA RESULT:      -4.5      2.029      3.077
REMARK  Name = 5603
REMARK  5 active torsions:
REMARK  status: ('A' for Active; 'I' for Inactive)
REMARK    1  A    between atoms: C_1  and  N_3
REMARK    2  A    between atoms: C_1  and  C_7
REMARK    3  A    between atoms: C_7  and  C_8
REMARK    4  A    between atoms: C_8  and  C_9
REMARK    5  A    between atoms: C_9  and  C_10
REMARK                            x       y       z     vdW  Elec       q    Type
REMARK                         _______ _______ _______ _____ _____    ______ ____
ROOT
ATOM      1  C   UNL     1      33.725 -15.784 -21.733  0.00  0.00    -0.066 C 
ATOM      2  C   UNL     1      32.884 -15.213 -20.591  0.00  0.00    -0.024 C 
ENDROOT
BRANCH   1   3
ATOM      3  N   UNL     1      34.442 -14.699 -22.404  0.00  0.00    +0.382 N 
ATOM      4  H   UNL     1      35.256 -14.435 -21.850  0.00  0.00    -0.089 HD
ATOM      5  H   UNL     1      33.824 -13.894 -22.506  0.00  0.00    -0.089 HD
ATOM      6  H   UNL     1      34.746 -15.012 -23.326  0.00  0.00    -0.089 HD
ENDBRANCH   1   3
BRANCH   1   7
ATOM      7  C   UNL     1      34.705 -16.845 -21.204  0.00  0.00    -0.022 C 
BRANCH   7   8
ATOM      8  C   UNL     1      35.245 -17.767 -22.305  0.00  0.00    -0.002 C 
BRANCH   8   9
ATOM      9  C   UNL     1      34.578 -19.143 -22.248  0.00  0.00    -0.000 C 
BRANCH   9  10
ATOM     10  C   UNL     1      34.312 -19.630 -20.821  0.00  0.00    -0.000 C 
ATOM     11  C   UNL     1      32.874 -20.063 -20.585  0.00  0.00    -0.000 C 
ENDBRANCH   9  10
ENDBRANCH   8   9
ENDBRANCH   7   8
ENDBRANCH   1   7
TORSDOF 5
ENDMDL
