MODEL 1
REMARK VINA RESULT:      -9.1      0.000      0.000
REMARK  Name = 46700756
REMARK  8 active torsions:
REMARK  status: ('A' for Active; 'I' for Inactive)
REMARK    1  A    between atoms: C_1  and  C_12
REMARK    2  A    between atoms: C_2  and  O_25
REMARK    3  A    between atoms: C_3  and  O_23
REMARK    4  A    between atoms: C_18  and  C_22
REMARK    5  A    between atoms: O_25  and  C_26
REMARK    6  A    between atoms: C_26  and  C_27
REMARK    7  A    between atoms: C_27  and  C_28
REMARK    8  A    between atoms: C_28  and  N_29
REMARK                            x       y       z     vdW  Elec       q    Type
REMARK                         _______ _______ _______ _____ _____    ______ ____
ROOT
ATOM      1  C   UNL     1      34.985 -18.120 -22.677  0.00  0.00    +0.083 C 
ATOM      2  C   UNL     1      34.833 -16.743 -22.505  0.00  0.00    +0.143 C 
ATOM      3  C   UNL     1      34.840 -18.684 -23.944  0.00  0.00    +0.143 C 
ATOM      4  C   UNL     1      34.536 -15.932 -23.600  0.00  0.00    +0.037 C 
ATOM      5  C   UNL     1      34.544 -17.873 -25.039  0.00  0.00    +0.037 C 
ATOM      6  C   UNL     1      34.392 -16.497 -24.867  0.00  0.00    +0.006 C 
ENDROOT
BRANCH   1  12
ATOM      7  N   UNL     1      36.479 -18.895 -20.869  0.00  0.00    -0.235 N 
ATOM      8  N   UNL     1      36.569 -19.757 -19.842  0.00  0.00    -0.166 NA
ATOM      9  N   UNL     1      34.991 -21.365 -19.017  0.00  0.00    -0.284 N 
ATOM     10  N   UNL     1      34.920 -22.988 -17.230  0.00  0.00    -0.251 NA
ATOM     11  N   UNL     1      37.511 -22.221 -16.475  0.00  0.00    -0.255 NA
ATOM     12  C   UNL     1      35.293 -18.961 -21.540  0.00  0.00    +0.074 C 
ATOM     13  C   UNL     1      34.557 -19.932 -20.907  0.00  0.00    +0.052 C 
ATOM     14  C   UNL     1      35.392 -20.388 -19.869  0.00  0.00    +0.152 C 
ATOM     15  C   UNL     1      35.600 -22.028 -17.887  0.00  0.00    +0.130 C 
ATOM     16  C   UNL     1      36.873 -21.651 -17.516  0.00  0.00    +0.186 C 
ATOM     17  C   UNL     1      35.558 -23.557 -16.188  0.00  0.00    +0.182 C 
ATOM     18  C   UNL     1      36.831 -23.181 -15.818  0.00  0.00    +0.147 C 
ATOM     19  H   UNL     1      37.202 -18.275 -21.116  0.00  0.00    +0.174 HD
ATOM     20  H   UNL     1      34.084 -21.694 -19.212  0.00  0.00    +0.155 HD
BRANCH  18  22
ATOM     21  N   UNL     1      38.065 -24.263 -13.822  0.00  0.00    -0.190 NA
ATOM     22  C   UNL     1      37.511 -23.776 -14.718  0.00  0.00    +0.117 C 
ENDBRANCH  18  22
ENDBRANCH   1  12
BRANCH   3  23
ATOM     23  O   UNL     1      34.983 -20.027 -24.143  0.00  0.00    -0.471 OA
ATOM     24  C   UNL     1      34.975 -20.484 -25.493  0.00  0.00    +0.252 C 
ENDBRANCH   3  23
BRANCH   2  25
ATOM     25  O   UNL     1      34.968 -16.160 -21.272  0.00  0.00    -0.475 OA
BRANCH  25  26
ATOM     26  C   UNL     1      34.507 -14.822 -21.142  0.00  0.00    +0.203 C 
BRANCH  26  27
ATOM     27  C   UNL     1      33.076 -14.843 -20.620  0.00  0.00    +0.023 C 
BRANCH  27  28
ATOM     28  C   UNL     1      32.367 -13.517 -20.876  0.00  0.00    -0.082 C 
BRANCH  28  29
ATOM     29  N   UNL     1      32.054 -13.377 -22.293  0.00  0.00    +0.381 N 
ATOM     30  H   UNL     1      32.623 -14.030 -22.833  0.00  0.00    -0.089 HD
ATOM     31  H   UNL     1      32.253 -12.423 -22.593  0.00  0.00    -0.089 HD
ATOM     32  H   UNL     1      31.066 -13.582 -22.445  0.00  0.00    -0.089 HD
ENDBRANCH  28  29
ENDBRANCH  27  28
ENDBRANCH  26  27
ENDBRANCH  25  26
ENDBRANCH   2  25
TORSDOF 8
ENDMDL
MODEL 2
REMARK VINA RESULT:      -8.9      3.941      9.904
REMARK  Name = 46700756
REMARK  8 active torsions:
REMARK  status: ('A' for Active; 'I' for Inactive)
REMARK    1  A    between atoms: C_1  and  C_12
REMARK    2  A    between atoms: C_2  and  O_25
REMARK    3  A    between atoms: C_3  and  O_23
REMARK    4  A    between atoms: C_18  and  C_22
REMARK    5  A    between atoms: O_25  and  C_26
REMARK    6  A    between atoms: C_26  and  C_27
REMARK    7  A    between atoms: C_27  and  C_28
REMARK    8  A    between atoms: C_28  and  N_29
REMARK                            x       y       z     vdW  Elec       q    Type
REMARK                         _______ _______ _______ _____ _____    ______ ____
ROOT
ATOM      1  C   UNL     1      36.684 -23.882 -14.464  0.00  0.00    +0.083 C 
ATOM      2  C   UNL     1      35.653 -24.017 -13.532  0.00  0.00    +0.143 C 
ATOM      3  C   UNL     1      37.930 -24.455 -14.212  0.00  0.00    +0.143 C 
ATOM      4  C   UNL     1      35.870 -24.725 -12.350  0.00  0.00    +0.037 C 
ATOM      5  C   UNL     1      38.147 -25.163 -13.030  0.00  0.00    +0.037 C 
ATOM      6  C   UNL     1      37.117 -25.298 -12.099  0.00  0.00    +0.006 C 
ENDROOT
BRANCH   1  12
ATOM      7  N   UNL     1      35.350 -23.323 -16.466  0.00  0.00    -0.235 N 
ATOM      8  N   UNL     1      35.325 -22.545 -17.562  0.00  0.00    -0.166 NA
ATOM      9  N   UNL     1      36.905 -20.920 -18.350  0.00  0.00    -0.284 N 
ATOM     10  N   UNL     1      37.083 -19.429 -20.242  0.00  0.00    -0.251 NA
ATOM     11  N   UNL     1      34.622 -20.388 -21.187  0.00  0.00    -0.255 NA
ATOM     12  C   UNL     1      36.458 -23.148 -15.690  0.00  0.00    +0.074 C 
ATOM     13  C   UNL     1      37.210 -22.189 -16.322  0.00  0.00    +0.052 C 
ATOM     14  C   UNL     1      36.465 -21.854 -17.469  0.00  0.00    +0.152 C 
ATOM     15  C   UNL     1      36.384 -20.375 -19.582  0.00  0.00    +0.130 C 
ATOM     16  C   UNL     1      35.175 -20.845 -20.046  0.00  0.00    +0.186 C 
ATOM     17  C   UNL     1      36.529 -18.972 -21.382  0.00  0.00    +0.182 C 
ATOM     18  C   UNL     1      35.321 -19.444 -21.847  0.00  0.00    +0.147 C 
ATOM     19  H   UNL     1      34.634 -23.961 -16.243  0.00  0.00    +0.174 HD
ATOM     20  H   UNL     1      37.770 -20.528 -18.092  0.00  0.00    +0.155 HD
BRANCH  18  22
ATOM     21  N   UNL     1      34.247 -18.575 -24.031  0.00  0.00    -0.190 NA
ATOM     22  C   UNL     1      34.728 -18.965 -23.049  0.00  0.00    +0.117 C 
ENDBRANCH  18  22
ENDBRANCH   1  12
BRANCH   3  23
ATOM     23  O   UNL     1      38.957 -24.339 -15.104  0.00  0.00    -0.471 OA
ATOM     24  C   UNL     1      40.005 -25.300 -15.010  0.00  0.00    +0.252 C 
ENDBRANCH   3  23
BRANCH   2  25
ATOM     25  O   UNL     1      34.418 -23.465 -13.750  0.00  0.00    -0.475 OA
BRANCH  25  26
ATOM     26  C   UNL     1      33.305 -24.347 -13.707  0.00  0.00    +0.203 C 
BRANCH  26  27
ATOM     27  C   UNL     1      32.170 -23.750 -14.529  0.00  0.00    +0.023 C 
BRANCH  27  28
ATOM     28  C   UNL     1      30.875 -23.682 -13.727  0.00  0.00    -0.082 C 
BRANCH  28  29
ATOM     29  N   UNL     1      30.511 -25.007 -13.239  0.00  0.00    +0.381 N 
ATOM     30  H   UNL     1      30.831 -25.713 -13.903  0.00  0.00    -0.089 HD
ATOM     31  H   UNL     1      29.498 -25.067 -13.140  0.00  0.00    -0.089 HD
ATOM     32  H   UNL     1      30.952 -25.168 -12.334  0.00  0.00    -0.089 HD
ENDBRANCH  28  29
ENDBRANCH  27  28
ENDBRANCH  26  27
ENDBRANCH  25  26
ENDBRANCH   2  25
TORSDOF 8
ENDMDL
MODEL 3
REMARK VINA RESULT:      -8.9      6.094     10.352
REMARK  Name = 46700756
REMARK  8 active torsions:
REMARK  status: ('A' for Active; 'I' for Inactive)
REMARK    1  A    between atoms: C_1  and  C_12
REMARK    2  A    between atoms: C_2  and  O_25
REMARK    3  A    between atoms: C_3  and  O_23
REMARK    4  A    between atoms: C_18  and  C_22
REMARK    5  A    between atoms: O_25  and  C_26
REMARK    6  A    between atoms: C_26  and  C_27
REMARK    7  A    between atoms: C_27  and  C_28
REMARK    8  A    between atoms: C_28  and  N_29
REMARK                            x       y       z     vdW  Elec       q    Type
REMARK                         _______ _______ _______ _____ _____    ______ ____
ROOT
ATOM      1  C   UNL     1      36.036 -24.303 -13.771  0.00  0.00    +0.083 C 
ATOM      2  C   UNL     1      37.142 -24.148 -14.609  0.00  0.00    +0.143 C 
ATOM      3  C   UNL     1      36.214 -24.718 -12.452  0.00  0.00    +0.143 C 
ATOM      4  C   UNL     1      38.425 -24.407 -14.125  0.00  0.00    +0.037 C 
ATOM      5  C   UNL     1      37.496 -24.977 -11.969  0.00  0.00    +0.037 C 
ATOM      6  C   UNL     1      38.602 -24.822 -12.805  0.00  0.00    +0.006 C 
ENDROOT
BRANCH   1  12
ATOM      7  N   UNL     1      34.366 -22.860 -14.878  0.00  0.00    -0.235 N 
ATOM      8  N   UNL     1      33.083 -22.806 -15.276  0.00  0.00    -0.166 NA
ATOM      9  N   UNL     1      31.329 -24.432 -15.093  0.00  0.00    -0.284 N 
ATOM     10  N   UNL     1      29.000 -24.570 -15.718  0.00  0.00    -0.251 NA
ATOM     11  N   UNL     1      29.165 -21.978 -16.777  0.00  0.00    -0.255 NA
ATOM     12  C   UNL     1      34.706 -24.034 -14.273  0.00  0.00    +0.074 C 
ATOM     13  C   UNL     1      33.568 -24.801 -14.277  0.00  0.00    +0.052 C 
ATOM     14  C   UNL     1      32.600 -23.995 -14.906  0.00  0.00    +0.152 C 
ATOM     15  C   UNL     1      30.144 -23.858 -15.686  0.00  0.00    +0.130 C 
ATOM     16  C   UNL     1      30.225 -22.585 -16.207  0.00  0.00    +0.186 C 
ATOM     17  C   UNL     1      27.940 -23.963 -16.288  0.00  0.00    +0.182 C 
ATOM     18  C   UNL     1      28.021 -22.690 -16.808  0.00  0.00    +0.147 C 
ATOM     19  H   UNL     1      35.001 -22.119 -15.009  0.00  0.00    +0.174 HD
ATOM     20  H   UNL     1      31.182 -25.342 -14.748  0.00  0.00    +0.155 HD
BRANCH  18  22
ATOM     21  N   UNL     1      26.000 -21.514 -17.908  0.00  0.00    -0.190 NA
ATOM     22  C   UNL     1      26.907 -22.043 -17.413  0.00  0.00    +0.117 C 
ENDBRANCH  18  22
ENDBRANCH   1  12
BRANCH   3  23
ATOM     23  O   UNL     1      35.152 -24.879 -11.610  0.00  0.00    -0.471 OA
ATOM     24  C   UNL     1      35.366 -24.574 -10.234  0.00  0.00    +0.252 C 
ENDBRANCH   3  23
BRANCH   2  25
ATOM     25  O   UNL     1      37.000 -23.743 -15.910  0.00  0.00    -0.475 OA
BRANCH  25  26
ATOM     26  C   UNL     1      37.836 -22.679 -16.345  0.00  0.00    +0.203 C 
BRANCH  26  27
ATOM     27  C   UNL     1      36.960 -21.532 -16.833  0.00  0.00    +0.023 C 
BRANCH  27  28
ATOM     28  C   UNL     1      36.401 -21.808 -18.225  0.00  0.00    -0.082 C 
BRANCH  28  29
ATOM     29  N   UNL     1      35.046 -22.337 -18.129  0.00  0.00    +0.381 N 
ATOM     30  H   UNL     1      34.533 -21.829 -17.408  0.00  0.00    -0.089 HD
ATOM     31  H   UNL     1      35.083 -23.327 -17.886  0.00  0.00    -0.089 HD
ATOM     32  H   UNL     1      34.573 -22.225 -19.025  0.00  0.00    -0.089 HD
ENDBRANCH  28  29
ENDBRANCH  27  28
ENDBRANCH  26  27
ENDBRANCH  25  26
ENDBRANCH   2  25
TORSDOF 8
ENDMDL
MODEL 4
REMARK VINA RESULT:      -8.6      3.574      6.520
REMARK  Name = 46700756
REMARK  8 active torsions:
REMARK  status: ('A' for Active; 'I' for Inactive)
REMARK    1  A    between atoms: C_1  and  C_12
REMARK    2  A    between atoms: C_2  and  O_25
REMARK    3  A    between atoms: C_3  and  O_23
REMARK    4  A    between atoms: C_18  and  C_22
REMARK    5  A    between atoms: O_25  and  C_26
REMARK    6  A    between atoms: C_26  and  C_27
REMARK    7  A    between atoms: C_27  and  C_28
REMARK    8  A    between atoms: C_28  and  N_29
REMARK                            x       y       z     vdW  Elec       q    Type
REMARK                         _______ _______ _______ _____ _____    ______ ____
ROOT
ATOM      1  C   UNL     1      32.763 -12.311 -22.518  0.00  0.00    +0.083 C 
ATOM      2  C   UNL     1      33.203 -11.821 -23.749  0.00  0.00    +0.143 C 
ATOM      3  C   UNL     1      32.061 -11.478 -21.647  0.00  0.00    +0.143 C 
ATOM      4  C   UNL     1      32.940 -10.499 -24.108  0.00  0.00    +0.037 C 
ATOM      5  C   UNL     1      31.799 -10.156 -22.006  0.00  0.00    +0.037 C 
ATOM      6  C   UNL     1      32.239  -9.666 -23.235  0.00  0.00    +0.006 C 
ENDROOT
BRANCH   1  12
ATOM      7  N   UNL     1      32.057 -14.557 -21.770  0.00  0.00    -0.235 N 
ATOM      8  N   UNL     1      32.513 -15.784 -21.467  0.00  0.00    -0.166 NA
ATOM      9  N   UNL     1      34.746 -16.662 -21.487  0.00  0.00    -0.284 N 
ATOM     10  N   UNL     1      35.797 -18.780 -20.998  0.00  0.00    -0.251 NA
ATOM     11  N   UNL     1      33.279 -19.846 -20.370  0.00  0.00    -0.255 NA
ATOM     12  C   UNL     1      33.035 -13.682 -22.147  0.00  0.00    +0.074 C 
ATOM     13  C   UNL     1      34.211 -14.387 -22.085  0.00  0.00    +0.052 C 
ATOM     14  C   UNL     1      33.830 -15.675 -21.661  0.00  0.00    +0.152 C 
ATOM     15  C   UNL     1      34.671 -18.043 -21.072  0.00  0.00    +0.130 C 
ATOM     16  C   UNL     1      33.435 -18.567 -20.765  0.00  0.00    +0.186 C 
ATOM     17  C   UNL     1      35.642 -20.059 -20.603  0.00  0.00    +0.182 C 
ATOM     18  C   UNL     1      34.405 -20.583 -20.294  0.00  0.00    +0.147 C 
ATOM     19  H   UNL     1      31.105 -14.310 -21.724  0.00  0.00    +0.174 HD
ATOM     20  H   UNL     1      35.665 -16.370 -21.688  0.00  0.00    +0.155 HD
BRANCH  18  22
ATOM     21  N   UNL     1      34.091 -23.034 -19.538  0.00  0.00    -0.190 NA
ATOM     22  C   UNL     1      34.233 -21.933 -19.878  0.00  0.00    +0.117 C 
ENDBRANCH  18  22
ENDBRANCH   1  12
BRANCH   3  23
ATOM     23  O   UNL     1      31.619 -11.928 -20.437  0.00  0.00    -0.471 OA
ATOM     24  C   UNL     1      31.383 -10.947 -19.430  0.00  0.00    +0.252 C 
ENDBRANCH   3  23
BRANCH   2  25
ATOM     25  O   UNL     1      33.895 -12.615 -24.626  0.00  0.00    -0.475 OA
BRANCH  25  26
ATOM     26  C   UNL     1      33.839 -12.253 -25.998  0.00  0.00    +0.203 C 
BRANCH  26  27
ATOM     27  C   UNL     1      33.454 -13.479 -26.816  0.00  0.00    +0.023 C 
BRANCH  27  28
ATOM     28  C   UNL     1      32.742 -14.522 -25.961  0.00  0.00    -0.082 C 
BRANCH  28  29
ATOM     29  N   UNL     1      33.686 -15.538 -25.511  0.00  0.00    +0.381 N 
ATOM     30  H   UNL     1      34.272 -15.828 -26.295  0.00  0.00    -0.089 HD
ATOM     31  H   UNL     1      33.174 -16.344 -25.153  0.00  0.00    -0.089 HD
ATOM     32  H   UNL     1      34.274 -15.153 -24.773  0.00  0.00    -0.089 HD
ENDBRANCH  28  29
ENDBRANCH  27  28
ENDBRANCH  26  27
ENDBRANCH  25  26
ENDBRANCH   2  25
TORSDOF 8
ENDMDL
MODEL 5
REMARK VINA RESULT:      -8.5      3.506      9.501
REMARK  Name = 46700756
REMARK  8 active torsions:
REMARK  status: ('A' for Active; 'I' for Inactive)
REMARK    1  A    between atoms: C_1  and  C_12
REMARK    2  A    between atoms: C_2  and  O_25
REMARK    3  A    between atoms: C_3  and  O_23
REMARK    4  A    between atoms: C_18  and  C_22
REMARK    5  A    between atoms: O_25  and  C_26
REMARK    6  A    between atoms: C_26  and  C_27
REMARK    7  A    between atoms: C_27  and  C_28
REMARK    8  A    between atoms: C_28  and  N_29
REMARK                            x       y       z     vdW  Elec       q    Type
REMARK                         _______ _______ _______ _____ _____    ______ ____
ROOT
ATOM      1  C   UNL     1      33.315 -23.220 -16.611  0.00  0.00    +0.083 C 
ATOM      2  C   UNL     1      34.356 -23.825 -15.906  0.00  0.00    +0.143 C 
ATOM      3  C   UNL     1      31.995 -23.410 -16.203  0.00  0.00    +0.143 C 
ATOM      4  C   UNL     1      34.077 -24.618 -14.792  0.00  0.00    +0.037 C 
ATOM      5  C   UNL     1      31.715 -24.203 -15.091  0.00  0.00    +0.037 C 
ATOM      6  C   UNL     1      32.756 -24.807 -14.385  0.00  0.00    +0.006 C 
ENDROOT
BRANCH   1  12
ATOM      7  N   UNL     1      32.669 -22.085 -18.707  0.00  0.00    -0.235 N 
ATOM      8  N   UNL     1      33.135 -21.308 -19.700  0.00  0.00    -0.166 NA
ATOM      9  N   UNL     1      35.326 -20.400 -20.064  0.00  0.00    -0.284 N 
ATOM     10  N   UNL     1      36.388 -19.009 -21.729  0.00  0.00    -0.251 NA
ATOM     11  N   UNL     1      33.956 -18.875 -23.120  0.00  0.00    -0.255 NA
ATOM     12  C   UNL     1      33.605 -22.398 -17.765  0.00  0.00    +0.074 C 
ATOM     13  C   UNL     1      34.764 -21.783 -18.171  0.00  0.00    +0.052 C 
ATOM     14  C   UNL     1      34.416 -21.127 -19.367  0.00  0.00    +0.152 C 
ATOM     15  C   UNL     1      35.278 -19.634 -21.288  0.00  0.00    +0.130 C 
ATOM     16  C   UNL     1      34.083 -19.567 -21.971  0.00  0.00    +0.186 C 
ATOM     17  C   UNL     1      36.260 -18.316 -22.877  0.00  0.00    +0.182 C 
ATOM     18  C   UNL     1      35.065 -18.250 -23.561  0.00  0.00    +0.147 C 
ATOM     19  H   UNL     1      31.737 -22.400 -18.664  0.00  0.00    +0.174 HD
ATOM     20  H   UNL     1      36.215 -20.393 -19.642  0.00  0.00    +0.155 HD
BRANCH  18  22
ATOM     21  N   UNL     1      34.805 -16.921 -25.762  0.00  0.00    -0.190 NA
ATOM     22  C   UNL     1      34.922 -17.519 -24.774  0.00  0.00    +0.117 C 
ENDBRANCH  18  22
ENDBRANCH   1  12
BRANCH   3  23
ATOM     23  O   UNL     1      30.955 -22.833 -16.873  0.00  0.00    -0.471 OA
ATOM     24  C   UNL     1      29.644 -23.093 -16.379  0.00  0.00    +0.252 C 
ENDBRANCH   3  23
BRANCH   2  25
ATOM     25  O   UNL     1      35.663 -23.658 -16.282  0.00  0.00    -0.475 OA
BRANCH  25  26
ATOM     26  C   UNL     1      36.530 -23.048 -15.335  0.00  0.00    +0.203 C 
BRANCH  26  27
ATOM     27  C   UNL     1      37.921 -23.652 -15.480  0.00  0.00    +0.023 C 
BRANCH  27  28
ATOM     28  C   UNL     1      38.063 -24.932 -14.663  0.00  0.00    -0.082 C 
BRANCH  28  29
ATOM     29  N   UNL     1      37.382 -26.036 -15.328  0.00  0.00    +0.381 N 
ATOM     30  H   UNL     1      37.980 -26.409 -16.066  0.00  0.00    -0.089 HD
ATOM     31  H   UNL     1      36.508 -25.701 -15.735  0.00  0.00    -0.089 HD
ATOM     32  H   UNL     1      37.182 -26.770 -14.650  0.00  0.00    -0.089 HD
ENDBRANCH  28  29
ENDBRANCH  27  28
ENDBRANCH  26  27
ENDBRANCH  25  26
ENDBRANCH   2  25
TORSDOF 8
ENDMDL
MODEL 6
REMARK VINA RESULT:      -8.2      6.210     10.753
REMARK  Name = 46700756
REMARK  8 active torsions:
REMARK  status: ('A' for Active; 'I' for Inactive)
REMARK    1  A    between atoms: C_1  and  C_12
REMARK    2  A    between atoms: C_2  and  O_25
REMARK    3  A    between atoms: C_3  and  O_23
REMARK    4  A    between atoms: C_18  and  C_22
REMARK    5  A    between atoms: O_25  and  C_26
REMARK    6  A    between atoms: C_26  and  C_27
REMARK    7  A    between atoms: C_27  and  C_28
REMARK    8  A    between atoms: C_28  and  N_29
REMARK                            x       y       z     vdW  Elec       q    Type
REMARK                         _______ _______ _______ _____ _____    ______ ____
ROOT
ATOM      1  C   UNL     1      33.953 -15.887 -23.454  0.00  0.00    +0.083 C 
ATOM      2  C   UNL     1      34.237 -16.447 -24.701  0.00  0.00    +0.143 C 
ATOM      3  C   UNL     1      34.037 -16.671 -22.303  0.00  0.00    +0.143 C 
ATOM      4  C   UNL     1      34.604 -17.790 -24.796  0.00  0.00    +0.037 C 
ATOM      5  C   UNL     1      34.403 -18.013 -22.398  0.00  0.00    +0.037 C 
ATOM      6  C   UNL     1      34.686 -18.573 -23.644  0.00  0.00    +0.006 C 
ENDROOT
BRANCH   1  12
ATOM      7  N   UNL     1      32.386 -14.086 -22.823  0.00  0.00    -0.235 N 
ATOM      8  N   UNL     1      32.222 -12.752 -22.821  0.00  0.00    -0.166 NA
ATOM      9  N   UNL     1      33.674 -11.006 -23.595  0.00  0.00    -0.284 N 
ATOM     10  N   UNL     1      33.609  -8.594 -23.697  0.00  0.00    -0.251 NA
ATOM     11  N   UNL     1      31.068  -8.646 -22.509  0.00  0.00    -0.255 NA
ATOM     12  C   UNL     1      33.573 -14.495 -23.356  0.00  0.00    +0.074 C 
ATOM     13  C   UNL     1      34.231 -13.348 -23.728  0.00  0.00    +0.052 C 
ATOM     14  C   UNL     1      33.353 -12.306 -23.375  0.00  0.00    +0.152 C 
ATOM     15  C   UNL     1      33.005  -9.749 -23.353  0.00  0.00    +0.130 C 
ATOM     16  C   UNL     1      31.758  -9.774 -22.769  0.00  0.00    +0.186 C 
ATOM     17  C   UNL     1      32.919  -7.466 -23.438  0.00  0.00    +0.182 C 
ATOM     18  C   UNL     1      31.671  -7.491 -22.855  0.00  0.00    +0.147 C 
ATOM     19  H   UNL     1      31.711 -14.711 -22.473  0.00  0.00    +0.174 HD
ATOM     20  H   UNL     1      34.558 -10.896 -24.014  0.00  0.00    +0.155 HD
BRANCH  18  22
ATOM     21  N   UNL     1      30.340  -5.335 -22.348  0.00  0.00    -0.190 NA
ATOM     22  C   UNL     1      30.937  -6.304 -22.576  0.00  0.00    +0.117 C 
ENDBRANCH  18  22
ENDBRANCH   1  12
BRANCH   3  23
ATOM     23  O   UNL     1      33.765 -16.152 -21.071  0.00  0.00    -0.471 OA
ATOM     24  C   UNL     1      34.872 -15.661 -20.319  0.00  0.00    +0.252 C 
ENDBRANCH   3  23
BRANCH   2  25
ATOM     25  O   UNL     1      34.163 -15.703 -25.849  0.00  0.00    -0.475 OA
BRANCH  25  26
ATOM     26  C   UNL     1      32.898 -15.646 -26.495  0.00  0.00    +0.203 C 
BRANCH  26  27
ATOM     27  C   UNL     1      32.532 -14.186 -26.732  0.00  0.00    +0.023 C 
BRANCH  27  28
ATOM     28  C   UNL     1      33.656 -13.434 -27.436  0.00  0.00    -0.082 C 
BRANCH  28  29
ATOM     29  N   UNL     1      33.797 -12.095 -26.876  0.00  0.00    +0.381 N 
ATOM     30  H   UNL     1      33.475 -11.407 -27.557  0.00  0.00    -0.089 HD
ATOM     31  H   UNL     1      34.777 -11.921 -26.654  0.00  0.00    -0.089 HD
ATOM     32  H   UNL     1      33.237 -12.021 -26.027  0.00  0.00    -0.089 HD
ENDBRANCH  28  29
ENDBRANCH  27  28
ENDBRANCH  26  27
ENDBRANCH  25  26
ENDBRANCH   2  25
TORSDOF 8
ENDMDL
MODEL 7
REMARK VINA RESULT:      -8.2      3.561      5.980
REMARK  Name = 46700756
REMARK  8 active torsions:
REMARK  status: ('A' for Active; 'I' for Inactive)
REMARK    1  A    between atoms: C_1  and  C_12
REMARK    2  A    between atoms: C_2  and  O_25
REMARK    3  A    between atoms: C_3  and  O_23
REMARK    4  A    between atoms: C_18  and  C_22
REMARK    5  A    between atoms: O_25  and  C_26
REMARK    6  A    between atoms: C_26  and  C_27
REMARK    7  A    between atoms: C_27  and  C_28
REMARK    8  A    between atoms: C_28  and  N_29
REMARK                            x       y       z     vdW  Elec       q    Type
REMARK                         _______ _______ _______ _____ _____    ______ ____
ROOT
ATOM      1  C   UNL     1      33.115 -12.385 -23.073  0.00  0.00    +0.083 C 
ATOM      2  C   UNL     1      32.449 -11.457 -22.270  0.00  0.00    +0.143 C 
ATOM      3  C   UNL     1      33.584 -12.007 -24.331  0.00  0.00    +0.143 C 
ATOM      4  C   UNL     1      32.255 -10.153 -22.725  0.00  0.00    +0.037 C 
ATOM      5  C   UNL     1      33.389 -10.703 -24.786  0.00  0.00    +0.037 C 
ATOM      6  C   UNL     1      32.724  -9.776 -23.984  0.00  0.00    +0.006 C 
ENDROOT
BRANCH   1  12
ATOM      7  N   UNL     1      32.288 -14.561 -22.251  0.00  0.00    -0.235 N 
ATOM      8  N   UNL     1      32.683 -15.778 -21.839  0.00  0.00    -0.166 NA
ATOM      9  N   UNL     1      34.884 -16.711 -21.631  0.00  0.00    -0.284 N 
ATOM     10  N   UNL     1      35.830 -18.821 -20.935  0.00  0.00    -0.251 NA
ATOM     11  N   UNL     1      33.241 -19.783 -20.445  0.00  0.00    -0.255 NA
ATOM     12  C   UNL     1      33.317 -13.737 -22.600  0.00  0.00    +0.074 C 
ATOM     13  C   UNL     1      34.464 -14.466 -22.404  0.00  0.00    +0.052 C 
ATOM     14  C   UNL     1      34.013 -15.714 -21.935  0.00  0.00    +0.152 C 
ATOM     15  C   UNL     1      34.736 -18.062 -21.142  0.00  0.00    +0.130 C 
ATOM     16  C   UNL     1      33.464 -18.535 -20.902  0.00  0.00    +0.186 C 
ATOM     17  C   UNL     1      35.607 -20.068 -20.478  0.00  0.00    +0.182 C 
ATOM     18  C   UNL     1      34.335 -20.541 -20.237  0.00  0.00    +0.147 C 
ATOM     19  H   UNL     1      31.342 -14.289 -22.294  0.00  0.00    +0.174 HD
ATOM     20  H   UNL     1      35.823 -16.456 -21.776  0.00  0.00    +0.155 HD
BRANCH  18  22
ATOM     21  N   UNL     1      33.894 -22.933 -19.363  0.00  0.00    -0.190 NA
ATOM     22  C   UNL     1      34.092 -21.859 -19.756  0.00  0.00    +0.117 C 
ENDBRANCH  18  22
ENDBRANCH   1  12
BRANCH   3  23
ATOM     23  O   UNL     1      34.238 -12.892 -25.139  0.00  0.00    -0.471 OA
ATOM     24  C   UNL     1      33.514 -13.402 -26.256  0.00  0.00    +0.252 C 
ENDBRANCH   3  23
BRANCH   2  25
ATOM     25  O   UNL     1      31.976 -11.798 -21.030  0.00  0.00    -0.475 OA
BRANCH  25  26
ATOM     26  C   UNL     1      30.805 -11.128 -20.585  0.00  0.00    +0.203 C 
BRANCH  26  27
ATOM     27  C   UNL     1      30.974 -10.763 -19.116  0.00  0.00    +0.023 C 
BRANCH  27  28
ATOM     28  C   UNL     1      32.336 -10.132 -18.849  0.00  0.00    -0.082 C 
BRANCH  28  29
ATOM     29  N   UNL     1      32.444  -8.851 -19.536  0.00  0.00    +0.381 N 
ATOM     30  H   UNL     1      31.557  -8.352 -19.467  0.00  0.00    -0.089 HD
ATOM     31  H   UNL     1      32.669  -9.010 -20.519  0.00  0.00    -0.089 HD
ATOM     32  H   UNL     1      33.181  -8.294 -19.104  0.00  0.00    -0.089 HD
ENDBRANCH  28  29
ENDBRANCH  27  28
ENDBRANCH  26  27
ENDBRANCH  25  26
ENDBRANCH   2  25
TORSDOF 8
ENDMDL
MODEL 8
REMARK VINA RESULT:      -8.2      5.617     11.388
REMARK  Name = 46700756
REMARK  8 active torsions:
REMARK  status: ('A' for Active; 'I' for Inactive)
REMARK    1  A    between atoms: C_1  and  C_12
REMARK    2  A    between atoms: C_2  and  O_25
REMARK    3  A    between atoms: C_3  and  O_23
REMARK    4  A    between atoms: C_18  and  C_22
REMARK    5  A    between atoms: O_25  and  C_26
REMARK    6  A    between atoms: C_26  and  C_27
REMARK    7  A    between atoms: C_27  and  C_28
REMARK    8  A    between atoms: C_28  and  N_29
REMARK                            x       y       z     vdW  Elec       q    Type
REMARK                         _______ _______ _______ _____ _____    ______ ____
ROOT
ATOM      1  C   UNL     1      33.864 -14.450 -24.095  0.00  0.00    +0.083 C 
ATOM      2  C   UNL     1      34.613 -15.116 -23.123  0.00  0.00    +0.143 C 
ATOM      3  C   UNL     1      33.492 -15.115 -25.264  0.00  0.00    +0.143 C 
ATOM      4  C   UNL     1      34.989 -16.445 -23.321  0.00  0.00    +0.037 C 
ATOM      5  C   UNL     1      33.867 -16.443 -25.461  0.00  0.00    +0.037 C 
ATOM      6  C   UNL     1      34.616 -17.108 -24.490  0.00  0.00    +0.006 C 
ENDROOT
BRANCH   1  12
ATOM      7  N   UNL     1      32.393 -12.712 -23.140  0.00  0.00    -0.235 N 
ATOM      8  N   UNL     1      32.201 -11.383 -23.069  0.00  0.00    -0.166 NA
ATOM      9  N   UNL     1      33.447  -9.577 -24.038  0.00  0.00    -0.284 N 
ATOM     10  N   UNL     1      33.308  -7.167 -24.054  0.00  0.00    -0.251 NA
ATOM     11  N   UNL     1      31.024  -7.321 -22.433  0.00  0.00    -0.255 NA
ATOM     12  C   UNL     1      33.474 -13.072 -23.889  0.00  0.00    +0.074 C 
ATOM     13  C   UNL     1      34.027 -11.899 -24.339  0.00  0.00    +0.052 C 
ATOM     14  C   UNL     1      33.202 -10.892 -23.803  0.00  0.00    +0.152 C 
ATOM     15  C   UNL     1      32.804  -8.346 -23.642  0.00  0.00    +0.130 C 
ATOM     16  C   UNL     1      31.682  -8.422 -22.845  0.00  0.00    +0.186 C 
ATOM     17  C   UNL     1      32.649  -6.065 -23.642  0.00  0.00    +0.182 C 
ATOM     18  C   UNL     1      31.527  -6.141 -22.846  0.00  0.00    +0.147 C 
ATOM     19  H   UNL     1      31.807 -13.365 -22.693  0.00  0.00    +0.174 HD
ATOM     20  H   UNL     1      34.239  -9.431 -24.604  0.00  0.00    +0.155 HD
BRANCH  18  22
ATOM     21  N   UNL     1      30.255  -4.039 -22.044  0.00  0.00    -0.190 NA
ATOM     22  C   UNL     1      30.827  -4.983 -22.405  0.00  0.00    +0.117 C 
ENDBRANCH  18  22
ENDBRANCH   1  12
BRANCH   3  23
ATOM     23  O   UNL     1      32.760 -14.490 -26.232  0.00  0.00    -0.471 OA
ATOM     24  C   UNL     1      33.486 -13.845 -27.275  0.00  0.00    +0.252 C 
ENDBRANCH   3  23
BRANCH   2  25
ATOM     25  O   UNL     1      34.994 -14.490 -21.965  0.00  0.00    -0.475 OA
BRANCH  25  26
ATOM     26  C   UNL     1      34.570 -15.085 -20.746  0.00  0.00    +0.203 C 
BRANCH  26  27
ATOM     27  C   UNL     1      33.141 -14.646 -20.455  0.00  0.00    +0.023 C 
BRANCH  27  28
ATOM     28  C   UNL     1      32.154 -15.792 -20.642  0.00  0.00    -0.082 C 
BRANCH  28  29
ATOM     29  N   UNL     1      32.865 -17.061 -20.745  0.00  0.00    +0.381 N 
ATOM     30  H   UNL     1      32.204 -17.830 -20.636  0.00  0.00    -0.089 HD
ATOM     31  H   UNL     1      33.574 -17.114 -20.014  0.00  0.00    -0.089 HD
ATOM     32  H   UNL     1      33.313 -17.126 -21.659  0.00  0.00    -0.089 HD
ENDBRANCH  28  29
ENDBRANCH  27  28
ENDBRANCH  26  27
ENDBRANCH  25  26
ENDBRANCH   2  25
TORSDOF 8
ENDMDL
MODEL 9
REMARK VINA RESULT:      -8.0      3.857      9.241
REMARK  Name = 46700756
REMARK  8 active torsions:
REMARK  status: ('A' for Active; 'I' for Inactive)
REMARK    1  A    between atoms: C_1  and  C_12
REMARK    2  A    between atoms: C_2  and  O_25
REMARK    3  A    between atoms: C_3  and  O_23
REMARK    4  A    between atoms: C_18  and  C_22
REMARK    5  A    between atoms: O_25  and  C_26
REMARK    6  A    between atoms: C_26  and  C_27
REMARK    7  A    between atoms: C_27  and  C_28
REMARK    8  A    between atoms: C_28  and  N_29
REMARK                            x       y       z     vdW  Elec       q    Type
REMARK                         _______ _______ _______ _____ _____    ______ ____
ROOT
ATOM      1  C   UNL     1      34.118 -23.361 -16.353  0.00  0.00    +0.083 C 
ATOM      2  C   UNL     1      32.838 -23.632 -15.867  0.00  0.00    +0.143 C 
ATOM      3  C   UNL     1      35.235 -23.881 -15.700  0.00  0.00    +0.143 C 
ATOM      4  C   UNL     1      32.677 -24.422 -14.728  0.00  0.00    +0.037 C 
ATOM      5  C   UNL     1      35.074 -24.670 -14.563  0.00  0.00    +0.037 C 
ATOM      6  C   UNL     1      33.795 -24.941 -14.076  0.00  0.00    +0.006 C 
ENDROOT
BRANCH   1  12
ATOM      7  N   UNL     1      33.322 -22.421 -18.494  0.00  0.00    -0.235 N 
ATOM      8  N   UNL     1      33.668 -21.612 -19.510  0.00  0.00    -0.166 NA
ATOM      9  N   UNL     1      35.682 -20.365 -19.888  0.00  0.00    -0.284 N 
ATOM     10  N   UNL     1      36.522 -18.874 -21.593  0.00  0.00    -0.251 NA
ATOM     11  N   UNL     1      34.122 -19.194 -23.008  0.00  0.00    -0.255 NA
ATOM     12  C   UNL     1      34.284 -22.542 -17.534  0.00  0.00    +0.074 C 
ATOM     13  C   UNL     1      35.331 -21.757 -17.951  0.00  0.00    +0.052 C 
ATOM     14  C   UNL     1      34.896 -21.209 -19.173  0.00  0.00    +0.152 C 
ATOM     15  C   UNL     1      35.526 -19.660 -21.139  0.00  0.00    +0.130 C 
ATOM     16  C   UNL     1      34.346 -19.816 -21.834  0.00  0.00    +0.186 C 
ATOM     17  C   UNL     1      36.298 -18.252 -22.767  0.00  0.00    +0.182 C 
ATOM     18  C   UNL     1      35.119 -18.409 -23.463  0.00  0.00    +0.147 C 
ATOM     19  H   UNL     1      32.455 -22.885 -18.447  0.00  0.00    +0.174 HD
ATOM     20  H   UNL     1      36.552 -20.196 -19.459  0.00  0.00    +0.155 HD
BRANCH  18  22
ATOM     21  N   UNL     1      34.674 -17.221 -25.714  0.00  0.00    -0.190 NA
ATOM     22  C   UNL     1      34.873 -17.754 -24.702  0.00  0.00    +0.117 C 
ENDBRANCH  18  22
ENDBRANCH   1  12
BRANCH   3  23
ATOM     23  O   UNL     1      36.499 -23.633 -16.152  0.00  0.00    -0.471 OA
ATOM     24  C   UNL     1      37.532 -23.558 -15.172  0.00  0.00    +0.252 C 
ENDBRANCH   3  23
BRANCH   2  25
ATOM     25  O   UNL     1      31.720 -23.135 -16.486  0.00  0.00    -0.475 OA
BRANCH  25  26
ATOM     26  C   UNL     1      30.658 -22.709 -15.644  0.00  0.00    +0.203 C 
BRANCH  26  27
ATOM     27  C   UNL     1      29.373 -22.655 -16.461  0.00  0.00    +0.023 C 
BRANCH  27  28
ATOM     28  C   UNL     1      28.506 -23.887 -16.222  0.00  0.00    -0.082 C 
BRANCH  28  29
ATOM     29  N   UNL     1      29.236 -24.876 -15.438  0.00  0.00    +0.381 N 
ATOM     30  H   UNL     1      30.115 -24.472 -15.116  0.00  0.00    -0.089 HD
ATOM     31  H   UNL     1      29.429 -25.694 -16.016  0.00  0.00    -0.089 HD
ATOM     32  H   UNL     1      28.675 -25.153 -14.633  0.00  0.00    -0.089 HD
ENDBRANCH  28  29
ENDBRANCH  27  28
ENDBRANCH  26  27
ENDBRANCH  25  26
ENDBRANCH   2  25
TORSDOF 8
ENDMDL
