MODEL 1
REMARK VINA RESULT:      -9.7      0.000      0.000
REMARK  Name = 5289587
REMARK  7 active torsions:
REMARK  status: ('A' for Active; 'I' for Inactive)
REMARK    1  A    between atoms: C_2  and  O_7
REMARK    2  A    between atoms: C_3  and  O_9
REMARK    3  A    between atoms: C_4  and  O_11
REMARK    4  A    between atoms: C_5  and  C_26
REMARK    5  A    between atoms: C_6  and  O_13
REMARK    6  A    between atoms: O_13  and  C_17
REMARK    7  A    between atoms: C_26  and  O_27
REMARK                            x       y       z     vdW  Elec       q    Type
REMARK                         _______ _______ _______ _____ _____    ______ ____
ROOT
ATOM      1  O   UNL     1      36.909 -25.223 -13.617  0.00  0.00    -0.316 OA
ATOM      2  C   UNL     1      36.934 -23.187 -11.589  0.00  0.00    +0.173 C 
ATOM      3  C   UNL     1      38.163 -24.054 -11.873  0.00  0.00    +0.169 C 
ATOM      4  C   UNL     1      35.652 -23.913 -11.996  0.00  0.00    +0.210 C 
ATOM      5  C   UNL     1      38.135 -24.548 -13.326  0.00  0.00    +0.177 C 
ATOM      6  C   UNL     1      35.739 -24.418 -13.435  0.00  0.00    +0.318 C 
ENDROOT
BRANCH   2   7
ATOM      7  O   UNL     1      36.862 -22.867 -10.203  0.00  0.00    -0.379 OA
ATOM      8  H   UNL     1      36.566 -23.646  -9.706  0.00  0.00    +0.211 HD
ENDBRANCH   2   7
BRANCH   3   9
ATOM      9  O   UNL     1      39.346 -23.287 -11.670  0.00  0.00    -0.379 OA
ATOM     10  H   UNL     1      39.114 -22.433 -11.270  0.00  0.00    +0.211 HD
ENDBRANCH   3   9
BRANCH   4  11
ATOM     11  O   UNL     1      35.445 -25.047 -11.151  0.00  0.00    -0.377 OA
ATOM     12  H   UNL     1      36.252 -25.587 -11.132  0.00  0.00    +0.211 HD
ENDBRANCH   4  11
BRANCH   6  13
ATOM     13  O   UNL     1      35.693 -23.316 -14.335  0.00  0.00    -0.449 OA
BRANCH  13  17
ATOM     14 BR   UNL     1      36.628 -21.075 -19.879  0.00  0.00    -0.048 Br
ATOM     15 CL   UNL     1      37.238 -21.996 -16.696  0.00  0.00    -0.082 Cl
ATOM     16  N   UNL     1      32.693 -23.653 -16.120  0.00  0.00    -0.309 N 
ATOM     17  C   UNL     1      34.683 -23.316 -15.259  0.00  0.00    +0.158 C 
ATOM     18  C   UNL     1      34.719 -22.841 -16.581  0.00  0.00    +0.060 C 
ATOM     19  C   UNL     1      33.447 -23.065 -17.110  0.00  0.00    +0.052 C 
ATOM     20  C   UNL     1      33.444 -23.809 -14.986  0.00  0.00    +0.099 C 
ATOM     21  C   UNL     1      35.697 -22.241 -17.400  0.00  0.00    +0.068 C 
ATOM     22  C   UNL     1      33.101 -22.717 -18.421  0.00  0.00    +0.015 C 
ATOM     23  C   UNL     1      35.367 -21.888 -18.712  0.00  0.00    +0.045 C 
ATOM     24  C   UNL     1      34.088 -22.123 -19.214  0.00  0.00    +0.009 C 
ATOM     25  H   UNL     1      31.751 -23.923 -16.212  0.00  0.00    +0.152 HD
ENDBRANCH  13  17
ENDBRANCH   6  13
BRANCH   5  26
ATOM     26  C   UNL     1      39.272 -25.526 -13.606  0.00  0.00    +0.169 C 
BRANCH  26  27
ATOM     27  O   UNL     1      40.431 -24.785 -13.936  0.00  0.00    -0.379 OA
ATOM     28  H   UNL     1      41.070 -25.365 -14.379  0.00  0.00    +0.211 HD
ENDBRANCH  26  27
ENDBRANCH   5  26
TORSDOF 7
ENDMDL
MODEL 2
REMARK VINA RESULT:      -9.3      1.646      1.996
REMARK  Name = 5289587
REMARK  7 active torsions:
REMARK  status: ('A' for Active; 'I' for Inactive)
REMARK    1  A    between atoms: C_2  and  O_7
REMARK    2  A    between atoms: C_3  and  O_9
REMARK    3  A    between atoms: C_4  and  O_11
REMARK    4  A    between atoms: C_5  and  C_26
REMARK    5  A    between atoms: C_6  and  O_13
REMARK    6  A    between atoms: O_13  and  C_17
REMARK    7  A    between atoms: C_26  and  O_27
REMARK                            x       y       z     vdW  Elec       q    Type
REMARK                         _______ _______ _______ _____ _____    ______ ____
ROOT
ATOM      1  O   UNL     1      35.680 -25.664 -15.180  0.00  0.00    -0.316 OA
ATOM      2  C   UNL     1      36.255 -23.435 -13.459  0.00  0.00    +0.173 C 
ATOM      3  C   UNL     1      37.102 -24.709 -13.434  0.00  0.00    +0.169 C 
ATOM      4  C   UNL     1      34.840 -23.733 -13.959  0.00  0.00    +0.210 C 
ATOM      5  C   UNL     1      37.034 -25.414 -14.796  0.00  0.00    +0.177 C 
ATOM      6  C   UNL     1      34.875 -24.485 -15.287  0.00  0.00    +0.318 C 
ENDROOT
BRANCH   2   7
ATOM      7  O   UNL     1      36.172 -22.868 -12.155  0.00  0.00    -0.379 OA
ATOM      8  H   UNL     1      35.425 -23.261 -11.678  0.00  0.00    +0.211 HD
ENDBRANCH   2   7
BRANCH   3   9
ATOM      9  O   UNL     1      38.458 -24.375 -13.155  0.00  0.00    -0.379 OA
ATOM     10  H   UNL     1      38.568 -23.411 -13.185  0.00  0.00    +0.211 HD
ENDBRANCH   3   9
BRANCH   4  11
ATOM     11  O   UNL     1      34.153 -24.555 -13.014  0.00  0.00    -0.377 OA
ATOM     12  H   UNL     1      33.811 -25.345 -13.462  0.00  0.00    +0.211 HD
ENDBRANCH   4  11
BRANCH   6  13
ATOM     13  O   UNL     1      35.322 -23.615 -16.321  0.00  0.00    -0.449 OA
BRANCH  13  17
ATOM     14 BR   UNL     1      36.850 -19.759 -20.730  0.00  0.00    -0.048 Br
ATOM     15 CL   UNL     1      37.166 -21.846 -18.103  0.00  0.00    -0.082 Cl
ATOM     16  N   UNL     1      32.378 -22.745 -18.018  0.00  0.00    -0.309 N 
ATOM     17  C   UNL     1      34.363 -23.103 -17.155  0.00  0.00    +0.158 C 
ATOM     18  C   UNL     1      34.532 -22.204 -18.221  0.00  0.00    +0.060 C 
ATOM     19  C   UNL     1      33.261 -21.989 -18.756  0.00  0.00    +0.052 C 
ATOM     20  C   UNL     1      33.046 -23.427 -17.037  0.00  0.00    +0.099 C 
ATOM     21  C   UNL     1      35.633 -21.541 -18.802  0.00  0.00    +0.068 C 
ATOM     22  C   UNL     1      33.032 -21.142 -19.846  0.00  0.00    +0.015 C 
ATOM     23  C   UNL     1      35.420 -20.690 -19.891  0.00  0.00    +0.045 C 
ATOM     24  C   UNL     1      34.139 -20.495 -20.405  0.00  0.00    +0.009 C 
ATOM     25  H   UNL     1      31.407 -22.788 -18.172  0.00  0.00    +0.152 HD
ENDBRANCH  13  17
ENDBRANCH   6  13
BRANCH   5  26
ATOM     26  C   UNL     1      37.755 -26.758 -14.766  0.00  0.00    +0.169 C 
BRANCH  26  27
ATOM     27  O   UNL     1      39.149 -26.519 -14.722  0.00  0.00    -0.379 OA
ATOM     28  H   UNL     1      39.326 -25.593 -14.951  0.00  0.00    +0.211 HD
ENDBRANCH  26  27
ENDBRANCH   5  26
TORSDOF 7
ENDMDL
MODEL 3
REMARK VINA RESULT:      -9.2      0.955      1.468
REMARK  Name = 5289587
REMARK  7 active torsions:
REMARK  status: ('A' for Active; 'I' for Inactive)
REMARK    1  A    between atoms: C_2  and  O_7
REMARK    2  A    between atoms: C_3  and  O_9
REMARK    3  A    between atoms: C_4  and  O_11
REMARK    4  A    between atoms: C_5  and  C_26
REMARK    5  A    between atoms: C_6  and  O_13
REMARK    6  A    between atoms: O_13  and  C_17
REMARK    7  A    between atoms: C_26  and  O_27
REMARK                            x       y       z     vdW  Elec       q    Type
REMARK                         _______ _______ _______ _____ _____    ______ ____
ROOT
ATOM      1  O   UNL     1      36.137 -25.239 -13.496  0.00  0.00    -0.316 OA
ATOM      2  C   UNL     1      38.246 -23.558 -12.503  0.00  0.00    +0.173 C 
ATOM      3  C   UNL     1      38.525 -24.959 -13.052  0.00  0.00    +0.169 C 
ATOM      4  C   UNL     1      36.811 -23.454 -11.984  0.00  0.00    +0.210 C 
ATOM      5  C   UNL     1      37.443 -25.353 -14.066  0.00  0.00    +0.177 C 
ATOM      6  C   UNL     1      35.811 -23.921 -13.039  0.00  0.00    +0.318 C 
ENDROOT
BRANCH   2   7
ATOM      7  O   UNL     1      39.143 -23.253 -11.440  0.00  0.00    -0.379 OA
ATOM      8  H   UNL     1      38.663 -22.798 -10.731  0.00  0.00    +0.211 HD
ENDBRANCH   2   7
BRANCH   3   9
ATOM      9  O   UNL     1      39.793 -24.972 -13.703  0.00  0.00    -0.379 OA
ATOM     10  H   UNL     1      39.824 -25.706 -14.337  0.00  0.00    +0.211 HD
ENDBRANCH   3   9
BRANCH   4  11
ATOM     11  O   UNL     1      36.648 -24.286 -10.834  0.00  0.00    -0.377 OA
ATOM     12  H   UNL     1      36.260 -25.135 -11.102  0.00  0.00    +0.211 HD
ENDBRANCH   4  11
BRANCH   6  13
ATOM     13  O   UNL     1      35.755 -22.977 -14.102  0.00  0.00    -0.449 OA
BRANCH  13  17
ATOM     14 BR   UNL     1      36.534 -21.234 -19.846  0.00  0.00    -0.048 Br
ATOM     15 CL   UNL     1      37.208 -21.798 -16.593  0.00  0.00    -0.082 Cl
ATOM     16  N   UNL     1      32.780 -23.679 -15.821  0.00  0.00    -0.309 N 
ATOM     17  C   UNL     1      34.746 -23.132 -15.014  0.00  0.00    +0.158 C 
ATOM     18  C   UNL     1      34.748 -22.788 -16.377  0.00  0.00    +0.060 C 
ATOM     19  C   UNL     1      33.492 -23.143 -16.871  0.00  0.00    +0.052 C 
ATOM     20  C   UNL     1      33.542 -23.674 -14.684  0.00  0.00    +0.099 C 
ATOM     21  C   UNL     1      35.685 -22.209 -17.257  0.00  0.00    +0.068 C 
ATOM     22  C   UNL     1      33.122 -22.948 -18.207  0.00  0.00    +0.015 C 
ATOM     23  C   UNL     1      35.329 -22.008 -18.595  0.00  0.00    +0.045 C 
ATOM     24  C   UNL     1      34.067 -22.372 -19.061  0.00  0.00    +0.009 C 
ATOM     25  H   UNL     1      31.858 -24.016 -15.880  0.00  0.00    +0.152 HD
ENDBRANCH  13  17
ENDBRANCH   6  13
BRANCH   5  26
ATOM     26  C   UNL     1      37.613 -26.796 -14.531  0.00  0.00    +0.169 C 
BRANCH  26  27
ATOM     27  O   UNL     1      37.314 -26.861 -15.913  0.00  0.00    -0.379 OA
ATOM     28  H   UNL     1      37.710 -26.099 -16.365  0.00  0.00    +0.211 HD
ENDBRANCH  26  27
ENDBRANCH   5  26
TORSDOF 7
ENDMDL
MODEL 4
REMARK VINA RESULT:      -9.0      2.235      3.817
REMARK  Name = 5289587
REMARK  7 active torsions:
REMARK  status: ('A' for Active; 'I' for Inactive)
REMARK    1  A    between atoms: C_2  and  O_7
REMARK    2  A    between atoms: C_3  and  O_9
REMARK    3  A    between atoms: C_4  and  O_11
REMARK    4  A    between atoms: C_5  and  C_26
REMARK    5  A    between atoms: C_6  and  O_13
REMARK    6  A    between atoms: O_13  and  C_17
REMARK    7  A    between atoms: C_26  and  O_27
REMARK                            x       y       z     vdW  Elec       q    Type
REMARK                         _______ _______ _______ _____ _____    ______ ____
ROOT
ATOM      1  O   UNL     1      34.829 -22.866 -15.111  0.00  0.00    -0.316 OA
ATOM      2  C   UNL     1      37.176 -24.498 -15.410  0.00  0.00    +0.173 C 
ATOM      3  C   UNL     1      36.123 -24.793 -14.340  0.00  0.00    +0.169 C 
ATOM      4  C   UNL     1      37.161 -23.017 -15.792  0.00  0.00    +0.210 C 
ATOM      5  C   UNL     1      34.756 -24.256 -14.784  0.00  0.00    +0.177 C 
ATOM      6  C   UNL     1      35.751 -22.560 -16.162  0.00  0.00    +0.318 C 
ENDROOT
BRANCH   2   7
ATOM      7  O   UNL     1      38.476 -24.837 -14.934  0.00  0.00    -0.379 OA
ATOM      8  H   UNL     1      39.008 -25.185 -15.666  0.00  0.00    +0.211 HD
ENDBRANCH   2   7
BRANCH   3   9
ATOM      9  O   UNL     1      36.024 -26.201 -14.144  0.00  0.00    -0.379 OA
ATOM     10  H   UNL     1      36.879 -26.547 -13.843  0.00  0.00    +0.211 HD
ENDBRANCH   3   9
BRANCH   4  11
ATOM     11  O   UNL     1      37.597 -22.224 -14.687  0.00  0.00    -0.377 OA
ATOM     12  H   UNL     1      37.839 -22.805 -13.948  0.00  0.00    +0.211 HD
ENDBRANCH   4  11
BRANCH   6  13
ATOM     13  O   UNL     1      35.369 -23.139 -17.405  0.00  0.00    -0.449 OA
BRANCH  13  17
ATOM     14 BR   UNL     1      36.570 -18.946 -21.602  0.00  0.00    -0.048 Br
ATOM     15 CL   UNL     1      37.081 -21.270 -19.216  0.00  0.00    -0.082 Cl
ATOM     16  N   UNL     1      32.298 -22.035 -18.691  0.00  0.00    -0.309 N 
ATOM     17  C   UNL     1      34.348 -22.527 -18.082  0.00  0.00    +0.158 C 
ATOM     18  C   UNL     1      34.438 -21.540 -19.079  0.00  0.00    +0.060 C 
ATOM     19  C   UNL     1      33.127 -21.242 -19.453  0.00  0.00    +0.052 C 
ATOM     20  C   UNL     1      33.040 -22.822 -17.851  0.00  0.00    +0.099 C 
ATOM     21  C   UNL     1      35.496 -20.859 -19.715  0.00  0.00    +0.068 C 
ATOM     22  C   UNL     1      32.817 -20.293 -20.434  0.00  0.00    +0.015 C 
ATOM     23  C   UNL     1      35.202 -19.907 -20.698  0.00  0.00    +0.045 C 
ATOM     24  C   UNL     1      33.882 -19.630 -21.051  0.00  0.00    +0.009 C 
ATOM     25  H   UNL     1      31.315 -22.036 -18.742  0.00  0.00    +0.152 HD
ENDBRANCH  13  17
ENDBRANCH   6  13
BRANCH   5  26
ATOM     26  C   UNL     1      33.710 -24.411 -13.683  0.00  0.00    +0.169 C 
BRANCH  26  27
ATOM     27  O   UNL     1      34.377 -24.693 -12.467  0.00  0.00    -0.379 OA
ATOM     28  H   UNL     1      34.713 -25.603 -12.486  0.00  0.00    +0.211 HD
ENDBRANCH  26  27
ENDBRANCH   5  26
TORSDOF 7
ENDMDL
MODEL 5
REMARK VINA RESULT:      -8.8      4.046      6.556
REMARK  Name = 5289587
REMARK  7 active torsions:
REMARK  status: ('A' for Active; 'I' for Inactive)
REMARK    1  A    between atoms: C_2  and  O_7
REMARK    2  A    between atoms: C_3  and  O_9
REMARK    3  A    between atoms: C_4  and  O_11
REMARK    4  A    between atoms: C_5  and  C_26
REMARK    5  A    between atoms: C_6  and  O_13
REMARK    6  A    between atoms: O_13  and  C_17
REMARK    7  A    between atoms: C_26  and  O_27
REMARK                            x       y       z     vdW  Elec       q    Type
REMARK                         _______ _______ _______ _____ _____    ______ ____
ROOT
ATOM      1  O   UNL     1      30.571 -22.631 -14.659  0.00  0.00    -0.316 OA
ATOM      2  C   UNL     1      30.074 -25.434 -15.051  0.00  0.00    +0.173 C 
ATOM      3  C   UNL     1      29.006 -24.379 -15.349  0.00  0.00    +0.169 C 
ATOM      4  C   UNL     1      31.066 -24.922 -14.005  0.00  0.00    +0.210 C 
ATOM      5  C   UNL     1      29.671 -23.038 -15.692  0.00  0.00    +0.177 C 
ATOM      6  C   UNL     1      31.629 -23.560 -14.403  0.00  0.00    +0.318 C 
ENDROOT
BRANCH   2   7
ATOM      7  O   UNL     1      29.470 -26.629 -14.567  0.00  0.00    -0.379 OA
ATOM      8  H   UNL     1      29.812 -26.829 -13.682  0.00  0.00    +0.211 HD
ENDBRANCH   2   7
BRANCH   3   9
ATOM      9  O   UNL     1      28.217 -24.799 -16.458  0.00  0.00    -0.379 OA
ATOM     10  H   UNL     1      27.818 -24.024 -16.884  0.00  0.00    +0.211 HD
ENDBRANCH   3   9
BRANCH   4  11
ATOM     11  O   UNL     1      30.409 -24.768 -12.746  0.00  0.00    -0.377 OA
ATOM     12  H   UNL     1      30.684 -23.931 -12.338  0.00  0.00    +0.211 HD
ENDBRANCH   4  11
BRANCH   6  13
ATOM     13  O   UNL     1      32.503 -23.707 -15.518  0.00  0.00    -0.449 OA
BRANCH  13  17
ATOM     14 BR   UNL     1      35.904 -21.332 -19.924  0.00  0.00    -0.048 Br
ATOM     15 CL   UNL     1      33.204 -22.562 -18.329  0.00  0.00    -0.082 Cl
ATOM     16  N   UNL     1      35.747 -23.321 -14.242  0.00  0.00    -0.309 N 
ATOM     17  C   UNL     1      33.829 -23.444 -15.301  0.00  0.00    +0.158 C 
ATOM     18  C   UNL     1      34.762 -22.900 -16.199  0.00  0.00    +0.060 C 
ATOM     19  C   UNL     1      35.973 -22.829 -15.508  0.00  0.00    +0.052 C 
ATOM     20  C   UNL     1      34.438 -23.699 -14.110  0.00  0.00    +0.099 C 
ATOM     21  C   UNL     1      34.717 -22.453 -17.535  0.00  0.00    +0.068 C 
ATOM     22  C   UNL     1      37.146 -22.332 -16.088  0.00  0.00    +0.015 C 
ATOM     23  C   UNL     1      35.882 -21.954 -18.128  0.00  0.00    +0.045 C 
ATOM     24  C   UNL     1      37.077 -21.894 -17.414  0.00  0.00    +0.009 C 
ATOM     25  H   UNL     1      36.427 -23.391 -13.535  0.00  0.00    +0.152 HD
ENDBRANCH  13  17
ENDBRANCH   6  13
BRANCH   5  26
ATOM     26  C   UNL     1      28.637 -21.929 -15.861  0.00  0.00    +0.169 C 
BRANCH  26  27
ATOM     27  O   UNL     1      28.212 -21.913 -17.210  0.00  0.00    -0.379 OA
ATOM     28  H   UNL     1      27.363 -22.378 -17.287  0.00  0.00    +0.211 HD
ENDBRANCH  26  27
ENDBRANCH   5  26
TORSDOF 7
ENDMDL
MODEL 6
REMARK VINA RESULT:      -8.5     12.307     14.739
REMARK  Name = 5289587
REMARK  7 active torsions:
REMARK  status: ('A' for Active; 'I' for Inactive)
REMARK    1  A    between atoms: C_2  and  O_7
REMARK    2  A    between atoms: C_3  and  O_9
REMARK    3  A    between atoms: C_4  and  O_11
REMARK    4  A    between atoms: C_5  and  C_26
REMARK    5  A    between atoms: C_6  and  O_13
REMARK    6  A    between atoms: O_13  and  C_17
REMARK    7  A    between atoms: C_26  and  O_27
REMARK                            x       y       z     vdW  Elec       q    Type
REMARK                         _______ _______ _______ _____ _____    ______ ____
ROOT
ATOM      1  O   UNL     1      32.397 -14.406 -24.058  0.00  0.00    -0.316 OA
ATOM      2  C   UNL     1      34.382 -14.908 -22.041  0.00  0.00    +0.173 C 
ATOM      3  C   UNL     1      34.372 -15.671 -23.367  0.00  0.00    +0.169 C 
ATOM      4  C   UNL     1      32.980 -14.404 -21.695  0.00  0.00    +0.210 C 
ATOM      5  C   UNL     1      33.704 -14.824 -24.459  0.00  0.00    +0.177 C 
ATOM      6  C   UNL     1      32.374 -13.623 -22.860  0.00  0.00    +0.318 C 
ENDROOT
BRANCH   2   7
ATOM      7  O   UNL     1      34.841 -15.748 -20.988  0.00  0.00    -0.379 OA
ATOM      8  H   UNL     1      35.071 -15.206 -20.217  0.00  0.00    +0.211 HD
ENDBRANCH   2   7
BRANCH   3   9
ATOM      9  O   UNL     1      35.711 -15.959 -23.762  0.00  0.00    -0.379 OA
ATOM     10  H   UNL     1      35.854 -15.652 -24.671  0.00  0.00    +0.211 HD
ENDBRANCH   3   9
BRANCH   4  11
ATOM     11  O   UNL     1      32.118 -15.510 -21.421  0.00  0.00    -0.377 OA
ATOM     12  H   UNL     1      32.061 -15.645 -20.462  0.00  0.00    +0.211 HD
ENDBRANCH   4  11
BRANCH   6  13
ATOM     13  O   UNL     1      33.051 -12.380 -23.010  0.00  0.00    -0.449 OA
BRANCH  13  17
ATOM     14 BR   UNL     1      34.635  -6.808 -24.762  0.00  0.00    -0.048 Br
ATOM     15 CL   UNL     1      34.564 -10.173 -24.604  0.00  0.00    -0.082 Cl
ATOM     16  N   UNL     1      31.142 -10.112 -21.136  0.00  0.00    -0.309 N 
ATOM     17  C   UNL     1      32.461 -11.283 -22.441  0.00  0.00    +0.158 C 
ATOM     18  C   UNL     1      32.702  -9.927 -22.720  0.00  0.00    +0.060 C 
ATOM     19  C   UNL     1      31.855  -9.200 -21.882  0.00  0.00    +0.052 C 
ATOM     20  C   UNL     1      31.509 -11.387 -21.474  0.00  0.00    +0.099 C 
ATOM     21  C   UNL     1      33.551  -9.226 -23.600  0.00  0.00    +0.068 C 
ATOM     22  C   UNL     1      31.814  -7.801 -21.878  0.00  0.00    +0.015 C 
ATOM     23  C   UNL     1      33.522  -7.827 -23.607  0.00  0.00    +0.045 C 
ATOM     24  C   UNL     1      32.666  -7.127 -22.759  0.00  0.00    +0.009 C 
ATOM     25  H   UNL     1      30.467  -9.881 -20.458  0.00  0.00    +0.152 HD
ENDBRANCH  13  17
ENDBRANCH   6  13
BRANCH   5  26
ATOM     26  C   UNL     1      33.554 -15.606 -25.760  0.00  0.00    +0.169 C 
BRANCH  26  27
ATOM     27  O   UNL     1      33.903 -16.956 -25.516  0.00  0.00    -0.379 OA
ATOM     28  H   UNL     1      34.400 -17.015 -24.684  0.00  0.00    +0.211 HD
ENDBRANCH  26  27
ENDBRANCH   5  26
TORSDOF 7
ENDMDL
MODEL 7
REMARK VINA RESULT:      -8.4      3.078      4.363
REMARK  Name = 5289587
REMARK  7 active torsions:
REMARK  status: ('A' for Active; 'I' for Inactive)
REMARK    1  A    between atoms: C_2  and  O_7
REMARK    2  A    between atoms: C_3  and  O_9
REMARK    3  A    between atoms: C_4  and  O_11
REMARK    4  A    between atoms: C_5  and  C_26
REMARK    5  A    between atoms: C_6  and  O_13
REMARK    6  A    between atoms: O_13  and  C_17
REMARK    7  A    between atoms: C_26  and  O_27
REMARK                            x       y       z     vdW  Elec       q    Type
REMARK                         _______ _______ _______ _____ _____    ______ ____
ROOT
ATOM      1  O   UNL     1      36.114 -23.502 -13.334  0.00  0.00    -0.316 OA
ATOM      2  C   UNL     1      37.360 -25.972 -14.112  0.00  0.00    +0.173 C 
ATOM      3  C   UNL     1      37.254 -25.553 -12.644  0.00  0.00    +0.169 C 
ATOM      4  C   UNL     1      37.338 -24.749 -15.029  0.00  0.00    +0.210 C 
ATOM      5  C   UNL     1      36.050 -24.622 -12.448  0.00  0.00    +0.177 C 
ATOM      6  C   UNL     1      36.139 -23.854 -14.722  0.00  0.00    +0.318 C 
ENDROOT
BRANCH   2   7
ATOM      7  O   UNL     1      38.568 -26.693 -14.336  0.00  0.00    -0.379 OA
ATOM      8  H   UNL     1      38.532 -27.540 -13.864  0.00  0.00    +0.211 HD
ENDBRANCH   2   7
BRANCH   3   9
ATOM      9  O   UNL     1      37.081 -26.709 -11.829  0.00  0.00    -0.379 OA
ATOM     10  H   UNL     1      37.750 -26.714 -11.127  0.00  0.00    +0.211 HD
ENDBRANCH   3   9
BRANCH   4  11
ATOM     11  O   UNL     1      38.520 -23.971 -14.832  0.00  0.00    -0.377 OA
ATOM     12  H   UNL     1      38.837 -23.643 -15.689  0.00  0.00    +0.211 HD
ENDBRANCH   4  11
BRANCH   6  13
ATOM     13  O   UNL     1      34.939 -24.496 -15.140  0.00  0.00    -0.449 OA
BRANCH  13  17
ATOM     14 BR   UNL     1      28.940 -24.508 -14.335  0.00  0.00    -0.048 Br
ATOM     15 CL   UNL     1      32.200 -25.192 -13.829  0.00  0.00    -0.082 Cl
ATOM     16  N   UNL     1      33.541 -22.503 -17.665  0.00  0.00    -0.309 N 
ATOM     17  C   UNL     1      34.127 -23.793 -15.989  0.00  0.00    +0.158 C 
ATOM     18  C   UNL     1      32.726 -23.683 -15.955  0.00  0.00    +0.060 C 
ATOM     19  C   UNL     1      32.374 -22.860 -17.026  0.00  0.00    +0.052 C 
ATOM     20  C   UNL     1      34.615 -23.071 -17.035  0.00  0.00    +0.099 C 
ATOM     21  C   UNL     1      31.706 -24.192 -15.127  0.00  0.00    +0.068 C 
ATOM     22  C   UNL     1      31.047 -22.520 -17.314  0.00  0.00    +0.015 C 
ATOM     23  C   UNL     1      30.374 -23.861 -15.403  0.00  0.00    +0.045 C 
ATOM     24  C   UNL     1      30.052 -23.037 -16.480  0.00  0.00    +0.009 C 
ATOM     25  H   UNL     1      33.595 -21.925 -18.459  0.00  0.00    +0.152 HD
ENDBRANCH  13  17
ENDBRANCH   6  13
BRANCH   5  26
ATOM     26  C   UNL     1      35.993 -24.075 -11.025  0.00  0.00    +0.169 C 
BRANCH  26  27
ATOM     27  O   UNL     1      35.301 -25.005 -10.213  0.00  0.00    -0.379 OA
ATOM     28  H   UNL     1      35.721 -25.877 -10.291  0.00  0.00    +0.211 HD
ENDBRANCH  26  27
ENDBRANCH   5  26
TORSDOF 7
ENDMDL
MODEL 8
REMARK VINA RESULT:      -8.2      4.189      6.608
REMARK  Name = 5289587
REMARK  7 active torsions:
REMARK  status: ('A' for Active; 'I' for Inactive)
REMARK    1  A    between atoms: C_2  and  O_7
REMARK    2  A    between atoms: C_3  and  O_9
REMARK    3  A    between atoms: C_4  and  O_11
REMARK    4  A    between atoms: C_5  and  C_26
REMARK    5  A    between atoms: C_6  and  O_13
REMARK    6  A    between atoms: O_13  and  C_17
REMARK    7  A    between atoms: C_26  and  O_27
REMARK                            x       y       z     vdW  Elec       q    Type
REMARK                         _______ _______ _______ _____ _____    ______ ____
ROOT
ATOM      1  O   UNL     1      30.336 -22.727 -15.998  0.00  0.00    -0.316 OA
ATOM      2  C   UNL     1      30.839 -24.829 -14.103  0.00  0.00    +0.173 C 
ATOM      3  C   UNL     1      29.442 -24.583 -14.680  0.00  0.00    +0.169 C 
ATOM      4  C   UNL     1      31.673 -23.548 -14.136  0.00  0.00    +0.210 C 
ATOM      5  C   UNL     1      29.551 -23.921 -16.060  0.00  0.00    +0.177 C 
ATOM      6  C   UNL     1      31.675 -22.931 -15.533  0.00  0.00    +0.318 C 
ENDROOT
BRANCH   2   7
ATOM      7  O   UNL     1      30.746 -25.284 -12.756  0.00  0.00    -0.379 OA
ATOM      8  H   UNL     1      30.043 -24.798 -12.298  0.00  0.00    +0.211 HD
ENDBRANCH   2   7
BRANCH   3   9
ATOM      9  O   UNL     1      28.758 -25.825 -14.818  0.00  0.00    -0.379 OA
ATOM     10  H   UNL     1      27.807 -25.688 -14.683  0.00  0.00    +0.211 HD
ENDBRANCH   3   9
BRANCH   4  11
ATOM     11  O   UNL     1      31.121 -22.584 -13.238  0.00  0.00    -0.377 OA
ATOM     12  H   UNL     1      30.363 -22.147 -13.659  0.00  0.00    +0.211 HD
ENDBRANCH   4  11
BRANCH   6  13
ATOM     13  O   UNL     1      32.439 -23.743 -16.418  0.00  0.00    -0.449 OA
BRANCH  13  17
ATOM     14 BR   UNL     1      37.824 -23.845 -13.657  0.00  0.00    -0.048 Br
ATOM     15 CL   UNL     1      34.544 -24.380 -14.211  0.00  0.00    -0.082 Cl
ATOM     16  N   UNL     1      34.714 -22.074 -18.500  0.00  0.00    -0.309 N 
ATOM     17  C   UNL     1      33.528 -23.159 -17.007  0.00  0.00    +0.158 C 
ATOM     18  C   UNL     1      34.843 -23.086 -16.517  0.00  0.00    +0.060 C 
ATOM     19  C   UNL     1      35.580 -22.394 -17.479  0.00  0.00    +0.052 C 
ATOM     20  C   UNL     1      33.458 -22.539 -18.216  0.00  0.00    +0.099 C 
ATOM     21  C   UNL     1      35.500 -23.535 -15.353  0.00  0.00    +0.068 C 
ATOM     22  C   UNL     1      36.947 -22.126 -17.337  0.00  0.00    +0.015 C 
ATOM     23  C   UNL     1      36.866 -23.274 -15.196  0.00  0.00    +0.045 C 
ATOM     24  C   UNL     1      37.577 -22.581 -16.174  0.00  0.00    +0.009 C 
ATOM     25  H   UNL     1      34.961 -21.582 -19.315  0.00  0.00    +0.152 HD
ENDBRANCH  13  17
ENDBRANCH   6  13
BRANCH   5  26
ATOM     26  C   UNL     1      28.179 -23.536 -16.605  0.00  0.00    +0.169 C 
BRANCH  26  27
ATOM     27  O   UNL     1      27.732 -24.568 -17.464  0.00  0.00    -0.379 OA
ATOM     28  H   UNL     1      26.806 -24.408 -17.705  0.00  0.00    +0.211 HD
ENDBRANCH  26  27
ENDBRANCH   5  26
TORSDOF 7
ENDMDL
MODEL 9
REMARK VINA RESULT:      -8.0     10.985     14.103
REMARK  Name = 5289587
REMARK  7 active torsions:
REMARK  status: ('A' for Active; 'I' for Inactive)
REMARK    1  A    between atoms: C_2  and  O_7
REMARK    2  A    between atoms: C_3  and  O_9
REMARK    3  A    between atoms: C_4  and  O_11
REMARK    4  A    between atoms: C_5  and  C_26
REMARK    5  A    between atoms: C_6  and  O_13
REMARK    6  A    between atoms: O_13  and  C_17
REMARK    7  A    between atoms: C_26  and  O_27
REMARK                            x       y       z     vdW  Elec       q    Type
REMARK                         _______ _______ _______ _____ _____    ______ ____
ROOT
ATOM      1  O   UNL     1      33.160 -12.460 -23.730  0.00  0.00    -0.316 OA
ATOM      2  C   UNL     1      34.114 -13.210 -26.335  0.00  0.00    +0.173 C 
ATOM      3  C   UNL     1      33.945 -11.744 -25.932  0.00  0.00    +0.169 C 
ATOM      4  C   UNL     1      33.180 -14.107 -25.522  0.00  0.00    +0.210 C 
ATOM      5  C   UNL     1      34.074 -11.597 -24.410  0.00  0.00    +0.177 C 
ATOM      6  C   UNL     1      33.337 -13.850 -24.025  0.00  0.00    +0.318 C 
ENDROOT
BRANCH   2   7
ATOM      7  O   UNL     1      33.826 -13.381 -27.719  0.00  0.00    -0.379 OA
ATOM      8  H   UNL     1      34.586 -13.792 -28.160  0.00  0.00    +0.211 HD
ENDBRANCH   2   7
BRANCH   3   9
ATOM      9  O   UNL     1      34.956 -10.958 -26.558  0.00  0.00    -0.379 OA
ATOM     10  H   UNL     1      35.694 -10.828 -25.942  0.00  0.00    +0.211 HD
ENDBRANCH   3   9
BRANCH   4  11
ATOM     11  O   UNL     1      31.820 -13.835 -25.867  0.00  0.00    -0.377 OA
ATOM     12  H   UNL     1      31.670 -12.876 -25.857  0.00  0.00    +0.211 HD
ENDBRANCH   4  11
BRANCH   6  13
ATOM     13  O   UNL     1      34.597 -14.342 -23.581  0.00  0.00    -0.449 OA
BRANCH  13  17
ATOM     14 BR   UNL     1      34.984 -20.230 -24.930  0.00  0.00    -0.048 Br
ATOM     15 CL   UNL     1      34.848 -16.890 -25.356  0.00  0.00    -0.082 Cl
ATOM     16  N   UNL     1      34.480 -16.118 -20.559  0.00  0.00    -0.309 N 
ATOM     17  C   UNL     1      34.576 -15.282 -22.585  0.00  0.00    +0.158 C 
ATOM     18  C   UNL     1      34.654 -16.679 -22.711  0.00  0.00    +0.060 C 
ATOM     19  C   UNL     1      34.592 -17.192 -21.414  0.00  0.00    +0.052 C 
ATOM     20  C   UNL     1      34.469 -14.948 -21.270  0.00  0.00    +0.099 C 
ATOM     21  C   UNL     1      34.773 -17.579 -23.790  0.00  0.00    +0.068 C 
ATOM     22  C   UNL     1      34.642 -18.563 -21.139  0.00  0.00    +0.015 C 
ATOM     23  C   UNL     1      34.825 -18.953 -23.531  0.00  0.00    +0.045 C 
ATOM     24  C   UNL     1      34.760 -19.436 -22.225  0.00  0.00    +0.009 C 
ATOM     25  H   UNL     1      34.416 -16.182 -19.579  0.00  0.00    +0.152 HD
ENDBRANCH  13  17
ENDBRANCH   6  13
BRANCH   5  26
ATOM     26  C   UNL     1      33.776 -10.170 -23.959  0.00  0.00    +0.169 C 
BRANCH  26  27
ATOM     27  O   UNL     1      34.990  -9.445 -23.930  0.00  0.00    -0.379 OA
ATOM     28  H   UNL     1      35.107  -9.045 -23.054  0.00  0.00    +0.211 HD
ENDBRANCH  26  27
ENDBRANCH   5  26
TORSDOF 7
ENDMDL
