MODEL 1
REMARK VINA RESULT:      -9.7      0.000      0.000
REMARK  Name = 22298966
REMARK  6 active torsions:
REMARK  status: ('A' for Active; 'I' for Inactive)
REMARK    1  A    between atoms: C_2  and  O_17
REMARK    2  A    between atoms: C_3  and  O_19
REMARK    3  A    between atoms: C_4  and  O_21
REMARK    4  A    between atoms: C_5  and  C_23
REMARK    5  A    between atoms: C_6  and  C_9
REMARK    6  A    between atoms: C_23  and  O_24
REMARK                            x       y       z     vdW  Elec       q    Type
REMARK                         _______ _______ _______ _____ _____    ______ ____
ROOT
ATOM      1  O   UNL     1      36.295 -23.374 -13.919  0.00  0.00    -0.343 OA
ATOM      2  C   UNL     1      37.150 -26.121 -13.844  0.00  0.00    +0.169 C 
ATOM      3  C   UNL     1      36.638 -25.470 -15.132  0.00  0.00    +0.174 C 
ATOM      4  C   UNL     1      37.664 -25.072 -12.858  0.00  0.00    +0.169 C 
ATOM      5  C   UNL     1      36.632 -23.958 -12.660  0.00  0.00    +0.174 C 
ATOM      6  C   UNL     1      35.688 -24.307 -14.817  0.00  0.00    +0.202 C 
ENDROOT
BRANCH   6   9
ATOM      7  S   UNL     1      33.685 -23.526 -16.589  0.00  0.00    -0.055 S 
ATOM      8  N   UNL     1      36.160 -22.827 -16.781  0.00  0.00    -0.401 NA
ATOM      9  C   UNL     1      35.313 -23.524 -16.062  0.00  0.00    +0.168 C 
ATOM     10  C   UNL     1      35.490 -22.235 -17.843  0.00  0.00    +0.119 C 
ATOM     11  C   UNL     1      34.120 -22.504 -17.906  0.00  0.00    +0.057 C 
ATOM     12  C   UNL     1      36.065 -21.409 -18.834  0.00  0.00    +0.081 C 
ATOM     13  C   UNL     1      33.307 -21.977 -18.923  0.00  0.00    +0.008 C 
ATOM     14  C   UNL     1      35.262 -20.882 -19.849  0.00  0.00    -0.037 C 
ATOM     15  C   UNL     1      33.901 -21.163 -19.890  0.00  0.00    -0.007 C 
ATOM     16  C   UNL     1      35.872 -20.009 -20.894  0.00  0.00    +0.027 C 
ENDBRANCH   6   9
BRANCH   2  17
ATOM     17  O   UNL     1      38.231 -27.002 -14.154  0.00  0.00    -0.379 OA
ATOM     18  H   UNL     1      38.138 -27.318 -15.067  0.00  0.00    +0.211 HD
ENDBRANCH   2  17
BRANCH   3  19
ATOM     19  O   UNL     1      35.929 -26.445 -15.896  0.00  0.00    -0.379 OA
ATOM     20  H   UNL     1      36.528 -27.169 -16.134  0.00  0.00    +0.211 HD
ENDBRANCH   3  19
BRANCH   4  21
ATOM     21  O   UNL     1      37.929 -25.694 -11.604  0.00  0.00    -0.379 OA
ATOM     22  H   UNL     1      38.618 -26.367 -11.716  0.00  0.00    +0.211 HD
ENDBRANCH   4  21
BRANCH   5  23
ATOM     23  C   UNL     1      37.167 -22.845 -11.767  0.00  0.00    +0.169 C 
BRANCH  23  24
ATOM     24  O   UNL     1      38.567 -23.011 -11.629  0.00  0.00    -0.379 OA
ATOM     25  H   UNL     1      39.026 -22.368 -12.192  0.00  0.00    +0.211 HD
ENDBRANCH  23  24
ENDBRANCH   5  23
TORSDOF 6
ENDMDL
MODEL 2
REMARK VINA RESULT:      -9.3      8.134     11.492
REMARK  Name = 22298966
REMARK  6 active torsions:
REMARK  status: ('A' for Active; 'I' for Inactive)
REMARK    1  A    between atoms: C_2  and  O_17
REMARK    2  A    between atoms: C_3  and  O_19
REMARK    3  A    between atoms: C_4  and  O_21
REMARK    4  A    between atoms: C_5  and  C_23
REMARK    5  A    between atoms: C_6  and  C_9
REMARK    6  A    between atoms: C_23  and  O_24
REMARK                            x       y       z     vdW  Elec       q    Type
REMARK                         _______ _______ _______ _____ _____    ______ ____
ROOT
ATOM      1  O   UNL     1      34.120 -15.606 -22.699  0.00  0.00    -0.343 OA
ATOM      2  C   UNL     1      33.806 -15.775 -25.555  0.00  0.00    +0.169 C 
ATOM      3  C   UNL     1      34.074 -17.015 -24.698  0.00  0.00    +0.174 C 
ATOM      4  C   UNL     1      33.191 -14.649 -24.725  0.00  0.00    +0.169 C 
ATOM      5  C   UNL     1      34.009 -14.399 -23.455  0.00  0.00    +0.174 C 
ATOM      6  C   UNL     1      34.813 -16.638 -23.406  0.00  0.00    +0.202 C 
ENDROOT
BRANCH   6   9
ATOM      7  S   UNL     1      36.477 -18.378 -22.005  0.00  0.00    -0.055 S 
ATOM      8  N   UNL     1      33.900 -18.441 -21.926  0.00  0.00    -0.401 NA
ATOM      9  C   UNL     1      34.925 -17.813 -22.451  0.00  0.00    +0.168 C 
ATOM     10  C   UNL     1      34.354 -19.458 -21.098  0.00  0.00    +0.119 C 
ATOM     11  C   UNL     1      35.743 -19.580 -21.013  0.00  0.00    +0.057 C 
ATOM     12  C   UNL     1      33.548 -20.351 -20.358  0.00  0.00    +0.081 C 
ATOM     13  C   UNL     1      36.353 -20.563 -20.216  0.00  0.00    +0.008 C 
ATOM     14  C   UNL     1      34.149 -21.331 -19.563  0.00  0.00    -0.037 C 
ATOM     15  C   UNL     1      35.534 -21.433 -19.494  0.00  0.00    -0.007 C 
ATOM     16  C   UNL     1      33.294 -22.273 -18.781  0.00  0.00    +0.027 C 
ENDBRANCH   6   9
BRANCH   2  17
ATOM     17  O   UNL     1      32.887 -16.108 -26.597  0.00  0.00    -0.379 OA
ATOM     18  H   UNL     1      32.127 -15.506 -26.561  0.00  0.00    +0.211 HD
ENDBRANCH   2  17
BRANCH   3  19
ATOM     19  O   UNL     1      34.886 -17.926 -25.438  0.00  0.00    -0.379 OA
ATOM     20  H   UNL     1      34.506 -18.055 -26.321  0.00  0.00    +0.211 HD
ENDBRANCH   3  19
BRANCH   4  21
ATOM     21  O   UNL     1      33.157 -13.456 -25.503  0.00  0.00    -0.379 OA
ATOM     22  H   UNL     1      32.245 -13.276 -25.779  0.00  0.00    +0.211 HD
ENDBRANCH   4  21
BRANCH   5  23
ATOM     23  C   UNL     1      33.352 -13.356 -22.557  0.00  0.00    +0.169 C 
BRANCH  23  24
ATOM     24  O   UNL     1      31.966 -13.318 -22.848  0.00  0.00    -0.379 OA
ATOM     25  H   UNL     1      31.728 -14.090 -23.384  0.00  0.00    +0.211 HD
ENDBRANCH  23  24
ENDBRANCH   5  23
TORSDOF 6
ENDMDL
MODEL 3
REMARK VINA RESULT:      -9.1      1.960      2.911
REMARK  Name = 22298966
REMARK  6 active torsions:
REMARK  status: ('A' for Active; 'I' for Inactive)
REMARK    1  A    between atoms: C_2  and  O_17
REMARK    2  A    between atoms: C_3  and  O_19
REMARK    3  A    between atoms: C_4  and  O_21
REMARK    4  A    between atoms: C_5  and  C_23
REMARK    5  A    between atoms: C_6  and  C_9
REMARK    6  A    between atoms: C_23  and  O_24
REMARK                            x       y       z     vdW  Elec       q    Type
REMARK                         _______ _______ _______ _____ _____    ______ ____
ROOT
ATOM      1  O   UNL     1      33.956 -23.559 -15.669  0.00  0.00    -0.343 OA
ATOM      2  C   UNL     1      36.516 -23.842 -14.385  0.00  0.00    +0.169 C 
ATOM      3  C   UNL     1      36.344 -23.032 -15.672  0.00  0.00    +0.174 C 
ATOM      4  C   UNL     1      35.196 -23.961 -13.623  0.00  0.00    +0.169 C 
ATOM      5  C   UNL     1      34.074 -24.438 -14.549  0.00  0.00    +0.174 C 
ATOM      6  C   UNL     1      35.136 -23.531 -16.476  0.00  0.00    +0.202 C 
ENDROOT
BRANCH   6   9
ATOM      7  S   UNL     1      33.199 -22.424 -18.145  0.00  0.00    -0.055 S 
ATOM      8  N   UNL     1      35.732 -21.981 -18.351  0.00  0.00    -0.401 NA
ATOM      9  C   UNL     1      34.827 -22.631 -17.658  0.00  0.00    +0.168 C 
ATOM     10  C   UNL     1      35.112 -21.252 -19.356  0.00  0.00    +0.119 C 
ATOM     11  C   UNL     1      33.720 -21.367 -19.402  0.00  0.00    +0.057 C 
ATOM     12  C   UNL     1      35.756 -20.427 -20.304  0.00  0.00    +0.081 C 
ATOM     13  C   UNL     1      32.952 -20.690 -20.363  0.00  0.00    +0.008 C 
ATOM     14  C   UNL     1      34.997 -19.749 -21.263  0.00  0.00    -0.037 C 
ATOM     15  C   UNL     1      33.613 -19.880 -21.290  0.00  0.00    -0.007 C 
ATOM     16  C   UNL     1      35.681 -18.878 -22.263  0.00  0.00    +0.027 C 
ENDBRANCH   6   9
BRANCH   2  17
ATOM     17  O   UNL     1      37.459 -23.188 -13.534  0.00  0.00    -0.379 OA
ATOM     18  H   UNL     1      37.858 -23.838 -12.934  0.00  0.00    +0.211 HD
ENDBRANCH   2  17
BRANCH   3  19
ATOM     19  O   UNL     1      37.517 -23.178 -16.473  0.00  0.00    -0.379 OA
ATOM     20  H   UNL     1      38.226 -23.570 -15.941  0.00  0.00    +0.211 HD
ENDBRANCH   3  19
BRANCH   4  21
ATOM     21  O   UNL     1      35.351 -24.892 -12.555  0.00  0.00    -0.379 OA
ATOM     22  H   UNL     1      34.577 -24.846 -11.972  0.00  0.00    +0.211 HD
ENDBRANCH   4  21
BRANCH   5  23
ATOM     23  C   UNL     1      32.725 -24.458 -13.838  0.00  0.00    +0.169 C 
BRANCH  23  24
ATOM     24  O   UNL     1      32.698 -23.403 -12.893  0.00  0.00    -0.379 OA
ATOM     25  H   UNL     1      33.251 -22.671 -13.209  0.00  0.00    +0.211 HD
ENDBRANCH  23  24
ENDBRANCH   5  23
TORSDOF 6
ENDMDL
MODEL 4
REMARK VINA RESULT:      -9.0     10.451     13.467
REMARK  Name = 22298966
REMARK  6 active torsions:
REMARK  status: ('A' for Active; 'I' for Inactive)
REMARK    1  A    between atoms: C_2  and  O_17
REMARK    2  A    between atoms: C_3  and  O_19
REMARK    3  A    between atoms: C_4  and  O_21
REMARK    4  A    between atoms: C_5  and  C_23
REMARK    5  A    between atoms: C_6  and  C_9
REMARK    6  A    between atoms: C_23  and  O_24
REMARK                            x       y       z     vdW  Elec       q    Type
REMARK                         _______ _______ _______ _____ _____    ______ ____
ROOT
ATOM      1  O   UNL     1      34.018 -14.871 -22.351  0.00  0.00    -0.343 OA
ATOM      2  C   UNL     1      34.033 -16.398 -24.790  0.00  0.00    +0.169 C 
ATOM      3  C   UNL     1      33.801 -14.884 -24.787  0.00  0.00    +0.174 C 
ATOM      4  C   UNL     1      34.777 -16.848 -23.533  0.00  0.00    +0.169 C 
ATOM      5  C   UNL     1      34.104 -16.295 -22.275  0.00  0.00    +0.174 C 
ATOM      6  C   UNL     1      33.214 -14.424 -23.446  0.00  0.00    +0.202 C 
ENDROOT
BRANCH   6   9
ATOM      7  S   UNL     1      31.958 -12.195 -22.344  0.00  0.00    -0.055 S 
ATOM      8  N   UNL     1      33.957 -12.090 -23.970  0.00  0.00    -0.401 NA
ATOM      9  C   UNL     1      33.150 -12.910 -23.342  0.00  0.00    +0.168 C 
ATOM     10  C   UNL     1      33.627 -10.780 -23.653  0.00  0.00    +0.119 C 
ATOM     11  C   UNL     1      32.553 -10.635 -22.771  0.00  0.00    +0.057 C 
ATOM     12  C   UNL     1      34.270  -9.619 -24.135  0.00  0.00    +0.081 C 
ATOM     13  C   UNL     1      32.100  -9.372 -22.356  0.00  0.00    +0.008 C 
ATOM     14  C   UNL     1      33.825  -8.359 -23.725  0.00  0.00    -0.037 C 
ATOM     15  C   UNL     1      32.754  -8.239 -22.847  0.00  0.00    -0.007 C 
ATOM     16  C   UNL     1      34.508  -7.134 -24.236  0.00  0.00    +0.027 C 
ENDBRANCH   6   9
BRANCH   2  17
ATOM     17  O   UNL     1      34.827 -16.754 -25.924  0.00  0.00    -0.379 OA
ATOM     18  H   UNL     1      34.962 -15.972 -26.482  0.00  0.00    +0.211 HD
ENDBRANCH   2  17
BRANCH   3  19
ATOM     19  O   UNL     1      32.880 -14.553 -25.826  0.00  0.00    -0.379 OA
ATOM     20  H   UNL     1      31.989 -14.467 -25.454  0.00  0.00    +0.211 HD
ENDBRANCH   3  19
BRANCH   4  21
ATOM     21  O   UNL     1      34.782 -18.272 -23.475  0.00  0.00    -0.379 OA
ATOM     22  H   UNL     1      35.697 -18.593 -23.505  0.00  0.00    +0.211 HD
ENDBRANCH   4  21
BRANCH   5  23
ATOM     23  C   UNL     1      34.891 -16.639 -21.015  0.00  0.00    +0.169 C 
BRANCH  23  24
ATOM     24  O   UNL     1      34.925 -15.497 -20.178  0.00  0.00    -0.379 OA
ATOM     25  H   UNL     1      34.061 -15.384 -19.751  0.00  0.00    +0.211 HD
ENDBRANCH  23  24
ENDBRANCH   5  23
TORSDOF 6
ENDMDL
MODEL 5
REMARK VINA RESULT:      -8.7     10.114     13.777
REMARK  Name = 22298966
REMARK  6 active torsions:
REMARK  status: ('A' for Active; 'I' for Inactive)
REMARK    1  A    between atoms: C_2  and  O_17
REMARK    2  A    between atoms: C_3  and  O_19
REMARK    3  A    between atoms: C_4  and  O_21
REMARK    4  A    between atoms: C_5  and  C_23
REMARK    5  A    between atoms: C_6  and  C_9
REMARK    6  A    between atoms: C_23  and  O_24
REMARK                            x       y       z     vdW  Elec       q    Type
REMARK                         _______ _______ _______ _____ _____    ______ ____
ROOT
ATOM      1  O   UNL     1      34.185 -12.457 -24.357  0.00  0.00    -0.343 OA
ATOM      2  C   UNL     1      32.168 -11.205 -22.731  0.00  0.00    +0.169 C 
ATOM      3  C   UNL     1      32.571 -12.669 -22.532  0.00  0.00    +0.174 C 
ATOM      4  C   UNL     1      33.279 -10.412 -23.420  0.00  0.00    +0.169 C 
ATOM      5  C   UNL     1      33.760 -11.133 -24.682  0.00  0.00    +0.174 C 
ATOM      6  C   UNL     1      33.128 -13.264 -23.832  0.00  0.00    +0.202 C 
ENDROOT
BRANCH   6   9
ATOM      7  S   UNL     1      33.841 -15.711 -24.956  0.00  0.00    -0.055 S 
ATOM      8  N   UNL     1      34.132 -15.108 -22.466  0.00  0.00    -0.401 NA
ATOM      9  C   UNL     1      33.710 -14.651 -23.620  0.00  0.00    +0.168 C 
ATOM     10  C   UNL     1      34.603 -16.403 -22.624  0.00  0.00    +0.119 C 
ATOM     11  C   UNL     1      34.526 -16.909 -23.924  0.00  0.00    +0.057 C 
ATOM     12  C   UNL     1      35.139 -17.224 -21.608  0.00  0.00    +0.081 C 
ATOM     13  C   UNL     1      34.964 -18.205 -24.242  0.00  0.00    +0.008 C 
ATOM     14  C   UNL     1      35.577 -18.515 -21.918  0.00  0.00    -0.037 C 
ATOM     15  C   UNL     1      35.490 -18.997 -23.219  0.00  0.00    -0.007 C 
ATOM     16  C   UNL     1      36.142 -19.380 -20.841  0.00  0.00    +0.027 C 
ENDBRANCH   6   9
BRANCH   2  17
ATOM     17  O   UNL     1      31.921 -10.603 -21.459  0.00  0.00    -0.379 OA
ATOM     18  H   UNL     1      32.734 -10.185 -21.136  0.00  0.00    +0.211 HD
ENDBRANCH   2  17
BRANCH   3  19
ATOM     19  O   UNL     1      31.421 -13.419 -22.143  0.00  0.00    -0.379 OA
ATOM     20  H   UNL     1      31.616 -14.366 -22.205  0.00  0.00    +0.211 HD
ENDBRANCH   3  19
BRANCH   4  21
ATOM     21  O   UNL     1      32.786  -9.123 -23.776  0.00  0.00    -0.379 OA
ATOM     22  H   UNL     1      32.009  -8.913 -23.234  0.00  0.00    +0.211 HD
ENDBRANCH   4  21
BRANCH   5  23
ATOM     23  C   UNL     1      34.943 -10.417 -25.325  0.00  0.00    +0.169 C 
BRANCH  23  24
ATOM     24  O   UNL     1      35.679  -9.761 -24.309  0.00  0.00    -0.379 OA
ATOM     25  H   UNL     1      35.343 -10.031 -23.440  0.00  0.00    +0.211 HD
ENDBRANCH  23  24
ENDBRANCH   5  23
TORSDOF 6
ENDMDL
MODEL 6
REMARK VINA RESULT:      -8.7      3.581      4.667
REMARK  Name = 22298966
REMARK  6 active torsions:
REMARK  status: ('A' for Active; 'I' for Inactive)
REMARK    1  A    between atoms: C_2  and  O_17
REMARK    2  A    between atoms: C_3  and  O_19
REMARK    3  A    between atoms: C_4  and  O_21
REMARK    4  A    between atoms: C_5  and  C_23
REMARK    5  A    between atoms: C_6  and  C_9
REMARK    6  A    between atoms: C_23  and  O_24
REMARK                            x       y       z     vdW  Elec       q    Type
REMARK                         _______ _______ _______ _____ _____    ______ ____
ROOT
ATOM      1  O   UNL     1      34.668 -24.079 -12.909  0.00  0.00    -0.343 OA
ATOM      2  C   UNL     1      36.822 -23.342 -14.670  0.00  0.00    +0.169 C 
ATOM      3  C   UNL     1      35.363 -23.339 -15.134  0.00  0.00    +0.174 C 
ATOM      4  C   UNL     1      36.920 -23.213 -13.149  0.00  0.00    +0.169 C 
ATOM      5  C   UNL     1      36.013 -24.233 -12.457  0.00  0.00    +0.174 C 
ATOM      6  C   UNL     1      34.524 -24.326 -14.310  0.00  0.00    +0.202 C 
ENDROOT
BRANCH   6   9
ATOM      7  S   UNL     1      31.930 -25.158 -13.729  0.00  0.00    -0.055 S 
ATOM      8  N   UNL     1      32.536 -23.417 -15.533  0.00  0.00    -0.401 NA
ATOM      9  C   UNL     1      33.042 -24.209 -14.618  0.00  0.00    +0.168 C 
ATOM     10  C   UNL     1      31.155 -23.553 -15.552  0.00  0.00    +0.119 C 
ATOM     11  C   UNL     1      30.635 -24.465 -14.630  0.00  0.00    +0.057 C 
ATOM     12  C   UNL     1      30.262 -22.864 -16.401  0.00  0.00    +0.081 C 
ATOM     13  C   UNL     1      29.256 -24.713 -14.529  0.00  0.00    +0.008 C 
ATOM     14  C   UNL     1      28.889 -23.105 -16.306  0.00  0.00    -0.037 C 
ATOM     15  C   UNL     1      28.394 -24.017 -15.381  0.00  0.00    -0.007 C 
ATOM     16  C   UNL     1      27.948 -22.374 -17.205  0.00  0.00    +0.027 C 
ENDBRANCH   6   9
BRANCH   2  17
ATOM     17  O   UNL     1      37.508 -22.232 -15.252  0.00  0.00    -0.379 OA
ATOM     18  H   UNL     1      37.887 -22.498 -16.105  0.00  0.00    +0.211 HD
ENDBRANCH   2  17
BRANCH   3  19
ATOM     19  O   UNL     1      35.311 -23.731 -16.506  0.00  0.00    -0.379 OA
ATOM     20  H   UNL     1      35.140 -24.683 -16.565  0.00  0.00    +0.211 HD
ENDBRANCH   3  19
BRANCH   4  21
ATOM     21  O   UNL     1      38.269 -23.433 -12.745  0.00  0.00    -0.379 OA
ATOM     22  H   UNL     1      38.499 -24.365 -12.883  0.00  0.00    +0.211 HD
ENDBRANCH   4  21
BRANCH   5  23
ATOM     23  C   UNL     1      36.011 -24.050 -10.942  0.00  0.00    +0.169 C 
BRANCH  23  24
ATOM     24  O   UNL     1      35.282 -25.115 -10.360  0.00  0.00    -0.379 OA
ATOM     25  H   UNL     1      35.897 -25.732  -9.933  0.00  0.00    +0.211 HD
ENDBRANCH  23  24
ENDBRANCH   5  23
TORSDOF 6
ENDMDL
MODEL 7
REMARK VINA RESULT:      -8.6      1.459      2.240
REMARK  Name = 22298966
REMARK  6 active torsions:
REMARK  status: ('A' for Active; 'I' for Inactive)
REMARK    1  A    between atoms: C_2  and  O_17
REMARK    2  A    between atoms: C_3  and  O_19
REMARK    3  A    between atoms: C_4  and  O_21
REMARK    4  A    between atoms: C_5  and  C_23
REMARK    5  A    between atoms: C_6  and  C_9
REMARK    6  A    between atoms: C_23  and  O_24
REMARK                            x       y       z     vdW  Elec       q    Type
REMARK                         _______ _______ _______ _____ _____    ______ ____
ROOT
ATOM      1  O   UNL     1      37.927 -24.436 -15.065  0.00  0.00    -0.343 OA
ATOM      2  C   UNL     1      36.727 -24.777 -12.472  0.00  0.00    +0.169 C 
ATOM      3  C   UNL     1      35.968 -24.128 -13.633  0.00  0.00    +0.174 C 
ATOM      4  C   UNL     1      37.859 -25.671 -12.978  0.00  0.00    +0.169 C 
ATOM      5  C   UNL     1      38.731 -24.923 -13.990  0.00  0.00    +0.174 C 
ATOM      6  C   UNL     1      36.942 -23.493 -14.635  0.00  0.00    +0.202 C 
ENDROOT
BRANCH   6   9
ATOM      7  S   UNL     1      34.606 -23.459 -16.151  0.00  0.00    -0.055 S 
ATOM      8  N   UNL     1      36.788 -22.250 -16.804  0.00  0.00    -0.401 NA
ATOM      9  C   UNL     1      36.235 -23.008 -15.887  0.00  0.00    +0.168 C 
ATOM     10  C   UNL     1      35.867 -21.990 -17.809  0.00  0.00    +0.119 C 
ATOM     11  C   UNL     1      34.609 -22.570 -17.627  0.00  0.00    +0.057 C 
ATOM     12  C   UNL     1      36.093 -21.210 -18.964  0.00  0.00    +0.081 C 
ATOM     13  C   UNL     1      33.572 -22.398 -18.558  0.00  0.00    +0.008 C 
ATOM     14  C   UNL     1      35.065 -21.034 -19.895  0.00  0.00    -0.037 C 
ATOM     15  C   UNL     1      33.821 -21.621 -19.692  0.00  0.00    -0.007 C 
ATOM     16  C   UNL     1      35.308 -20.209 -21.114  0.00  0.00    +0.027 C 
ENDBRANCH   6   9
BRANCH   2  17
ATOM     17  O   UNL     1      35.829 -25.590 -11.713  0.00  0.00    -0.379 OA
ATOM     18  H   UNL     1      35.774 -25.250 -10.806  0.00  0.00    +0.211 HD
ENDBRANCH   2  17
BRANCH   3  19
ATOM     19  O   UNL     1      35.114 -23.107 -13.117  0.00  0.00    -0.379 OA
ATOM     20  H   UNL     1      34.900 -22.477 -13.822  0.00  0.00    +0.211 HD
ENDBRANCH   3  19
BRANCH   4  21
ATOM     21  O   UNL     1      38.664 -26.081 -11.877  0.00  0.00    -0.379 OA
ATOM     22  H   UNL     1      39.601 -25.982 -12.107  0.00  0.00    +0.211 HD
ENDBRANCH   4  21
BRANCH   5  23
ATOM     23  C   UNL     1      39.800 -25.829 -14.592  0.00  0.00    +0.169 C 
BRANCH  23  24
ATOM     24  O   UNL     1      41.012 -25.101 -14.679  0.00  0.00    -0.379 OA
ATOM     25  H   UNL     1      41.224 -24.937 -15.611  0.00  0.00    +0.211 HD
ENDBRANCH  23  24
ENDBRANCH   5  23
TORSDOF 6
ENDMDL
MODEL 8
REMARK VINA RESULT:      -8.6      3.751      5.377
REMARK  Name = 22298966
REMARK  6 active torsions:
REMARK  status: ('A' for Active; 'I' for Inactive)
REMARK    1  A    between atoms: C_2  and  O_17
REMARK    2  A    between atoms: C_3  and  O_19
REMARK    3  A    between atoms: C_4  and  O_21
REMARK    4  A    between atoms: C_5  and  C_23
REMARK    5  A    between atoms: C_6  and  C_9
REMARK    6  A    between atoms: C_23  and  O_24
REMARK                            x       y       z     vdW  Elec       q    Type
REMARK                         _______ _______ _______ _____ _____    ______ ____
ROOT
ATOM      1  O   UNL     1      31.086 -22.995 -16.796  0.00  0.00    -0.343 OA
ATOM      2  C   UNL     1      32.158 -24.226 -14.426  0.00  0.00    +0.169 C 
ATOM      3  C   UNL     1      33.056 -23.521 -15.446  0.00  0.00    +0.174 C 
ATOM      4  C   UNL     1      30.718 -23.721 -14.512  0.00  0.00    +0.169 C 
ATOM      5  C   UNL     1      30.214 -23.753 -15.957  0.00  0.00    +0.174 C 
ATOM      6  C   UNL     1      32.413 -23.527 -16.839  0.00  0.00    +0.202 C 
ENDROOT
BRANCH   6   9
ATOM      7  S   UNL     1      34.896 -22.668 -17.763  0.00  0.00    -0.055 S 
ATOM      8  N   UNL     1      32.633 -21.927 -18.753  0.00  0.00    -0.401 NA
ATOM      9  C   UNL     1      33.186 -22.674 -17.828  0.00  0.00    +0.168 C 
ATOM     10  C   UNL     1      33.622 -21.284 -19.484  0.00  0.00    +0.119 C 
ATOM     11  C   UNL     1      34.932 -21.567 -19.089  0.00  0.00    +0.057 C 
ATOM     12  C   UNL     1      33.417 -20.397 -20.563  0.00  0.00    +0.081 C 
ATOM     13  C   UNL     1      36.041 -20.994 -19.732  0.00  0.00    +0.008 C 
ATOM     14  C   UNL     1      34.516 -19.823 -21.208  0.00  0.00    -0.037 C 
ATOM     15  C   UNL     1      35.811 -20.119 -20.796  0.00  0.00    -0.007 C 
ATOM     16  C   UNL     1      34.295 -18.886 -22.348  0.00  0.00    +0.027 C 
ENDBRANCH   6   9
BRANCH   2  17
ATOM     17  O   UNL     1      32.640 -23.964 -13.107  0.00  0.00    -0.379 OA
ATOM     18  H   UNL     1      33.155 -23.142 -13.109  0.00  0.00    +0.211 HD
ENDBRANCH   2  17
BRANCH   3  19
ATOM     19  O   UNL     1      34.306 -24.206 -15.517  0.00  0.00    -0.379 OA
ATOM     20  H   UNL     1      35.006 -23.580 -15.760  0.00  0.00    +0.211 HD
ENDBRANCH   3  19
BRANCH   4  21
ATOM     21  O   UNL     1      29.881 -24.545 -13.705  0.00  0.00    -0.379 OA
ATOM     22  H   UNL     1      29.825 -25.430 -14.096  0.00  0.00    +0.211 HD
ENDBRANCH   4  21
BRANCH   5  23
ATOM     23  C   UNL     1      28.819 -23.150 -16.082  0.00  0.00    +0.169 C 
BRANCH  23  24
ATOM     24  O   UNL     1      28.880 -22.055 -16.979  0.00  0.00    -0.379 OA
ATOM     25  H   UNL     1      29.194 -22.362 -17.843  0.00  0.00    +0.211 HD
ENDBRANCH  23  24
ENDBRANCH   5  23
TORSDOF 6
ENDMDL
MODEL 9
REMARK VINA RESULT:      -8.5      2.881      3.865
REMARK  Name = 22298966
REMARK  6 active torsions:
REMARK  status: ('A' for Active; 'I' for Inactive)
REMARK    1  A    between atoms: C_2  and  O_17
REMARK    2  A    between atoms: C_3  and  O_19
REMARK    3  A    between atoms: C_4  and  O_21
REMARK    4  A    between atoms: C_5  and  C_23
REMARK    5  A    between atoms: C_6  and  C_9
REMARK    6  A    between atoms: C_23  and  O_24
REMARK                            x       y       z     vdW  Elec       q    Type
REMARK                         _______ _______ _______ _____ _____    ______ ____
ROOT
ATOM      1  O   UNL     1      36.167 -23.680 -13.424  0.00  0.00    -0.343 OA
ATOM      2  C   UNL     1      37.855 -25.753 -14.487  0.00  0.00    +0.169 C 
ATOM      3  C   UNL     1      36.470 -25.461 -15.071  0.00  0.00    +0.174 C 
ATOM      4  C   UNL     1      38.412 -24.538 -13.745  0.00  0.00    +0.169 C 
ATOM      5  C   UNL     1      37.387 -23.991 -12.749  0.00  0.00    +0.174 C 
ATOM      6  C   UNL     1      35.554 -24.828 -14.015  0.00  0.00    +0.202 C 
ENDROOT
BRANCH   6   9
ATOM      7  S   UNL     1      34.264 -23.434 -16.053  0.00  0.00    -0.055 S 
ATOM      8  N   UNL     1      33.061 -24.606 -14.096  0.00  0.00    -0.401 NA
ATOM      9  C   UNL     1      34.240 -24.355 -14.611  0.00  0.00    +0.168 C 
ATOM     10  C   UNL     1      32.076 -24.033 -14.889  0.00  0.00    +0.119 C 
ATOM     11  C   UNL     1      32.543 -23.346 -16.013  0.00  0.00    +0.057 C 
ATOM     12  C   UNL     1      30.684 -24.088 -14.658  0.00  0.00    +0.081 C 
ATOM     13  C   UNL     1      31.669 -22.712 -16.911  0.00  0.00    +0.008 C 
ATOM     14  C   UNL     1      29.808 -23.460 -15.548  0.00  0.00    -0.037 C 
ATOM     15  C   UNL     1      30.296 -22.782 -16.660  0.00  0.00    -0.007 C 
ATOM     16  C   UNL     1      28.338 -23.522 -15.302  0.00  0.00    +0.027 C 
ENDBRANCH   6   9
BRANCH   2  17
ATOM     17  O   UNL     1      38.759 -26.076 -15.546  0.00  0.00    -0.379 OA
ATOM     18  H   UNL     1      39.267 -26.867 -15.307  0.00  0.00    +0.211 HD
ENDBRANCH   2  17
BRANCH   3  19
ATOM     19  O   UNL     1      35.883 -26.686 -15.509  0.00  0.00    -0.379 OA
ATOM     20  H   UNL     1      35.794 -26.676 -16.475  0.00  0.00    +0.211 HD
ENDBRANCH   3  19
BRANCH   4  21
ATOM     21  O   UNL     1      39.593 -24.916 -13.043  0.00  0.00    -0.379 OA
ATOM     22  H   UNL     1      39.424 -24.890 -12.088  0.00  0.00    +0.211 HD
ENDBRANCH   4  21
BRANCH   5  23
ATOM     23  C   UNL     1      37.878 -22.713 -12.077  0.00  0.00    +0.169 C 
BRANCH  23  24
ATOM     24  O   UNL     1      37.191 -22.557 -10.849  0.00  0.00    -0.379 OA
ATOM     25  H   UNL     1      36.556 -23.282 -10.738  0.00  0.00    +0.211 HD
ENDBRANCH  23  24
ENDBRANCH   5  23
TORSDOF 6
ENDMDL
