MODEL 1
REMARK VINA RESULT:      -8.0      0.000      0.000
REMARK  Name = 102515267
REMARK  5 active torsions:
REMARK  status: ('A' for Active; 'I' for Inactive)
REMARK    1  A    between atoms: C_1  and  C_3
REMARK    2  A    between atoms: C_1  and  O_12
REMARK    3  A    between atoms: C_1  and  CA_14
REMARK    4  A    between atoms: CA_14  and  N_15
REMARK    5  A    between atoms: CA_14  and  C_21
REMARK                            x       y       z     vdW  Elec       q    Type
REMARK                         _______ _______ _______ _____ _____    ______ ____
ROOT
ATOM      1  C   UNL     1      35.478 -17.459 -22.347  0.00  0.00    +0.125 C 
ENDROOT
BRANCH   1   3
ATOM      2  N   UNL     1      36.857 -20.192 -20.356  0.00  0.00    -0.312 N 
ATOM      3  C   UNL     1      35.764 -18.633 -21.499  0.00  0.00    +0.019 C 
ATOM      4  C   UNL     1      34.808 -19.501 -20.902  0.00  0.00    +0.013 C 
ATOM      5  C   UNL     1      35.519 -20.469 -20.191  0.00  0.00    +0.048 C 
ATOM      6  C   UNL     1      37.016 -19.084 -21.145  0.00  0.00    +0.060 C 
ATOM      7  C   UNL     1      33.399 -19.555 -20.898  0.00  0.00    +0.001 C 
ATOM      8  C   UNL     1      34.891 -21.493 -19.474  0.00  0.00    +0.015 C 
ATOM      9  C   UNL     1      32.757 -20.574 -20.185  0.00  0.00    +0.000 C 
ATOM     10  C   UNL     1      33.494 -21.527 -19.484  0.00  0.00    +0.001 C 
ATOM     11  H   UNL     1      37.593 -20.714 -19.964  0.00  0.00    +0.152 HD
ENDBRANCH   1   3
BRANCH   1  12
ATOM     12  O   UNL     1      34.877 -16.382 -21.596  0.00  0.00    -0.382 OA
ATOM     13  H   UNL     1      35.390 -15.570 -21.727  0.00  0.00    +0.211 HD
ENDBRANCH   1  12
BRANCH   1  14
ATOM     14  CA  UNL     1      34.595 -17.759 -23.595  0.00  0.00    +0.072 C 
BRANCH  14  15
ATOM     15  N   UNL     1      35.123 -19.006 -24.238  0.00  0.00    +0.391 N 
ATOM     16  H1  UNL     1      34.645 -19.159 -25.126  0.00  0.00    -0.088 HD
ATOM     17  H2  UNL     1      34.958 -19.802 -23.621  0.00  0.00    -0.088 HD
ATOM     18  H3  UNL     1      36.125 -18.906 -24.402  0.00  0.00    -0.088 HD
ENDBRANCH  14  15
BRANCH  14  21
ATOM     19  O   UNL     1      34.892 -16.807 -25.768  0.00  0.00    -0.248 OA
ATOM     20  OXT UNL     1      33.805 -15.604 -24.162  0.00  0.00    -0.248 OA
ATOM     21  C   UNL     1      34.420 -16.615 -24.614  0.00  0.00    +0.347 C 
ENDBRANCH  14  21
ENDBRANCH   1  14
TORSDOF 5
ENDMDL
MODEL 2
REMARK VINA RESULT:      -7.9      1.539      1.886
REMARK  Name = 102515267
REMARK  5 active torsions:
REMARK  status: ('A' for Active; 'I' for Inactive)
REMARK    1  A    between atoms: C_1  and  C_3
REMARK    2  A    between atoms: C_1  and  O_12
REMARK    3  A    between atoms: C_1  and  CA_14
REMARK    4  A    between atoms: CA_14  and  N_15
REMARK    5  A    between atoms: CA_14  and  C_21
REMARK                            x       y       z     vdW  Elec       q    Type
REMARK                         _______ _______ _______ _____ _____    ______ ____
ROOT
ATOM      1  C   UNL     1      34.838 -17.633 -22.750  0.00  0.00    +0.125 C 
ENDROOT
BRANCH   1   3
ATOM      2  N   UNL     1      36.768 -19.772 -20.507  0.00  0.00    -0.312 N 
ATOM      3  C   UNL     1      35.367 -18.614 -21.782  0.00  0.00    +0.019 C 
ATOM      4  C   UNL     1      34.614 -19.575 -21.051  0.00  0.00    +0.013 C 
ATOM      5  C   UNL     1      35.516 -20.287 -20.259  0.00  0.00    +0.048 C 
ATOM      6  C   UNL     1      36.688 -18.760 -21.426  0.00  0.00    +0.060 C 
ATOM      7  C   UNL     1      33.245 -19.907 -20.987  0.00  0.00    +0.001 C 
ATOM      8  C   UNL     1      35.118 -21.320 -19.403  0.00  0.00    +0.015 C 
ATOM      9  C   UNL     1      32.832 -20.938 -20.136  0.00  0.00    +0.000 C 
ATOM     10  C   UNL     1      33.756 -21.632 -19.357  0.00  0.00    +0.001 C 
ATOM     11  H   UNL     1      37.600 -20.085 -20.085  0.00  0.00    +0.152 HD
ENDBRANCH   1   3
BRANCH   1  12
ATOM     12  O   UNL     1      35.446 -17.775 -24.052  0.00  0.00    -0.382 OA
ATOM     13  H   UNL     1      36.372 -18.045 -23.949  0.00  0.00    +0.211 HD
ENDBRANCH   1  12
BRANCH   1  14
ATOM     14  CA  UNL     1      34.955 -16.146 -22.298  0.00  0.00    +0.072 C 
BRANCH  14  15
ATOM     15  N   UNL     1      34.479 -16.062 -20.880  0.00  0.00    +0.391 N 
ATOM     16  H1  UNL     1      33.477 -15.874 -20.867  0.00  0.00    -0.088 HD
ATOM     17  H2  UNL     1      34.973 -15.308 -20.400  0.00  0.00    -0.088 HD
ATOM     18  H3  UNL     1      34.666 -16.945 -20.405  0.00  0.00    -0.088 HD
ENDBRANCH  14  15
BRANCH  14  21
ATOM     19  O   UNL     1      34.340 -13.893 -22.807  0.00  0.00    -0.248 OA
ATOM     20  OXT UNL     1      33.741 -15.564 -24.242  0.00  0.00    -0.248 OA
ATOM     21  C   UNL     1      34.279 -15.091 -23.197  0.00  0.00    +0.347 C 
ENDBRANCH  14  21
ENDBRANCH   1  14
TORSDOF 5
ENDMDL
MODEL 3
REMARK VINA RESULT:      -7.8      2.930      5.413
REMARK  Name = 102515267
REMARK  5 active torsions:
REMARK  status: ('A' for Active; 'I' for Inactive)
REMARK    1  A    between atoms: C_1  and  C_3
REMARK    2  A    between atoms: C_1  and  O_12
REMARK    3  A    between atoms: C_1  and  CA_14
REMARK    4  A    between atoms: CA_14  and  N_15
REMARK    5  A    between atoms: CA_14  and  C_21
REMARK                            x       y       z     vdW  Elec       q    Type
REMARK                         _______ _______ _______ _____ _____    ______ ____
ROOT
ATOM      1  C   UNL     1      36.001 -19.039 -20.790  0.00  0.00    +0.125 C 
ENDROOT
BRANCH   1   3
ATOM      2  N   UNL     1      35.275 -17.425 -23.983  0.00  0.00    -0.312 N 
ATOM      3  C   UNL     1      35.621 -18.169 -21.920  0.00  0.00    +0.019 C 
ATOM      4  C   UNL     1      35.083 -16.854 -21.835  0.00  0.00    +0.013 C 
ATOM      5  C   UNL     1      34.875 -16.411 -23.143  0.00  0.00    +0.048 C 
ATOM      6  C   UNL     1      35.727 -18.492 -23.254  0.00  0.00    +0.060 C 
ATOM      7  C   UNL     1      34.751 -15.997 -20.766  0.00  0.00    +0.001 C 
ATOM      8  C   UNL     1      34.350 -15.148 -23.437  0.00  0.00    +0.015 C 
ATOM      9  C   UNL     1      34.226 -14.730 -21.046  0.00  0.00    +0.000 C 
ATOM     10  C   UNL     1      34.029 -14.315 -22.361  0.00  0.00    +0.001 C 
ATOM     11  H   UNL     1      35.240 -17.389 -24.966  0.00  0.00    +0.152 HD
ENDBRANCH   1   3
BRANCH   1  12
ATOM     12  O   UNL     1      37.406 -19.371 -20.810  0.00  0.00    -0.382 OA
ATOM     13  H   UNL     1      37.653 -19.783 -19.967  0.00  0.00    +0.211 HD
ENDBRANCH   1  12
BRANCH   1  14
ATOM     14  CA  UNL     1      35.173 -20.354 -20.675  0.00  0.00    +0.072 C 
BRANCH  14  15
ATOM     15  N   UNL     1      33.728 -19.974 -20.559  0.00  0.00    +0.391 N 
ATOM     16  H1  UNL     1      33.300 -20.491 -19.791  0.00  0.00    -0.088 HD
ATOM     17  H2  UNL     1      33.246 -20.200 -21.431  0.00  0.00    -0.088 HD
ATOM     18  H3  UNL     1      33.653 -18.973 -20.380  0.00  0.00    -0.088 HD
ENDBRANCH  14  15
BRANCH  14  21
ATOM     19  O   UNL     1      35.063 -22.491 -19.610  0.00  0.00    -0.248 OA
ATOM     20  OXT UNL     1      36.453 -20.892 -18.761  0.00  0.00    -0.248 OA
ATOM     21  C   UNL     1      35.597 -21.349 -19.576  0.00  0.00    +0.347 C 
ENDBRANCH  14  21
ENDBRANCH   1  14
TORSDOF 5
ENDMDL
MODEL 4
REMARK VINA RESULT:      -7.7      7.336     10.016
REMARK  Name = 102515267
REMARK  5 active torsions:
REMARK  status: ('A' for Active; 'I' for Inactive)
REMARK    1  A    between atoms: C_1  and  C_3
REMARK    2  A    between atoms: C_1  and  O_12
REMARK    3  A    between atoms: C_1  and  CA_14
REMARK    4  A    between atoms: CA_14  and  N_15
REMARK    5  A    between atoms: CA_14  and  C_21
REMARK                            x       y       z     vdW  Elec       q    Type
REMARK                         _______ _______ _______ _____ _____    ______ ____
ROOT
ATOM      1  C   UNL     1      35.412 -24.094 -13.748  0.00  0.00    +0.125 C 
ENDROOT
BRANCH   1   3
ATOM      2  N   UNL     1      37.270 -22.241 -16.287  0.00  0.00    -0.312 N 
ATOM      3  C   UNL     1      35.925 -23.368 -14.927  0.00  0.00    +0.019 C 
ATOM      4  C   UNL     1      35.217 -23.099 -16.132  0.00  0.00    +0.013 C 
ATOM      5  C   UNL     1      36.083 -22.392 -16.967  0.00  0.00    +0.048 C 
ATOM      6  C   UNL     1      37.185 -22.829 -15.053  0.00  0.00    +0.060 C 
ATOM      7  C   UNL     1      33.917 -23.391 -16.592  0.00  0.00    +0.001 C 
ATOM      8  C   UNL     1      35.714 -21.959 -18.246  0.00  0.00    +0.015 C 
ATOM      9  C   UNL     1      33.534 -22.964 -17.868  0.00  0.00    +0.000 C 
ATOM     10  C   UNL     1      34.420 -22.260 -18.681  0.00  0.00    +0.001 C 
ATOM     11  H   UNL     1      38.066 -21.780 -16.637  0.00  0.00    +0.152 HD
ENDBRANCH   1   3
BRANCH   1  12
ATOM     12  O   UNL     1      34.422 -23.328 -13.029  0.00  0.00    -0.382 OA
ATOM     13  H   UNL     1      34.089 -23.850 -12.281  0.00  0.00    +0.211 HD
ENDBRANCH   1  12
BRANCH   1  14
ATOM     14  CA  UNL     1      36.509 -24.567 -12.747  0.00  0.00    +0.072 C 
BRANCH  14  15
ATOM     15  N   UNL     1      36.701 -26.040 -12.944  0.00  0.00    +0.391 N 
ATOM     16  H1  UNL     1      36.841 -26.490 -12.040  0.00  0.00    -0.088 HD
ATOM     17  H2  UNL     1      37.519 -26.200 -13.534  0.00  0.00    -0.088 HD
ATOM     18  H3  UNL     1      35.876 -26.434 -13.396  0.00  0.00    -0.088 HD
ENDBRANCH  14  15
BRANCH  14  21
ATOM     19  O   UNL     1      37.013 -23.277 -10.799  0.00  0.00    -0.248 OA
ATOM     20  OXT UNL     1      35.408 -24.895 -10.681  0.00  0.00    -0.248 OA
ATOM     21  C   UNL     1      36.297 -24.207 -11.263  0.00  0.00    +0.347 C 
ENDBRANCH  14  21
ENDBRANCH   1  14
TORSDOF 5
ENDMDL
MODEL 5
REMARK VINA RESULT:      -7.6      7.264      9.415
REMARK  Name = 102515267
REMARK  5 active torsions:
REMARK  status: ('A' for Active; 'I' for Inactive)
REMARK    1  A    between atoms: C_1  and  C_3
REMARK    2  A    between atoms: C_1  and  O_12
REMARK    3  A    between atoms: C_1  and  CA_14
REMARK    4  A    between atoms: CA_14  and  N_15
REMARK    5  A    between atoms: CA_14  and  C_21
REMARK                            x       y       z     vdW  Elec       q    Type
REMARK                         _______ _______ _______ _____ _____    ______ ____
ROOT
ATOM      1  C   UNL     1      35.180 -23.608 -15.376  0.00  0.00    +0.125 C 
ENDROOT
BRANCH   1   3
ATOM      2  N   UNL     1      32.468 -22.941 -17.729  0.00  0.00    -0.312 N 
ATOM      3  C   UNL     1      33.917 -23.355 -16.098  0.00  0.00    +0.019 C 
ATOM      4  C   UNL     1      32.613 -23.294 -15.531  0.00  0.00    +0.013 C 
ATOM      5  C   UNL     1      31.724 -23.033 -16.575  0.00  0.00    +0.048 C 
ATOM      6  C   UNL     1      33.795 -23.134 -17.451  0.00  0.00    +0.060 C 
ATOM      7  C   UNL     1      32.104 -23.436 -14.224  0.00  0.00    +0.001 C 
ATOM      8  C   UNL     1      30.344 -22.907 -16.377  0.00  0.00    +0.015 C 
ATOM      9  C   UNL     1      30.727 -23.312 -14.011  0.00  0.00    +0.000 C 
ATOM     10  C   UNL     1      29.862 -23.052 -15.073  0.00  0.00    +0.001 C 
ATOM     11  H   UNL     1      32.100 -22.763 -18.624  0.00  0.00    +0.152 HD
ENDBRANCH   1   3
BRANCH   1  12
ATOM     12  O   UNL     1      36.337 -23.336 -16.196  0.00  0.00    -0.382 OA
ATOM     13  H   UNL     1      36.998 -24.034 -16.064  0.00  0.00    +0.211 HD
ENDBRANCH   1  12
BRANCH   1  14
ATOM     14  CA  UNL     1      35.310 -25.041 -14.779  0.00  0.00    +0.072 C 
BRANCH  14  15
ATOM     15  N   UNL     1      35.237 -24.922 -13.287  0.00  0.00    +0.391 N 
ATOM     16  H1  UNL     1      35.847 -25.618 -12.859  0.00  0.00    -0.088 HD
ATOM     17  H2  UNL     1      34.276 -25.077 -12.980  0.00  0.00    -0.088 HD
ATOM     18  H3  UNL     1      35.536 -23.988 -13.005  0.00  0.00    -0.088 HD
ENDBRANCH  14  15
BRANCH  14  21
ATOM     19  O   UNL     1      36.283 -26.896 -15.932  0.00  0.00    -0.248 OA
ATOM     20  OXT UNL     1      37.643 -25.420 -14.846  0.00  0.00    -0.248 OA
ATOM     21  C   UNL     1      36.526 -25.875 -15.232  0.00  0.00    +0.347 C 
ENDBRANCH  14  21
ENDBRANCH   1  14
TORSDOF 5
ENDMDL
MODEL 6
REMARK VINA RESULT:      -7.6      1.787      2.531
REMARK  Name = 102515267
REMARK  5 active torsions:
REMARK  status: ('A' for Active; 'I' for Inactive)
REMARK    1  A    between atoms: C_1  and  C_3
REMARK    2  A    between atoms: C_1  and  O_12
REMARK    3  A    between atoms: C_1  and  CA_14
REMARK    4  A    between atoms: CA_14  and  N_15
REMARK    5  A    between atoms: CA_14  and  C_21
REMARK                            x       y       z     vdW  Elec       q    Type
REMARK                         _______ _______ _______ _____ _____    ______ ____
ROOT
ATOM      1  C   UNL     1      35.055 -17.854 -21.575  0.00  0.00    +0.125 C 
ENDROOT
BRANCH   1   3
ATOM      2  N   UNL     1      32.511 -20.245 -20.505  0.00  0.00    -0.312 N 
ATOM      3  C   UNL     1      34.246 -18.963 -21.033  0.00  0.00    +0.019 C 
ATOM      4  C   UNL     1      34.729 -20.093 -20.315  0.00  0.00    +0.013 C 
ATOM      5  C   UNL     1      33.621 -20.881 -19.997  0.00  0.00    +0.048 C 
ATOM      6  C   UNL     1      32.879 -19.085 -21.134  0.00  0.00    +0.060 C 
ATOM      7  C   UNL     1      36.008 -20.522 -19.906  0.00  0.00    +0.001 C 
ATOM      8  C   UNL     1      33.728 -22.082 -19.285  0.00  0.00    +0.015 C 
ATOM      9  C   UNL     1      36.129 -21.721 -19.193  0.00  0.00    +0.000 C 
ATOM     10  C   UNL     1      35.006 -22.487 -18.890  0.00  0.00    +0.001 C 
ATOM     11  H   UNL     1      31.588 -20.576 -20.429  0.00  0.00    +0.152 HD
ENDBRANCH   1   3
BRANCH   1  12
ATOM     12  O   UNL     1      35.320 -16.840 -20.582  0.00  0.00    -0.382 OA
ATOM     13  H   UNL     1      36.082 -16.307 -20.859  0.00  0.00    +0.211 HD
ENDBRANCH   1  12
BRANCH   1  14
ATOM     14  CA  UNL     1      34.457 -17.174 -22.844  0.00  0.00    +0.072 C 
BRANCH  14  15
ATOM     15  N   UNL     1      35.385 -17.449 -23.988  0.00  0.00    +0.391 N 
ATOM     16  H1  UNL     1      35.887 -16.596 -24.233  0.00  0.00    -0.088 HD
ATOM     17  H2  UNL     1      34.845 -17.770 -24.794  0.00  0.00    -0.088 HD
ATOM     18  H3  UNL     1      36.053 -18.172 -23.719  0.00  0.00    -0.088 HD
ENDBRANCH  14  15
BRANCH  14  21
ATOM     19  O   UNL     1      33.012 -15.389 -22.180  0.00  0.00    -0.248 OA
ATOM     20  OXT UNL     1      34.991 -14.899 -23.205  0.00  0.00    -0.248 OA
ATOM     21  C   UNL     1      34.111 -15.676 -22.730  0.00  0.00    +0.347 C 
ENDBRANCH  14  21
ENDBRANCH   1  14
TORSDOF 5
ENDMDL
MODEL 7
REMARK VINA RESULT:      -7.5      8.714     10.428
REMARK  Name = 102515267
REMARK  5 active torsions:
REMARK  status: ('A' for Active; 'I' for Inactive)
REMARK    1  A    between atoms: C_1  and  C_3
REMARK    2  A    between atoms: C_1  and  O_12
REMARK    3  A    between atoms: C_1  and  CA_14
REMARK    4  A    between atoms: CA_14  and  N_15
REMARK    5  A    between atoms: CA_14  and  C_21
REMARK                            x       y       z     vdW  Elec       q    Type
REMARK                         _______ _______ _______ _____ _____    ______ ____
ROOT
ATOM      1  C   UNL     1      34.975 -24.423 -13.110  0.00  0.00    +0.125 C 
ENDROOT
BRANCH   1   3
ATOM      2  N   UNL     1      34.141 -23.363 -16.503  0.00  0.00    -0.312 N 
ATOM      3  C   UNL     1      34.372 -23.981 -14.383  0.00  0.00    +0.019 C 
ATOM      4  C   UNL     1      32.996 -23.707 -14.619  0.00  0.00    +0.013 C 
ATOM      5  C   UNL     1      32.878 -23.322 -15.956  0.00  0.00    +0.048 C 
ATOM      6  C   UNL     1      35.050 -23.761 -15.560  0.00  0.00    +0.060 C 
ATOM      7  C   UNL     1      31.835 -23.751 -13.820  0.00  0.00    +0.001 C 
ATOM      8  C   UNL     1      31.653 -22.976 -16.537  0.00  0.00    +0.015 C 
ATOM      9  C   UNL     1      30.603 -23.407 -14.388  0.00  0.00    +0.000 C 
ATOM     10  C   UNL     1      30.516 -23.027 -15.726  0.00  0.00    +0.001 C 
ATOM     11  H   UNL     1      34.358 -23.140 -17.436  0.00  0.00    +0.152 HD
ENDBRANCH   1   3
BRANCH   1  12
ATOM     12  O   UNL     1      34.710 -23.496 -12.035  0.00  0.00    -0.382 OA
ATOM     13  H   UNL     1      35.516 -22.995 -11.833  0.00  0.00    +0.211 HD
ENDBRANCH   1  12
BRANCH   1  14
ATOM     14  CA  UNL     1      36.509 -24.692 -13.176  0.00  0.00    +0.072 C 
BRANCH  14  15
ATOM     15  N   UNL     1      36.718 -26.171 -13.049  0.00  0.00    +0.391 N 
ATOM     16  H1  UNL     1      37.527 -26.351 -12.455  0.00  0.00    -0.088 HD
ATOM     17  H2  UNL     1      36.878 -26.572 -13.974  0.00  0.00    -0.088 HD
ATOM     18  H3  UNL     1      35.889 -26.597 -12.634  0.00  0.00    -0.088 HD
ENDBRANCH  14  15
BRANCH  14  21
ATOM     19  O   UNL     1      37.646 -24.446 -11.088  0.00  0.00    -0.248 OA
ATOM     20  OXT UNL     1      37.783 -22.775 -12.636  0.00  0.00    -0.248 OA
ATOM     21  C   UNL     1      37.397 -23.898 -12.197  0.00  0.00    +0.347 C 
ENDBRANCH  14  21
ENDBRANCH   1  14
TORSDOF 5
ENDMDL
MODEL 8
REMARK VINA RESULT:      -7.4      6.035      8.642
REMARK  Name = 102515267
REMARK  5 active torsions:
REMARK  status: ('A' for Active; 'I' for Inactive)
REMARK    1  A    between atoms: C_1  and  C_3
REMARK    2  A    between atoms: C_1  and  O_12
REMARK    3  A    between atoms: C_1  and  CA_14
REMARK    4  A    between atoms: CA_14  and  N_15
REMARK    5  A    between atoms: CA_14  and  C_21
REMARK                            x       y       z     vdW  Elec       q    Type
REMARK                         _______ _______ _______ _____ _____    ______ ____
ROOT
ATOM      1  C   UNL     1      35.794 -23.223 -15.736  0.00  0.00    +0.125 C 
ENDROOT
BRANCH   1   3
ATOM      2  N   UNL     1      33.141 -22.762 -18.202  0.00  0.00    -0.312 N 
ATOM      3  C   UNL     1      34.917 -22.889 -16.876  0.00  0.00    +0.019 C 
ATOM      4  C   UNL     1      35.271 -22.125 -18.024  0.00  0.00    +0.013 C 
ATOM      5  C   UNL     1      34.140 -22.061 -18.838  0.00  0.00    +0.048 C 
ATOM      6  C   UNL     1      33.601 -23.266 -17.015  0.00  0.00    +0.060 C 
ATOM      7  C   UNL     1      36.451 -21.481 -18.447  0.00  0.00    +0.001 C 
ATOM      8  C   UNL     1      34.128 -21.382 -20.062  0.00  0.00    +0.015 C 
ATOM      9  C   UNL     1      36.454 -20.798 -19.669  0.00  0.00    +0.000 C 
ATOM     10  C   UNL     1      35.309 -20.750 -20.462  0.00  0.00    +0.001 C 
ATOM     11  H   UNL     1      32.228 -22.883 -18.549  0.00  0.00    +0.152 HD
ENDBRANCH   1   3
BRANCH   1  12
ATOM     12  O   UNL     1      37.135 -23.550 -16.162  0.00  0.00    -0.382 OA
ATOM     13  H   UNL     1      37.775 -23.120 -15.574  0.00  0.00    +0.211 HD
ENDBRANCH   1  12
BRANCH   1  14
ATOM     14  CA  UNL     1      35.263 -24.366 -14.820  0.00  0.00    +0.072 C 
BRANCH  14  15
ATOM     15  N   UNL     1      34.962 -23.771 -13.478  0.00  0.00    +0.391 N 
ATOM     16  H1  UNL     1      33.999 -23.436 -13.462  0.00  0.00    -0.088 HD
ATOM     17  H2  UNL     1      35.597 -22.991 -13.302  0.00  0.00    -0.088 HD
ATOM     18  H3  UNL     1      35.088 -24.481 -12.756  0.00  0.00    -0.088 HD
ENDBRANCH  14  15
BRANCH  14  21
ATOM     19  O   UNL     1      36.030 -26.477 -15.637  0.00  0.00    -0.248 OA
ATOM     20  OXT UNL     1      36.880 -25.662 -13.682  0.00  0.00    -0.248 OA
ATOM     21  C   UNL     1      36.138 -25.630 -14.708  0.00  0.00    +0.347 C 
ENDBRANCH  14  21
ENDBRANCH   1  14
TORSDOF 5
ENDMDL
MODEL 9
REMARK VINA RESULT:      -7.4      3.050      5.317
REMARK  Name = 102515267
REMARK  5 active torsions:
REMARK  status: ('A' for Active; 'I' for Inactive)
REMARK    1  A    between atoms: C_1  and  C_3
REMARK    2  A    between atoms: C_1  and  O_12
REMARK    3  A    between atoms: C_1  and  CA_14
REMARK    4  A    between atoms: CA_14  and  N_15
REMARK    5  A    between atoms: CA_14  and  C_21
REMARK                            x       y       z     vdW  Elec       q    Type
REMARK                         _______ _______ _______ _____ _____    ______ ____
ROOT
ATOM      1  C   UNL     1      35.124 -19.639 -20.430  0.00  0.00    +0.125 C 
ENDROOT
BRANCH   1   3
ATOM      2  N   UNL     1      34.916 -16.295 -21.883  0.00  0.00    -0.312 N 
ATOM      3  C   UNL     1      35.011 -18.425 -21.264  0.00  0.00    +0.019 C 
ATOM      4  C   UNL     1      34.838 -18.379 -22.676  0.00  0.00    +0.013 C 
ATOM      5  C   UNL     1      34.782 -17.032 -23.038  0.00  0.00    +0.048 C 
ATOM      6  C   UNL     1      35.056 -17.128 -20.806  0.00  0.00    +0.060 C 
ATOM      7  C   UNL     1      34.724 -19.359 -23.683  0.00  0.00    +0.001 C 
ATOM      8  C   UNL     1      34.616 -16.613 -24.363  0.00  0.00    +0.015 C 
ATOM      9  C   UNL     1      34.556 -18.954 -25.012  0.00  0.00    +0.000 C 
ATOM     10  C   UNL     1      34.504 -17.602 -25.345  0.00  0.00    +0.001 C 
ATOM     11  H   UNL     1      34.914 -15.312 -21.839  0.00  0.00    +0.152 HD
ENDBRANCH   1   3
BRANCH   1  12
ATOM     12  O   UNL     1      36.330 -20.380 -20.713  0.00  0.00    -0.382 OA
ATOM     13  H   UNL     1      36.152 -21.330 -20.632  0.00  0.00    +0.211 HD
ENDBRANCH   1  12
BRANCH   1  14
ATOM     14  CA  UNL     1      33.905 -20.605 -20.523  0.00  0.00    +0.072 C 
BRANCH  14  15
ATOM     15  N   UNL     1      32.659 -19.777 -20.433  0.00  0.00    +0.391 N 
ATOM     16  H1  UNL     1      31.879 -20.365 -20.137  0.00  0.00    -0.088 HD
ATOM     17  H2  UNL     1      32.453 -19.373 -21.347  0.00  0.00    -0.088 HD
ATOM     18  H3  UNL     1      32.797 -19.028 -19.754  0.00  0.00    -0.088 HD
ENDBRANCH  14  15
BRANCH  14  21
ATOM     19  O   UNL     1      34.968 -22.410 -19.371  0.00  0.00    -0.248 OA
ATOM     20  OXT UNL     1      32.756 -21.997 -18.995  0.00  0.00    -0.248 OA
ATOM     21  C   UNL     1      33.882 -21.790 -19.537  0.00  0.00    +0.347 C 
ENDBRANCH  14  21
ENDBRANCH   1  14
TORSDOF 5
ENDMDL
