MODEL 1
REMARK VINA RESULT:      -7.3      0.000      0.000
REMARK  Name = 10391
REMARK  4 active torsions:
REMARK  status: ('A' for Active; 'I' for Inactive)
REMARK    1  A    between atoms: N_2  and  C_5
REMARK    2  A    between atoms: C_3  and  C_12
REMARK    3  A    between atoms: C_5  and  C_6
REMARK    4  A    between atoms: C_12  and  C_14
REMARK                            x       y       z     vdW  Elec       q    Type
REMARK                         _______ _______ _______ _____ _____    ______ ____
ROOT
ATOM      1  O   UNL     1      34.958 -17.154 -23.967  0.00  0.00    -0.275 OA
ATOM      2  N   UNL     1      35.424 -17.342 -21.701  0.00  0.00    -0.300 N 
ATOM      3  C   UNL     1      34.972 -16.681 -22.834  0.00  0.00    +0.224 C 
ATOM      4  H   UNL     1      35.393 -16.875 -20.835  0.00  0.00    +0.150 HD
ENDROOT
BRANCH   2   5
ATOM      5  C   UNL     1      35.937 -18.691 -21.746  0.00  0.00    +0.116 C 
BRANCH   5   6
ATOM      6  C   UNL     1      35.081 -19.645 -20.964  0.00  0.00    -0.003 C 
ATOM      7  C   UNL     1      33.699 -19.501 -20.982  0.00  0.00    -0.003 C 
ATOM      8  C   UNL     1      35.679 -20.662 -20.231  0.00  0.00    -0.003 C 
ATOM      9  C   UNL     1      32.903 -20.388 -20.255  0.00  0.00    -0.000 C 
ATOM     10  C   UNL     1      34.884 -21.548 -19.504  0.00  0.00    -0.000 C 
ATOM     11  C   UNL     1      33.496 -21.411 -19.516  0.00  0.00    -0.000 C 
ENDBRANCH   5   6
ENDBRANCH   2   5
BRANCH   3  12
ATOM     12  C   UNL     1      34.463 -15.287 -22.503  0.00  0.00    +0.103 C 
BRANCH  12  14
ATOM     13 CL   UNL     1      32.812 -15.047 -20.343  0.00  0.00    -0.113 Cl
ATOM     14  C   UNL     1      34.460 -14.972 -21.015  0.00  0.00    +0.104 C 
ENDBRANCH  12  14
ENDBRANCH   3  12
TORSDOF 4
ENDMDL
MODEL 2
REMARK VINA RESULT:      -7.2      0.165      1.350
REMARK  Name = 10391
REMARK  4 active torsions:
REMARK  status: ('A' for Active; 'I' for Inactive)
REMARK    1  A    between atoms: N_2  and  C_5
REMARK    2  A    between atoms: C_3  and  C_12
REMARK    3  A    between atoms: C_5  and  C_6
REMARK    4  A    between atoms: C_12  and  C_14
REMARK                            x       y       z     vdW  Elec       q    Type
REMARK                         _______ _______ _______ _____ _____    ______ ____
ROOT
ATOM      1  O   UNL     1      34.854 -17.285 -24.011  0.00  0.00    -0.275 OA
ATOM      2  N   UNL     1      35.497 -17.329 -21.781  0.00  0.00    -0.300 N 
ATOM      3  C   UNL     1      34.963 -16.738 -22.917  0.00  0.00    +0.224 C 
ATOM      4  H   UNL     1      35.540 -16.804 -20.949  0.00  0.00    +0.150 HD
ENDROOT
BRANCH   2   5
ATOM      5  C   UNL     1      35.991 -18.685 -21.775  0.00  0.00    +0.116 C 
BRANCH   5   6
ATOM      6  C   UNL     1      35.096 -19.607 -21.000  0.00  0.00    -0.003 C 
ATOM      7  C   UNL     1      35.652 -20.645 -20.261  0.00  0.00    -0.003 C 
ATOM      8  C   UNL     1      33.720 -19.414 -21.028  0.00  0.00    -0.003 C 
ATOM      9  C   UNL     1      34.820 -21.503 -19.540  0.00  0.00    -0.000 C 
ATOM     10  C   UNL     1      32.888 -20.272 -20.307  0.00  0.00    -0.000 C 
ATOM     11  C   UNL     1      33.439 -21.315 -19.564  0.00  0.00    -0.000 C 
ENDBRANCH   5   6
ENDBRANCH   2   5
BRANCH   3  12
ATOM     12  C   UNL     1      34.495 -15.318 -22.643  0.00  0.00    +0.103 C 
BRANCH  12  14
ATOM     13 CL   UNL     1      32.674 -15.353 -20.610  0.00  0.00    -0.113 Cl
ATOM     14  C   UNL     1      34.330 -15.001 -21.164  0.00  0.00    +0.104 C 
ENDBRANCH  12  14
ENDBRANCH   3  12
TORSDOF 4
ENDMDL
MODEL 3
REMARK VINA RESULT:      -7.2      2.020      2.170
REMARK  Name = 10391
REMARK  4 active torsions:
REMARK  status: ('A' for Active; 'I' for Inactive)
REMARK    1  A    between atoms: N_2  and  C_5
REMARK    2  A    between atoms: C_3  and  C_12
REMARK    3  A    between atoms: C_5  and  C_6
REMARK    4  A    between atoms: C_12  and  C_14
REMARK                            x       y       z     vdW  Elec       q    Type
REMARK                         _______ _______ _______ _____ _____    ______ ____
ROOT
ATOM      1  O   UNL     1      34.965 -16.022 -22.128  0.00  0.00    -0.275 OA
ATOM      2  N   UNL     1      35.581 -18.142 -22.844  0.00  0.00    -0.300 N 
ATOM      3  C   UNL     1      35.045 -16.873 -23.009  0.00  0.00    +0.224 C 
ATOM      4  H   UNL     1      35.600 -18.754 -23.615  0.00  0.00    +0.150 HD
ENDROOT
BRANCH   2   5
ATOM      5  C   UNL     1      36.112 -18.598 -21.581  0.00  0.00    +0.116 C 
BRANCH   5   6
ATOM      6  C   UNL     1      35.191 -19.569 -20.901  0.00  0.00    -0.003 C 
ATOM      7  C   UNL     1      33.816 -19.387 -20.988  0.00  0.00    -0.003 C 
ATOM      8  C   UNL     1      35.722 -20.638 -20.190  0.00  0.00    -0.003 C 
ATOM      9  C   UNL     1      32.958 -20.289 -20.356  0.00  0.00    -0.000 C 
ATOM     10  C   UNL     1      34.865 -21.540 -19.558  0.00  0.00    -0.000 C 
ATOM     11  C   UNL     1      33.484 -21.365 -19.641  0.00  0.00    -0.000 C 
ENDBRANCH   5   6
ENDBRANCH   2   5
BRANCH   3  12
ATOM     12  C   UNL     1      34.582 -16.642 -24.439  0.00  0.00    +0.103 C 
BRANCH  12  14
ATOM     13 CL   UNL     1      33.045 -15.308 -26.258  0.00  0.00    -0.113 Cl
ATOM     14  C   UNL     1      33.719 -15.401 -24.612  0.00  0.00    +0.104 C 
ENDBRANCH  12  14
ENDBRANCH   3  12
TORSDOF 4
ENDMDL
MODEL 4
REMARK VINA RESULT:      -7.1      1.749      1.807
REMARK  Name = 10391
REMARK  4 active torsions:
REMARK  status: ('A' for Active; 'I' for Inactive)
REMARK    1  A    between atoms: N_2  and  C_5
REMARK    2  A    between atoms: C_3  and  C_12
REMARK    3  A    between atoms: C_5  and  C_6
REMARK    4  A    between atoms: C_12  and  C_14
REMARK                            x       y       z     vdW  Elec       q    Type
REMARK                         _______ _______ _______ _____ _____    ______ ____
ROOT
ATOM      1  O   UNL     1      35.171 -16.223 -20.218  0.00  0.00    -0.275 OA
ATOM      2  N   UNL     1      34.816 -17.547 -22.091  0.00  0.00    -0.300 N 
ATOM      3  C   UNL     1      34.619 -16.427 -21.295  0.00  0.00    +0.224 C 
ATOM      4  H   UNL     1      34.325 -17.617 -22.941  0.00  0.00    +0.150 HD
ENDROOT
BRANCH   2   5
ATOM      5  C   UNL     1      35.717 -18.611 -21.718  0.00  0.00    +0.116 C 
BRANCH   5   6
ATOM      6  C   UNL     1      35.030 -19.670 -20.904  0.00  0.00    -0.003 C 
ATOM      7  C   UNL     1      33.642 -19.705 -20.854  0.00  0.00    -0.003 C 
ATOM      8  C   UNL     1      35.789 -20.604 -20.210  0.00  0.00    -0.003 C 
ATOM      9  C   UNL     1      33.002 -20.688 -20.098  0.00  0.00    -0.000 C 
ATOM     10  C   UNL     1      35.150 -21.587 -19.454  0.00  0.00    -0.000 C 
ATOM     11  C   UNL     1      33.757 -21.629 -19.398  0.00  0.00    -0.000 C 
ENDBRANCH   5   6
ENDBRANCH   2   5
BRANCH   3  12
ATOM     12  C   UNL     1      33.642 -15.452 -21.932  0.00  0.00    +0.103 C 
BRANCH  12  14
ATOM     13 CL   UNL     1      33.529 -14.900 -24.603  0.00  0.00    -0.113 Cl
ATOM     14  C   UNL     1      34.263 -14.579 -23.012  0.00  0.00    +0.104 C 
ENDBRANCH  12  14
ENDBRANCH   3  12
TORSDOF 4
ENDMDL
MODEL 5
REMARK VINA RESULT:      -7.1      5.198      7.229
REMARK  Name = 10391
REMARK  4 active torsions:
REMARK  status: ('A' for Active; 'I' for Inactive)
REMARK    1  A    between atoms: N_2  and  C_5
REMARK    2  A    between atoms: C_3  and  C_12
REMARK    3  A    between atoms: C_5  and  C_6
REMARK    4  A    between atoms: C_12  and  C_14
REMARK                            x       y       z     vdW  Elec       q    Type
REMARK                         _______ _______ _______ _____ _____    ______ ____
ROOT
ATOM      1  O   UNL     1      33.307 -23.456 -15.996  0.00  0.00    -0.275 OA
ATOM      2  N   UNL     1      32.638 -22.675 -18.077  0.00  0.00    -0.300 N 
ATOM      3  C   UNL     1      32.428 -23.082 -16.767  0.00  0.00    +0.224 C 
ATOM      4  H   UNL     1      31.864 -22.392 -18.616  0.00  0.00    +0.150 HD
ENDROOT
BRANCH   2   5
ATOM      5  C   UNL     1      33.950 -22.651 -18.678  0.00  0.00    +0.116 C 
BRANCH   5   6
ATOM      6  C   UNL     1      34.143 -21.452 -19.560  0.00  0.00    -0.003 C 
ATOM      7  C   UNL     1      35.426 -21.078 -19.940  0.00  0.00    -0.003 C 
ATOM      8  C   UNL     1      33.037 -20.729 -19.990  0.00  0.00    -0.003 C 
ATOM      9  C   UNL     1      35.607 -19.964 -20.761  0.00  0.00    -0.000 C 
ATOM     10  C   UNL     1      33.217 -19.615 -20.810  0.00  0.00    -0.000 C 
ATOM     11  C   UNL     1      34.501 -19.233 -21.195  0.00  0.00    -0.000 C 
ENDBRANCH   5   6
ENDBRANCH   2   5
BRANCH   3  12
ATOM     12  C   UNL     1      30.961 -22.987 -16.379  0.00  0.00    +0.103 C 
BRANCH  12  14
ATOM     13 CL   UNL     1      28.846 -24.528 -15.600  0.00  0.00    -0.113 Cl
ATOM     14  C   UNL     1      30.533 -24.015 -15.342  0.00  0.00    +0.104 C 
ENDBRANCH  12  14
ENDBRANCH   3  12
TORSDOF 4
ENDMDL
MODEL 6
REMARK VINA RESULT:      -6.7      2.780      5.553
REMARK  Name = 10391
REMARK  4 active torsions:
REMARK  status: ('A' for Active; 'I' for Inactive)
REMARK    1  A    between atoms: N_2  and  C_5
REMARK    2  A    between atoms: C_3  and  C_12
REMARK    3  A    between atoms: C_5  and  C_6
REMARK    4  A    between atoms: C_12  and  C_14
REMARK                            x       y       z     vdW  Elec       q    Type
REMARK                         _______ _______ _______ _____ _____    ______ ____
ROOT
ATOM      1  O   UNL     1      35.938 -18.816 -20.549  0.00  0.00    -0.275 OA
ATOM      2  N   UNL     1      34.789 -19.231 -22.523  0.00  0.00    -0.300 N 
ATOM      3  C   UNL     1      35.024 -19.360 -21.161  0.00  0.00    +0.224 C 
ATOM      4  H   UNL     1      34.026 -19.709 -22.921  0.00  0.00    +0.150 HD
ENDROOT
BRANCH   2   5
ATOM      5  C   UNL     1      35.624 -18.419 -23.376  0.00  0.00    +0.116 C 
BRANCH   5   6
ATOM      6  C   UNL     1      34.933 -17.157 -23.803  0.00  0.00    -0.003 C 
ATOM      7  C   UNL     1      34.361 -17.080 -25.068  0.00  0.00    -0.003 C 
ATOM      8  C   UNL     1      34.871 -16.077 -22.930  0.00  0.00    -0.003 C 
ATOM      9  C   UNL     1      33.718 -15.907 -25.465  0.00  0.00    -0.000 C 
ATOM     10  C   UNL     1      34.228 -14.904 -23.327  0.00  0.00    -0.000 C 
ATOM     11  C   UNL     1      33.652 -14.819 -24.595  0.00  0.00    -0.000 C 
ENDBRANCH   5   6
ENDBRANCH   2   5
BRANCH   3  12
ATOM     12  C   UNL     1      33.985 -20.249 -20.496  0.00  0.00    +0.103 C 
BRANCH  12  14
ATOM     13 CL   UNL     1      33.311 -22.204 -18.714  0.00  0.00    -0.113 Cl
ATOM     14  C   UNL     1      34.581 -21.326 -19.601  0.00  0.00    +0.104 C 
ENDBRANCH  12  14
ENDBRANCH   3  12
TORSDOF 4
ENDMDL
MODEL 7
REMARK VINA RESULT:      -6.7      2.840      5.358
REMARK  Name = 10391
REMARK  4 active torsions:
REMARK  status: ('A' for Active; 'I' for Inactive)
REMARK    1  A    between atoms: N_2  and  C_5
REMARK    2  A    between atoms: C_3  and  C_12
REMARK    3  A    between atoms: C_5  and  C_6
REMARK    4  A    between atoms: C_12  and  C_14
REMARK                            x       y       z     vdW  Elec       q    Type
REMARK                         _______ _______ _______ _____ _____    ______ ____
ROOT
ATOM      1  O   UNL     1      36.799 -20.174 -19.141  0.00  0.00    -0.275 OA
ATOM      2  N   UNL     1      35.523 -19.931 -21.065  0.00  0.00    -0.300 N 
ATOM      3  C   UNL     1      35.997 -20.619 -19.957  0.00  0.00    +0.224 C 
ATOM      4  H   UNL     1      34.879 -20.377 -21.661  0.00  0.00    +0.150 HD
ENDROOT
BRANCH   2   5
ATOM      5  C   UNL     1      35.940 -18.584 -21.374  0.00  0.00    +0.116 C 
BRANCH   5   6
ATOM      6  C   UNL     1      35.385 -18.110 -22.685  0.00  0.00    -0.003 C 
ATOM      7  C   UNL     1      34.983 -19.039 -23.638  0.00  0.00    -0.003 C 
ATOM      8  C   UNL     1      35.277 -16.747 -22.935  0.00  0.00    -0.003 C 
ATOM      9  C   UNL     1      34.467 -18.600 -24.857  0.00  0.00    -0.000 C 
ATOM     10  C   UNL     1      34.761 -16.307 -24.154  0.00  0.00    -0.000 C 
ATOM     11  C   UNL     1      34.357 -17.233 -25.115  0.00  0.00    -0.000 C 
ENDBRANCH   5   6
ENDBRANCH   2   5
BRANCH   3  12
ATOM     12  C   UNL     1      35.380 -22.005 -19.852  0.00  0.00    +0.103 C 
BRANCH  12  14
ATOM     13 CL   UNL     1      32.894 -20.925 -19.528  0.00  0.00    -0.113 Cl
ATOM     14  C   UNL     1      34.145 -22.061 -18.965  0.00  0.00    +0.104 C 
ENDBRANCH  12  14
ENDBRANCH   3  12
TORSDOF 4
ENDMDL
MODEL 8
REMARK VINA RESULT:      -6.6      4.611      6.236
REMARK  Name = 10391
REMARK  4 active torsions:
REMARK  status: ('A' for Active; 'I' for Inactive)
REMARK    1  A    between atoms: N_2  and  C_5
REMARK    2  A    between atoms: C_3  and  C_12
REMARK    3  A    between atoms: C_5  and  C_6
REMARK    4  A    between atoms: C_12  and  C_14
REMARK                            x       y       z     vdW  Elec       q    Type
REMARK                         _______ _______ _______ _____ _____    ______ ____
ROOT
ATOM      1  O   UNL     1      34.934 -22.093 -19.650  0.00  0.00    -0.275 OA
ATOM      2  N   UNL     1      32.873 -22.180 -18.586  0.00  0.00    -0.300 N 
ATOM      3  C   UNL     1      33.785 -21.685 -19.508  0.00  0.00    +0.224 C 
ATOM      4  H   UNL     1      31.972 -21.784 -18.550  0.00  0.00    +0.150 HD
ENDROOT
BRANCH   2   5
ATOM      5  C   UNL     1      33.198 -23.254 -17.678  0.00  0.00    +0.116 C 
BRANCH   5   6
ATOM      6  C   UNL     1      32.358 -23.213 -16.434  0.00  0.00    -0.003 C 
ATOM      7  C   UNL     1      32.951 -23.431 -15.196  0.00  0.00    -0.003 C 
ATOM      8  C   UNL     1      30.996 -22.957 -16.533  0.00  0.00    -0.003 C 
ATOM      9  C   UNL     1      32.171 -23.393 -14.040  0.00  0.00    -0.000 C 
ATOM     10  C   UNL     1      30.215 -22.920 -15.377  0.00  0.00    -0.000 C 
ATOM     11  C   UNL     1      30.803 -23.138 -14.131  0.00  0.00    -0.000 C 
ENDBRANCH   5   6
ENDBRANCH   2   5
BRANCH   3  12
ATOM     12  C   UNL     1      33.179 -20.577 -20.355  0.00  0.00    +0.103 C 
BRANCH  12  14
ATOM     13 CL   UNL     1      34.459 -19.443 -22.483  0.00  0.00    -0.113 Cl
ATOM     14  C   UNL     1      34.166 -19.480 -20.726  0.00  0.00    +0.104 C 
ENDBRANCH  12  14
ENDBRANCH   3  12
TORSDOF 4
ENDMDL
MODEL 9
REMARK VINA RESULT:      -6.6      3.446      5.596
REMARK  Name = 10391
REMARK  4 active torsions:
REMARK  status: ('A' for Active; 'I' for Inactive)
REMARK    1  A    between atoms: N_2  and  C_5
REMARK    2  A    between atoms: C_3  and  C_12
REMARK    3  A    between atoms: C_5  and  C_6
REMARK    4  A    between atoms: C_12  and  C_14
REMARK                            x       y       z     vdW  Elec       q    Type
REMARK                         _______ _______ _______ _____ _____    ______ ____
ROOT
ATOM      1  O   UNL     1      32.726 -22.146 -19.250  0.00  0.00    -0.275 OA
ATOM      2  N   UNL     1      34.294 -20.643 -20.067  0.00  0.00    -0.300 N 
ATOM      3  C   UNL     1      33.878 -21.725 -19.304  0.00  0.00    +0.224 C 
ATOM      4  H   UNL     1      35.243 -20.382 -20.043  0.00  0.00    +0.150 HD
ENDROOT
BRANCH   2   5
ATOM      5  C   UNL     1      33.386 -19.888 -20.897  0.00  0.00    +0.116 C 
BRANCH   5   6
ATOM      6  C   UNL     1      34.102 -18.857 -21.721  0.00  0.00    -0.003 C 
ATOM      7  C   UNL     1      34.213 -17.555 -21.248  0.00  0.00    -0.003 C 
ATOM      8  C   UNL     1      34.647 -19.215 -22.948  0.00  0.00    -0.003 C 
ATOM      9  C   UNL     1      34.878 -16.596 -22.013  0.00  0.00    -0.000 C 
ATOM     10  C   UNL     1      35.312 -18.256 -23.713  0.00  0.00    -0.000 C 
ATOM     11  C   UNL     1      35.427 -16.948 -23.246  0.00  0.00    -0.000 C 
ENDBRANCH   5   6
ENDBRANCH   2   5
BRANCH   3  12
ATOM     12  C   UNL     1      35.036 -22.355 -18.546  0.00  0.00    +0.103 C 
BRANCH  12  14
ATOM     13 CL   UNL     1      37.104 -21.371 -17.061  0.00  0.00    -0.113 Cl
ATOM     14  C   UNL     1      36.338 -21.575 -18.656  0.00  0.00    +0.104 C 
ENDBRANCH  12  14
ENDBRANCH   3  12
TORSDOF 4
ENDMDL
