MODEL 1
REMARK VINA RESULT:     -10.2      0.000      0.000
REMARK  Name = 5459373
REMARK  4 active torsions:
REMARK  status: ('A' for Active; 'I' for Inactive)
REMARK    1  A    between atoms: N_1  and  C_21
REMARK    2  A    between atoms: C_8  and  C_12
REMARK    3  A    between atoms: C_15  and  C_19
REMARK    4  A    between atoms: C_21  and  C_22
REMARK                            x       y       z     vdW  Elec       q    Type
REMARK                         _______ _______ _______ _____ _____    ______ ____
ROOT
ATOM      1  N   UNL     1      32.438 -22.395 -18.481  0.00  0.00    -0.317 N 
ATOM      2  N   UNL     1      33.447 -23.533 -15.289  0.00  0.00    -0.170 N 
ATOM      3  N   UNL     1      33.566 -23.108 -16.575  0.00  0.00    -0.158 NA
ATOM      4  N   UNL     1      32.534 -24.127 -13.345  0.00  0.00    -0.226 NA
ATOM      5  C   UNL     1      32.431 -22.833 -17.176  0.00  0.00    +0.147 C 
ATOM      6  C   UNL     1      31.100 -22.979 -16.492  0.00  0.00    +0.039 C 
ATOM      7  C   UNL     1      32.283 -23.701 -14.567  0.00  0.00    +0.155 C 
ATOM      8  C   UNL     1      34.486 -23.876 -14.464  0.00  0.00    +0.095 C 
ATOM      9  C   UNL     1      31.072 -23.402 -15.225  0.00  0.00    +0.039 C 
ATOM     10  C   UNL     1      33.898 -24.238 -13.276  0.00  0.00    +0.117 C 
ATOM     11  H   UNL     1      31.581 -22.193 -18.921  0.00  0.00    +0.148 HD
ENDROOT
BRANCH   8  12
ATOM     12  C   UNL     1      35.876 -23.837 -14.848  0.00  0.00    +0.017 C 
ATOM     13  C   UNL     1      36.714 -24.909 -14.545  0.00  0.00    +0.004 C 
ATOM     14  C   UNL     1      36.382 -22.726 -15.524  0.00  0.00    +0.001 C 
ATOM     15  C   UNL     1      38.058 -24.872 -14.915  0.00  0.00    +0.035 C 
ATOM     16  C   UNL     1      37.726 -22.688 -15.895  0.00  0.00    +0.000 C 
ATOM     17  C   UNL     1      38.564 -23.761 -15.591  0.00  0.00    +0.003 C 
BRANCH  15  19
ATOM     18  O   UNL     1      38.516 -27.163 -14.593  0.00  0.00    -0.291 OA
ATOM     19  C   UNL     1      38.934 -25.989 -14.599  0.00  0.00    +0.173 C 
ATOM     20  C   UNL     1      40.401 -25.742 -14.262  0.00  0.00    +0.077 C 
ENDBRANCH  15  19
ENDBRANCH   8  12
BRANCH   1  21
ATOM     21  C   UNL     1      33.649 -22.225 -19.217  0.00  0.00    +0.088 C 
BRANCH  21  22
ATOM     22  C   UNL     1      33.867 -20.784 -19.547  0.00  0.00    +0.020 C 
ATOM     23  C   UNL     1      33.090 -20.176 -20.671  0.00  0.00    +0.002 C 
ATOM     24  C   UNL     1      34.561 -20.433 -20.826  0.00  0.00    +0.002 C 
ENDBRANCH  21  22
ENDBRANCH   1  21
TORSDOF 4
ENDMDL
MODEL 2
REMARK VINA RESULT:     -10.0     13.143     17.045
REMARK  Name = 5459373
REMARK  4 active torsions:
REMARK  status: ('A' for Active; 'I' for Inactive)
REMARK    1  A    between atoms: N_1  and  C_21
REMARK    2  A    between atoms: C_8  and  C_12
REMARK    3  A    between atoms: C_15  and  C_19
REMARK    4  A    between atoms: C_21  and  C_22
REMARK                            x       y       z     vdW  Elec       q    Type
REMARK                         _______ _______ _______ _____ _____    ______ ____
ROOT
ATOM      1  N   UNL     1      32.030 -12.516 -22.497  0.00  0.00    -0.317 N 
ATOM      2  N   UNL     1      32.215  -9.272 -21.106  0.00  0.00    -0.170 N 
ATOM      3  N   UNL     1      32.308 -10.252 -22.043  0.00  0.00    -0.158 NA
ATOM      4  N   UNL     1      31.841  -8.247 -19.162  0.00  0.00    -0.226 NA
ATOM      5  C   UNL     1      31.973 -11.451 -21.628  0.00  0.00    +0.147 C 
ATOM      6  C   UNL     1      31.521 -11.719 -20.219  0.00  0.00    +0.039 C 
ATOM      7  C   UNL     1      31.814  -9.405 -19.792  0.00  0.00    +0.155 C 
ATOM      8  C   UNL     1      32.510  -7.948 -21.305  0.00  0.00    +0.095 C 
ATOM      9  C   UNL     1      31.457 -10.698 -19.359  0.00  0.00    +0.039 C 
ATOM     10  C   UNL     1      32.272  -7.340 -20.095  0.00  0.00    +0.117 C 
ATOM     11  H   UNL     1      31.777 -13.411 -22.174  0.00  0.00    +0.148 HD
ENDROOT
BRANCH   8  12
ATOM     12  C   UNL     1      32.969  -7.397 -22.556  0.00  0.00    +0.017 C 
ATOM     13  C   UNL     1      32.189  -6.462 -23.235  0.00  0.00    +0.004 C 
ATOM     14  C   UNL     1      34.196  -7.799 -23.087  0.00  0.00    +0.001 C 
ATOM     15  C   UNL     1      32.632  -5.929 -24.445  0.00  0.00    +0.035 C 
ATOM     16  C   UNL     1      34.640  -7.266 -24.297  0.00  0.00    +0.000 C 
ATOM     17  C   UNL     1      33.858  -6.330 -24.976  0.00  0.00    +0.003 C 
BRANCH  15  19
ATOM     18  O   UNL     1      30.633  -4.739 -24.837  0.00  0.00    -0.291 OA
ATOM     19  C   UNL     1      31.819  -4.954 -25.155  0.00  0.00    +0.173 C 
ATOM     20  C   UNL     1      32.410  -4.165 -26.319  0.00  0.00    +0.077 C 
ENDBRANCH  15  19
ENDBRANCH   8  12
BRANCH   1  21
ATOM     21  C   UNL     1      32.447 -12.365 -23.854  0.00  0.00    +0.088 C 
BRANCH  21  22
ATOM     22  C   UNL     1      33.653 -13.203 -24.131  0.00  0.00    +0.020 C 
ATOM     23  C   UNL     1      33.483 -14.680 -24.298  0.00  0.00    +0.002 C 
ATOM     24  C   UNL     1      34.146 -14.134 -23.067  0.00  0.00    +0.002 C 
ENDBRANCH  21  22
ENDBRANCH   1  21
TORSDOF 4
ENDMDL
MODEL 3
REMARK VINA RESULT:      -9.8      2.809      5.610
REMARK  Name = 5459373
REMARK  4 active torsions:
REMARK  status: ('A' for Active; 'I' for Inactive)
REMARK    1  A    between atoms: N_1  and  C_21
REMARK    2  A    between atoms: C_8  and  C_12
REMARK    3  A    between atoms: C_15  and  C_19
REMARK    4  A    between atoms: C_21  and  C_22
REMARK                            x       y       z     vdW  Elec       q    Type
REMARK                         _______ _______ _______ _____ _____    ______ ____
ROOT
ATOM      1  N   UNL     1      35.137 -21.970 -18.675  0.00  0.00    -0.317 N 
ATOM      2  N   UNL     1      35.162 -23.165 -15.349  0.00  0.00    -0.170 N 
ATOM      3  N   UNL     1      34.661 -22.829 -16.567  0.00  0.00    -0.158 NA
ATOM      4  N   UNL     1      36.605 -23.473 -13.678  0.00  0.00    -0.226 NA
ATOM      5  C   UNL     1      35.539 -22.343 -17.413  0.00  0.00    +0.147 C 
ATOM      6  C   UNL     1      36.991 -22.172 -17.060  0.00  0.00    +0.039 C 
ATOM      7  C   UNL     1      36.469 -23.052 -14.920  0.00  0.00    +0.155 C 
ATOM      8  C   UNL     1      34.441 -23.690 -14.308  0.00  0.00    +0.095 C 
ATOM      9  C   UNL     1      37.402 -22.529 -15.839  0.00  0.00    +0.039 C 
ATOM     10  C   UNL     1      35.351 -23.869 -13.293  0.00  0.00    +0.117 C 
ATOM     11  H   UNL     1      35.805 -21.606 -19.301  0.00  0.00    +0.148 HD
ENDROOT
BRANCH   8  12
ATOM     12  C   UNL     1      33.025 -23.962 -14.355  0.00  0.00    +0.017 C 
ATOM     13  C   UNL     1      32.198 -23.214 -15.193  0.00  0.00    +0.004 C 
ATOM     14  C   UNL     1      32.482 -24.975 -13.563  0.00  0.00    +0.001 C 
ATOM     15  C   UNL     1      30.830 -23.477 -15.239  0.00  0.00    +0.035 C 
ATOM     16  C   UNL     1      31.114 -25.237 -13.608  0.00  0.00    +0.000 C 
ATOM     17  C   UNL     1      30.287 -24.489 -14.447  0.00  0.00    +0.003 C 
BRANCH  15  19
ATOM     18  O   UNL     1      30.393 -22.186 -17.165  0.00  0.00    -0.291 OA
ATOM     19  C   UNL     1      29.966 -22.697 -16.112  0.00  0.00    +0.173 C 
ATOM     20  C   UNL     1      28.499 -22.488 -15.751  0.00  0.00    +0.077 C 
ENDBRANCH  15  19
ENDBRANCH   8  12
BRANCH   1  21
ATOM     21  C   UNL     1      33.782 -22.092 -19.106  0.00  0.00    +0.088 C 
BRANCH  21  22
ATOM     22  C   UNL     1      33.551 -21.297 -20.350  0.00  0.00    +0.020 C 
ATOM     23  C   UNL     1      34.275 -20.000 -20.523  0.00  0.00    +0.002 C 
ATOM     24  C   UNL     1      32.798 -20.007 -20.254  0.00  0.00    +0.002 C 
ENDBRANCH  21  22
ENDBRANCH   1  21
TORSDOF 4
ENDMDL
MODEL 4
REMARK VINA RESULT:      -9.7      3.121      7.454
REMARK  Name = 5459373
REMARK  4 active torsions:
REMARK  status: ('A' for Active; 'I' for Inactive)
REMARK    1  A    between atoms: N_1  and  C_21
REMARK    2  A    between atoms: C_8  and  C_12
REMARK    3  A    between atoms: C_15  and  C_19
REMARK    4  A    between atoms: C_21  and  C_22
REMARK                            x       y       z     vdW  Elec       q    Type
REMARK                         _______ _______ _______ _____ _____    ______ ____
ROOT
ATOM      1  N   UNL     1      36.768 -23.107 -13.676  0.00  0.00    -0.317 N 
ATOM      2  N   UNL     1      34.599 -22.869 -16.457  0.00  0.00    -0.170 N 
ATOM      3  N   UNL     1      34.992 -23.108 -15.178  0.00  0.00    -0.158 NA
ATOM      4  N   UNL     1      34.677 -22.307 -18.613  0.00  0.00    -0.226 NA
ATOM      5  C   UNL     1      36.266 -22.896 -14.940  0.00  0.00    +0.147 C 
ATOM      6  C   UNL     1      37.217 -22.424 -16.004  0.00  0.00    +0.039 C 
ATOM      7  C   UNL     1      35.384 -22.436 -17.508  0.00  0.00    +0.155 C 
ATOM      8  C   UNL     1      33.326 -23.019 -16.941  0.00  0.00    +0.095 C 
ATOM      9  C   UNL     1      36.749 -22.212 -17.237  0.00  0.00    +0.039 C 
ATOM     10  C   UNL     1      33.400 -22.668 -18.268  0.00  0.00    +0.117 C 
ATOM     11  H   UNL     1      37.725 -22.945 -13.510  0.00  0.00    +0.148 HD
ENDROOT
BRANCH   8  12
ATOM     12  C   UNL     1      32.203 -23.460 -16.151  0.00  0.00    +0.017 C 
ATOM     13  C   UNL     1      30.903 -23.286 -16.626  0.00  0.00    +0.004 C 
ATOM     14  C   UNL     1      32.416 -24.062 -14.909  0.00  0.00    +0.001 C 
ATOM     15  C   UNL     1      29.817 -23.712 -15.862  0.00  0.00    +0.035 C 
ATOM     16  C   UNL     1      31.330 -24.488 -14.146  0.00  0.00    +0.000 C 
ATOM     17  C   UNL     1      30.030 -24.313 -14.622  0.00  0.00    +0.003 C 
BRANCH  15  19
ATOM     18  O   UNL     1      27.986 -24.269 -17.241  0.00  0.00    -0.291 OA
ATOM     19  C   UNL     1      28.461 -23.530 -16.356  0.00  0.00    +0.173 C 
ATOM     20  C   UNL     1      27.582 -22.418 -15.794  0.00  0.00    +0.077 C 
ENDBRANCH  15  19
ENDBRANCH   8  12
BRANCH   1  21
ATOM     21  C   UNL     1      35.946 -23.556 -12.599  0.00  0.00    +0.088 C 
BRANCH  21  22
ATOM     22  C   UNL     1      36.562 -24.738 -11.923  0.00  0.00    +0.020 C 
ATOM     23  C   UNL     1      38.023 -24.996 -12.110  0.00  0.00    +0.002 C 
ATOM     24  C   UNL     1      37.012 -25.895 -12.759  0.00  0.00    +0.002 C 
ENDBRANCH  21  22
ENDBRANCH   1  21
TORSDOF 4
ENDMDL
MODEL 5
REMARK VINA RESULT:      -9.6     10.677     14.400
REMARK  Name = 5459373
REMARK  4 active torsions:
REMARK  status: ('A' for Active; 'I' for Inactive)
REMARK    1  A    between atoms: N_1  and  C_21
REMARK    2  A    between atoms: C_8  and  C_12
REMARK    3  A    between atoms: C_15  and  C_19
REMARK    4  A    between atoms: C_21  and  C_22
REMARK                            x       y       z     vdW  Elec       q    Type
REMARK                         _______ _______ _______ _____ _____    ______ ____
ROOT
ATOM      1  N   UNL     1      34.644 -15.977 -22.172  0.00  0.00    -0.317 N 
ATOM      2  N   UNL     1      33.862 -14.123 -25.079  0.00  0.00    -0.170 N 
ATOM      3  N   UNL     1      34.181 -14.360 -23.779  0.00  0.00    -0.158 NA
ATOM      4  N   UNL     1      33.375 -14.478 -27.225  0.00  0.00    -0.226 NA
ATOM      5  C   UNL     1      34.321 -15.627 -23.463  0.00  0.00    +0.147 C 
ATOM      6  C   UNL     1      34.141 -16.732 -24.467  0.00  0.00    +0.039 C 
ATOM      7  C   UNL     1      33.675 -15.057 -26.079  0.00  0.00    +0.155 C 
ATOM      8  C   UNL     1      33.667 -12.888 -25.640  0.00  0.00    +0.095 C 
ATOM      9  C   UNL     1      33.828 -16.413 -25.726  0.00  0.00    +0.039 C 
ATOM     10  C   UNL     1      33.368 -13.134 -26.958  0.00  0.00    +0.117 C 
ATOM     11  H   UNL     1      34.746 -16.931 -21.948  0.00  0.00    +0.148 HD
ENDROOT
BRANCH   8  12
ATOM     12  C   UNL     1      33.771 -11.643 -24.919  0.00  0.00    +0.017 C 
ATOM     13  C   UNL     1      32.846 -11.334 -23.922  0.00  0.00    +0.004 C 
ATOM     14  C   UNL     1      34.798 -10.747 -25.219  0.00  0.00    +0.001 C 
ATOM     15  C   UNL     1      32.947 -10.130 -23.226  0.00  0.00    +0.035 C 
ATOM     16  C   UNL     1      34.899  -9.543 -24.523  0.00  0.00    +0.000 C 
ATOM     17  C   UNL     1      33.973  -9.234 -23.526  0.00  0.00    +0.003 C 
BRANCH  15  19
ATOM     18  O   UNL     1      31.884  -8.651 -21.726  0.00  0.00    -0.291 OA
ATOM     19  C   UNL     1      31.983  -9.805 -22.186  0.00  0.00    +0.173 C 
ATOM     20  C   UNL     1      31.062 -10.886 -21.629  0.00  0.00    +0.077 C 
ENDBRANCH  15  19
ENDBRANCH   8  12
BRANCH   1  21
ATOM     21  C   UNL     1      34.835 -15.002 -21.148  0.00  0.00    +0.088 C 
BRANCH  21  22
ATOM     22  C   UNL     1      33.641 -14.940 -20.251  0.00  0.00    +0.020 C 
ATOM     23  C   UNL     1      32.373 -15.600 -20.690  0.00  0.00    +0.002 C 
ATOM     24  C   UNL     1      32.471 -14.102 -20.663  0.00  0.00    +0.002 C 
ENDBRANCH  21  22
ENDBRANCH   1  21
TORSDOF 4
ENDMDL
MODEL 6
REMARK VINA RESULT:      -9.3      2.748      6.219
REMARK  Name = 5459373
REMARK  4 active torsions:
REMARK  status: ('A' for Active; 'I' for Inactive)
REMARK    1  A    between atoms: N_1  and  C_21
REMARK    2  A    between atoms: C_8  and  C_12
REMARK    3  A    between atoms: C_15  and  C_19
REMARK    4  A    between atoms: C_21  and  C_22
REMARK                            x       y       z     vdW  Elec       q    Type
REMARK                         _______ _______ _______ _____ _____    ______ ____
ROOT
ATOM      1  N   UNL     1      32.679 -23.617 -13.573  0.00  0.00    -0.317 N 
ATOM      2  N   UNL     1      35.670 -23.028 -15.363  0.00  0.00    -0.170 N 
ATOM      3  N   UNL     1      34.334 -23.091 -15.121  0.00  0.00    -0.158 NA
ATOM      4  N   UNL     1      37.873 -23.175 -15.060  0.00  0.00    -0.226 NA
ATOM      5  C   UNL     1      34.006 -23.516 -13.923  0.00  0.00    +0.147 C 
ATOM      6  C   UNL     1      35.034 -23.903 -12.896  0.00  0.00    +0.039 C 
ATOM      7  C   UNL     1      36.695 -23.357 -14.498  0.00  0.00    +0.155 C 
ATOM      8  C   UNL     1      36.249 -22.617 -16.535  0.00  0.00    +0.095 C 
ATOM      9  C   UNL     1      36.328 -23.812 -13.215  0.00  0.00    +0.039 C 
ATOM     10  C   UNL     1      37.603 -22.717 -16.323  0.00  0.00    +0.117 C 
ATOM     11  H   UNL     1      32.446 -23.938 -12.672  0.00  0.00    +0.148 HD
ENDROOT
BRANCH   8  12
ATOM     12  C   UNL     1      35.512 -22.187 -17.699  0.00  0.00    +0.017 C 
ATOM     13  C   UNL     1      36.096 -21.306 -18.608  0.00  0.00    +0.004 C 
ATOM     14  C   UNL     1      34.215 -22.654 -17.915  0.00  0.00    +0.001 C 
ATOM     15  C   UNL     1      35.385 -20.890 -19.732  0.00  0.00    +0.035 C 
ATOM     16  C   UNL     1      33.503 -22.238 -19.039  0.00  0.00    +0.000 C 
ATOM     17  C   UNL     1      34.088 -21.357 -19.949  0.00  0.00    +0.003 C 
BRANCH  15  19
ATOM     18  O   UNL     1      37.180 -19.610 -20.572  0.00  0.00    -0.291 OA
ATOM     19  C   UNL     1      35.991 -19.970 -20.682  0.00  0.00    +0.173 C 
ATOM     20  C   UNL     1      35.175 -19.420 -21.847  0.00  0.00    +0.077 C 
ENDBRANCH  15  19
ENDBRANCH   8  12
BRANCH   1  21
ATOM     21  C   UNL     1      31.629 -23.275 -14.477  0.00  0.00    +0.088 C 
BRANCH  21  22
ATOM     22  C   UNL     1      30.383 -24.030 -14.147  0.00  0.00    +0.020 C 
ATOM     23  C   UNL     1      30.198 -25.402 -14.713  0.00  0.00    +0.002 C 
ATOM     24  C   UNL     1      29.370 -24.259 -15.225  0.00  0.00    +0.002 C 
ENDBRANCH  21  22
ENDBRANCH   1  21
TORSDOF 4
ENDMDL
MODEL 7
REMARK VINA RESULT:      -9.2     13.639     16.882
REMARK  Name = 5459373
REMARK  4 active torsions:
REMARK  status: ('A' for Active; 'I' for Inactive)
REMARK    1  A    between atoms: N_1  and  C_21
REMARK    2  A    between atoms: C_8  and  C_12
REMARK    3  A    between atoms: C_15  and  C_19
REMARK    4  A    between atoms: C_21  and  C_22
REMARK                            x       y       z     vdW  Elec       q    Type
REMARK                         _______ _______ _______ _____ _____    ______ ____
ROOT
ATOM      1  N   UNL     1      32.923 -13.028 -23.664  0.00  0.00    -0.317 N 
ATOM      2  N   UNL     1      32.351 -10.094 -21.777  0.00  0.00    -0.170 N 
ATOM      3  N   UNL     1      32.734 -10.865 -22.828  0.00  0.00    -0.158 NA
ATOM      4  N   UNL     1      31.557  -9.501 -19.780  0.00  0.00    -0.226 NA
ATOM      5  C   UNL     1      32.567 -12.157 -22.660  0.00  0.00    +0.147 C 
ATOM      6  C   UNL     1      31.995 -12.737 -21.397  0.00  0.00    +0.039 C 
ATOM      7  C   UNL     1      31.816 -10.519 -20.577  0.00  0.00    +0.155 C 
ATOM      8  C   UNL     1      32.429  -8.727 -21.721  0.00  0.00    +0.095 C 
ATOM      9  C   UNL     1      31.643 -11.908 -20.410  0.00  0.00    +0.039 C 
ATOM     10  C   UNL     1      31.935  -8.388 -20.484  0.00  0.00    +0.117 C 
ATOM     11  H   UNL     1      32.794 -13.994 -23.525  0.00  0.00    +0.148 HD
ENDROOT
BRANCH   8  12
ATOM     12  C   UNL     1      32.938  -7.898 -22.786  0.00  0.00    +0.017 C 
ATOM     13  C   UNL     1      32.126  -6.917 -23.356  0.00  0.00    +0.004 C 
ATOM     14  C   UNL     1      34.244  -8.076 -23.245  0.00  0.00    +0.001 C 
ATOM     15  C   UNL     1      32.618  -6.115 -24.385  0.00  0.00    +0.035 C 
ATOM     16  C   UNL     1      34.736  -7.274 -24.275  0.00  0.00    +0.000 C 
ATOM     17  C   UNL     1      33.923  -6.293 -24.845  0.00  0.00    +0.003 C 
BRANCH  15  19
ATOM     18  O   UNL     1      30.650  -4.822 -24.515  0.00  0.00    -0.291 OA
ATOM     19  C   UNL     1      31.773  -5.093 -24.982  0.00  0.00    +0.173 C 
ATOM     20  C   UNL     1      32.252  -4.321 -26.207  0.00  0.00    +0.077 C 
ENDBRANCH  15  19
ENDBRANCH   8  12
BRANCH   1  21
ATOM     21  C   UNL     1      33.476 -12.575 -24.900  0.00  0.00    +0.088 C 
BRANCH  21  22
ATOM     22  C   UNL     1      32.795 -13.237 -26.054  0.00  0.00    +0.020 C 
ATOM     23  C   UNL     1      33.250 -14.597 -26.478  0.00  0.00    +0.002 C 
ATOM     24  C   UNL     1      33.547 -13.403 -27.338  0.00  0.00    +0.002 C 
ENDBRANCH  21  22
ENDBRANCH   1  21
TORSDOF 4
ENDMDL
MODEL 8
REMARK VINA RESULT:      -9.1      7.228     12.016
REMARK  Name = 5459373
REMARK  4 active torsions:
REMARK  status: ('A' for Active; 'I' for Inactive)
REMARK    1  A    between atoms: N_1  and  C_21
REMARK    2  A    between atoms: C_8  and  C_12
REMARK    3  A    between atoms: C_15  and  C_19
REMARK    4  A    between atoms: C_21  and  C_22
REMARK                            x       y       z     vdW  Elec       q    Type
REMARK                         _______ _______ _______ _____ _____    ______ ____
ROOT
ATOM      1  N   UNL     1      34.948 -19.560 -22.193  0.00  0.00    -0.317 N 
ATOM      2  N   UNL     1      33.998 -16.605 -23.885  0.00  0.00    -0.170 N 
ATOM      3  N   UNL     1      34.203 -17.455 -22.844  0.00  0.00    -0.158 NA
ATOM      4  N   UNL     1      33.940 -15.795 -25.961  0.00  0.00    -0.226 NA
ATOM      5  C   UNL     1      34.702 -18.624 -23.171  0.00  0.00    +0.147 C 
ATOM      6  C   UNL     1      35.023 -18.994 -24.593  0.00  0.00    +0.039 C 
ATOM      7  C   UNL     1      34.257 -16.839 -25.221  0.00  0.00    +0.155 C 
ATOM      8  C   UNL     1      33.490 -15.336 -23.790  0.00  0.00    +0.095 C 
ATOM      9  C   UNL     1      34.792 -18.099 -25.558  0.00  0.00    +0.039 C 
ATOM     10  C   UNL     1      33.463 -14.860 -25.079  0.00  0.00    +0.117 C 
ATOM     11  H   UNL     1      35.322 -20.434 -22.451  0.00  0.00    +0.148 HD
ENDROOT
BRANCH   8  12
ATOM     12  C   UNL     1      33.090 -14.711 -22.553  0.00  0.00    +0.017 C 
ATOM     13  C   UNL     1      32.477 -13.458 -22.569  0.00  0.00    +0.004 C 
ATOM     14  C   UNL     1      33.315 -15.361 -21.338  0.00  0.00    +0.001 C 
ATOM     15  C   UNL     1      32.091 -12.854 -21.374  0.00  0.00    +0.035 C 
ATOM     16  C   UNL     1      32.929 -14.757 -20.142  0.00  0.00    +0.000 C 
ATOM     17  C   UNL     1      32.316 -13.503 -20.160  0.00  0.00    +0.003 C 
BRANCH  15  19
ATOM     18  O   UNL     1      31.137 -10.988 -22.458  0.00  0.00    -0.291 OA
ATOM     19  C   UNL     1      31.453 -11.547 -21.389  0.00  0.00    +0.173 C 
ATOM     20  C   UNL     1      31.154 -10.824 -20.080  0.00  0.00    +0.077 C 
ENDBRANCH  15  19
ENDBRANCH   8  12
BRANCH   1  21
ATOM     21  C   UNL     1      34.676 -19.305 -20.815  0.00  0.00    +0.088 C 
BRANCH  21  22
ATOM     22  C   UNL     1      34.910 -20.533 -19.996  0.00  0.00    +0.020 C 
ATOM     23  C   UNL     1      36.289 -20.813 -19.491  0.00  0.00    +0.002 C 
ATOM     24  C   UNL     1      35.705 -21.655 -20.587  0.00  0.00    +0.002 C 
ENDBRANCH  21  22
ENDBRANCH   1  21
TORSDOF 4
ENDMDL
MODEL 9
REMARK VINA RESULT:      -9.1     10.324     14.675
REMARK  Name = 5459373
REMARK  4 active torsions:
REMARK  status: ('A' for Active; 'I' for Inactive)
REMARK    1  A    between atoms: N_1  and  C_21
REMARK    2  A    between atoms: C_8  and  C_12
REMARK    3  A    between atoms: C_15  and  C_19
REMARK    4  A    between atoms: C_21  and  C_22
REMARK                            x       y       z     vdW  Elec       q    Type
REMARK                         _______ _______ _______ _____ _____    ______ ____
ROOT
ATOM      1  N   UNL     1      32.169 -14.076 -21.130  0.00  0.00    -0.317 N 
ATOM      2  N   UNL     1      32.555 -10.768 -22.314  0.00  0.00    -0.170 N 
ATOM      3  N   UNL     1      32.671 -12.122 -22.287  0.00  0.00    -0.158 NA
ATOM      4  N   UNL     1      32.002  -8.690 -21.725  0.00  0.00    -0.226 NA
ATOM      5  C   UNL     1      32.111 -12.707 -21.254  0.00  0.00    +0.147 C 
ATOM      6  C   UNL     1      31.395 -11.934 -20.181  0.00  0.00    +0.039 C 
ATOM      7  C   UNL     1      31.924  -9.962 -21.387  0.00  0.00    +0.155 C 
ATOM      8  C   UNL     1      33.057  -9.944 -23.288  0.00  0.00    +0.095 C 
ATOM      9  C   UNL     1      31.327 -10.604 -20.283  0.00  0.00    +0.039 C 
ATOM     10  C   UNL     1      32.703  -8.673 -22.902  0.00  0.00    +0.117 C 
ATOM     11  H   UNL     1      31.745 -14.503 -20.350  0.00  0.00    +0.148 HD
ENDROOT
BRANCH   8  12
ATOM     12  C   UNL     1      33.791 -10.402 -24.441  0.00  0.00    +0.017 C 
ATOM     13  C   UNL     1      33.391 -11.559 -25.109  0.00  0.00    +0.004 C 
ATOM     14  C   UNL     1      34.903  -9.688 -24.890  0.00  0.00    +0.001 C 
ATOM     15  C   UNL     1      34.101 -12.003 -26.224  0.00  0.00    +0.035 C 
ATOM     16  C   UNL     1      35.613 -10.131 -26.005  0.00  0.00    +0.000 C 
ATOM     17  C   UNL     1      35.212 -11.289 -26.673  0.00  0.00    +0.003 C 
BRANCH  15  19
ATOM     18  O   UNL     1      34.119 -13.488 -28.057  0.00  0.00    -0.291 OA
ATOM     19  C   UNL     1      33.686 -13.210 -26.922  0.00  0.00    +0.173 C 
ATOM     20  C   UNL     1      32.699 -14.172 -26.269  0.00  0.00    +0.077 C 
ENDBRANCH  15  19
ENDBRANCH   8  12
BRANCH   1  21
ATOM     21  C   UNL     1      32.825 -14.897 -22.095  0.00  0.00    +0.088 C 
BRANCH  21  22
ATOM     22  C   UNL     1      34.259 -15.101 -21.725  0.00  0.00    +0.020 C 
ATOM     23  C   UNL     1      34.721 -16.474 -21.356  0.00  0.00    +0.002 C 
ATOM     24  C   UNL     1      34.601 -15.413 -20.302  0.00  0.00    +0.002 C 
ENDBRANCH  21  22
ENDBRANCH   1  21
TORSDOF 4
ENDMDL
