MODEL 1
REMARK VINA RESULT:     -11.3      0.000      0.000
REMARK  Name = 127737
REMARK  3 active torsions:
REMARK  status: ('A' for Active; 'I' for Inactive)
REMARK    1  A    between atoms: N_2  and  S_15
REMARK    2  A    between atoms: N_3  and  C_9
REMARK    3  A    between atoms: S_15  and  C_23
REMARK                            x       y       z     vdW  Elec       q    Type
REMARK                         _______ _______ _______ _____ _____    ______ ____
ROOT
ATOM      1  O   UNL     1      32.949 -20.348 -20.943  0.00  0.00    -0.251 OA
ATOM      2  N   UNL     1      34.806 -21.249 -19.875  0.00  0.00    -0.169 N 
ATOM      3  N   UNL     1      35.090 -19.604 -21.500  0.00  0.00    -0.267 N 
ATOM      4  C   UNL     1      34.166 -20.371 -20.812  0.00  0.00    +0.323 C 
ATOM      5  H   UNL     1      35.784 -21.180 -19.786  0.00  0.00    +0.178 HD
ATOM      6  H   UNL     1      36.035 -19.754 -21.267  0.00  0.00    +0.156 HD
ENDROOT
BRANCH   3   9
ATOM      7 CL   UNL     1      34.434 -14.683 -22.636  0.00  0.00    -0.081 Cl
ATOM      8 CL   UNL     1      34.060 -15.590 -25.719  0.00  0.00    -0.081 Cl
ATOM      9  C   UNL     1      34.844 -18.633 -22.499  0.00  0.00    +0.053 C 
ATOM     10  C   UNL     1      34.767 -17.297 -22.141  0.00  0.00    +0.027 C 
ATOM     11  C   UNL     1      34.686 -19.037 -23.814  0.00  0.00    +0.016 C 
ATOM     12  C   UNL     1      34.524 -16.338 -23.125  0.00  0.00    +0.069 C 
ATOM     13  C   UNL     1      34.443 -18.079 -24.799  0.00  0.00    +0.014 C 
ATOM     14  C   UNL     1      34.363 -16.730 -24.454  0.00  0.00    +0.068 C 
ENDBRANCH   3   9
BRANCH   2  15
ATOM     15  S   UNL     1      34.004 -22.408 -18.900  0.00  0.00    +0.077 S 
ATOM     16  O   UNL     1      33.992 -23.685 -19.601  0.00  0.00    -0.150 OA
ATOM     17  O   UNL     1      32.752 -21.836 -18.427  0.00  0.00    -0.150 OA
BRANCH  15  23
ATOM     18  O   UNL     1      37.535 -22.828 -14.234  0.00  0.00    -0.475 OA
ATOM     19  C   UNL     1      35.519 -23.209 -15.288  0.00  0.00    +0.017 C 
ATOM     20  C   UNL     1      35.305 -23.733 -13.922  0.00  0.00    +0.077 C 
ATOM     21  C   UNL     1      36.801 -22.685 -15.384  0.00  0.00    +0.135 C 
ATOM     22  C   UNL     1      36.758 -23.758 -13.443  0.00  0.00    +0.210 C 
ATOM     23  C   UNL     1      35.081 -22.525 -17.530  0.00  0.00    +0.125 C 
ATOM     24  C   UNL     1      34.640 -23.133 -16.352  0.00  0.00    +0.019 C 
ATOM     25  C   UNL     1      37.254 -22.069 -16.534  0.00  0.00    +0.038 C 
ATOM     26  C   UNL     1      36.380 -21.995 -17.620  0.00  0.00    +0.023 C 
ENDBRANCH  15  23
ENDBRANCH   2  15
TORSDOF 3
ENDMDL
MODEL 2
REMARK VINA RESULT:     -11.2      0.971      1.680
REMARK  Name = 127737
REMARK  3 active torsions:
REMARK  status: ('A' for Active; 'I' for Inactive)
REMARK    1  A    between atoms: N_2  and  S_15
REMARK    2  A    between atoms: N_3  and  C_9
REMARK    3  A    between atoms: S_15  and  C_23
REMARK                            x       y       z     vdW  Elec       q    Type
REMARK                         _______ _______ _______ _____ _____    ______ ____
ROOT
ATOM      1  O   UNL     1      32.925 -20.139 -20.384  0.00  0.00    -0.251 OA
ATOM      2  N   UNL     1      34.712 -21.322 -19.485  0.00  0.00    -0.169 N 
ATOM      3  N   UNL     1      35.108 -19.372 -20.698  0.00  0.00    -0.267 N 
ATOM      4  C   UNL     1      34.136 -20.236 -20.224  0.00  0.00    +0.323 C 
ATOM      5  H   UNL     1      35.688 -21.312 -19.353  0.00  0.00    +0.178 HD
ATOM      6  H   UNL     1      36.038 -19.605 -20.474  0.00  0.00    +0.156 HD
ENDROOT
BRANCH   3   9
ATOM      7 CL   UNL     1      34.683 -17.285 -25.324  0.00  0.00    -0.081 Cl
ATOM      8 CL   UNL     1      34.363 -14.424 -23.848  0.00  0.00    -0.081 Cl
ATOM      9  C   UNL     1      34.930 -18.197 -21.464  0.00  0.00    +0.053 C 
ATOM     10  C   UNL     1      34.895 -18.288 -22.846  0.00  0.00    +0.027 C 
ATOM     11  C   UNL     1      34.796 -16.979 -20.818  0.00  0.00    +0.016 C 
ATOM     12  C   UNL     1      34.720 -17.129 -23.603  0.00  0.00    +0.069 C 
ATOM     13  C   UNL     1      34.621 -15.820 -21.574  0.00  0.00    +0.014 C 
ATOM     14  C   UNL     1      34.583 -15.895 -22.966  0.00  0.00    +0.068 C 
ENDBRANCH   3   9
BRANCH   2  15
ATOM     15  S   UNL     1      33.838 -22.635 -18.815  0.00  0.00    +0.077 S 
ATOM     16  O   UNL     1      34.094 -23.826 -19.613  0.00  0.00    -0.150 OA
ATOM     17  O   UNL     1      32.467 -22.211 -18.575  0.00  0.00    -0.150 OA
BRANCH  15  23
ATOM     18  O   UNL     1      36.339 -23.275 -13.547  0.00  0.00    -0.475 OA
ATOM     19  C   UNL     1      34.556 -23.534 -14.985  0.00  0.00    +0.017 C 
ATOM     20  C   UNL     1      34.044 -24.049 -13.697  0.00  0.00    +0.077 C 
ATOM     21  C   UNL     1      35.858 -23.086 -14.817  0.00  0.00    +0.135 C 
ATOM     22  C   UNL     1      35.369 -24.160 -12.940  0.00  0.00    +0.210 C 
ATOM     23  C   UNL     1      34.613 -22.819 -17.260  0.00  0.00    +0.125 C 
ATOM     24  C   UNL     1      33.912 -23.404 -16.202  0.00  0.00    +0.019 C 
ATOM     25  C   UNL     1      36.566 -22.494 -15.845  0.00  0.00    +0.038 C 
ATOM     26  C   UNL     1      35.931 -22.366 -17.082  0.00  0.00    +0.023 C 
ENDBRANCH  15  23
ENDBRANCH   2  15
TORSDOF 3
ENDMDL
MODEL 3
REMARK VINA RESULT:     -10.9      3.626      5.060
REMARK  Name = 127737
REMARK  3 active torsions:
REMARK  status: ('A' for Active; 'I' for Inactive)
REMARK    1  A    between atoms: N_2  and  S_15
REMARK    2  A    between atoms: N_3  and  C_9
REMARK    3  A    between atoms: S_15  and  C_23
REMARK                            x       y       z     vdW  Elec       q    Type
REMARK                         _______ _______ _______ _____ _____    ______ ____
ROOT
ATOM      1  O   UNL     1      34.733 -15.988 -22.942  0.00  0.00    -0.251 OA
ATOM      2  N   UNL     1      34.228 -17.700 -21.455  0.00  0.00    -0.169 N 
ATOM      3  N   UNL     1      33.121 -15.657 -21.287  0.00  0.00    -0.267 N 
ATOM      4  C   UNL     1      34.074 -16.377 -21.986  0.00  0.00    +0.323 C 
ATOM      5  H   UNL     1      33.631 -17.964 -20.717  0.00  0.00    +0.178 HD
ATOM      6  H   UNL     1      32.685 -16.129 -20.540  0.00  0.00    +0.156 HD
ENDROOT
BRANCH   3   9
ATOM      7 CL   UNL     1      31.504 -11.266 -19.273  0.00  0.00    -0.081 Cl
ATOM      8 CL   UNL     1      31.352 -10.104 -22.289  0.00  0.00    -0.081 Cl
ATOM      9  C   UNL     1      32.696 -14.326 -21.511  0.00  0.00    +0.053 C 
ATOM     10  C   UNL     1      32.349 -13.534 -20.429  0.00  0.00    +0.027 C 
ATOM     11  C   UNL     1      32.635 -13.844 -22.808  0.00  0.00    +0.016 C 
ATOM     12  C   UNL     1      31.930 -12.222 -20.650  0.00  0.00    +0.069 C 
ATOM     13  C   UNL     1      32.216 -12.531 -23.029  0.00  0.00    +0.014 C 
ATOM     14  C   UNL     1      31.863 -11.721 -21.951  0.00  0.00    +0.068 C 
ENDBRANCH   3   9
BRANCH   2  15
ATOM     15  S   UNL     1      35.368 -18.857 -22.000  0.00  0.00    +0.077 S 
ATOM     16  O   UNL     1      36.692 -18.252 -21.995  0.00  0.00    -0.150 OA
ATOM     17  O   UNL     1      34.863 -19.474 -23.217  0.00  0.00    -0.150 OA
BRANCH  15  23
ATOM     18  O   UNL     1      34.998 -22.863 -17.729  0.00  0.00    -0.475 OA
ATOM     19  C   UNL     1      34.025 -21.488 -19.304  0.00  0.00    +0.017 C 
ATOM     20  C   UNL     1      32.870 -22.119 -18.629  0.00  0.00    +0.077 C 
ATOM     21  C   UNL     1      35.201 -21.938 -18.721  0.00  0.00    +0.135 C 
ATOM     22  C   UNL     1      33.607 -23.234 -17.884  0.00  0.00    +0.210 C 
ATOM     23  C   UNL     1      35.290 -20.056 -20.731  0.00  0.00    +0.125 C 
ATOM     24  C   UNL     1      34.049 -20.540 -20.310  0.00  0.00    +0.019 C 
ATOM     25  C   UNL     1      36.438 -21.465 -19.113  0.00  0.00    +0.038 C 
ATOM     26  C   UNL     1      36.477 -20.515 -20.135  0.00  0.00    +0.023 C 
ENDBRANCH  15  23
ENDBRANCH   2  15
TORSDOF 3
ENDMDL
MODEL 4
REMARK VINA RESULT:     -10.6      3.710      5.598
REMARK  Name = 127737
REMARK  3 active torsions:
REMARK  status: ('A' for Active; 'I' for Inactive)
REMARK    1  A    between atoms: N_2  and  S_15
REMARK    2  A    between atoms: N_3  and  C_9
REMARK    3  A    between atoms: S_15  and  C_23
REMARK                            x       y       z     vdW  Elec       q    Type
REMARK                         _______ _______ _______ _____ _____    ______ ____
ROOT
ATOM      1  O   UNL     1      35.171 -15.513 -23.505  0.00  0.00    -0.251 OA
ATOM      2  N   UNL     1      34.092 -17.149 -22.256  0.00  0.00    -0.169 N 
ATOM      3  N   UNL     1      33.221 -14.989 -22.333  0.00  0.00    -0.267 N 
ATOM      4  C   UNL     1      34.238 -15.818 -22.772  0.00  0.00    +0.323 C 
ATOM      5  H   UNL     1      33.292 -17.337 -21.713  0.00  0.00    +0.178 HD
ATOM      6  H   UNL     1      32.550 -15.403 -21.744  0.00  0.00    +0.156 HD
ENDROOT
BRANCH   3   9
ATOM      7 CL   UNL     1      34.521 -10.982 -25.196  0.00  0.00    -0.081 Cl
ATOM      8 CL   UNL     1      32.366  -9.257 -23.509  0.00  0.00    -0.081 Cl
ATOM      9  C   UNL     1      33.027 -13.619 -22.625  0.00  0.00    +0.053 C 
ATOM     10  C   UNL     1      33.768 -13.030 -23.638  0.00  0.00    +0.027 C 
ATOM     11  C   UNL     1      32.101 -12.893 -21.894  0.00  0.00    +0.016 C 
ATOM     12  C   UNL     1      33.577 -11.678 -23.926  0.00  0.00    +0.069 C 
ATOM     13  C   UNL     1      31.911 -11.542 -22.183  0.00  0.00    +0.014 C 
ATOM     14  C   UNL     1      32.648 -10.934 -23.199  0.00  0.00    +0.068 C 
ENDBRANCH   3   9
BRANCH   2  15
ATOM     15  S   UNL     1      35.196 -18.434 -22.508  0.00  0.00    +0.077 S 
ATOM     16  O   UNL     1      36.538 -17.973 -22.176  0.00  0.00    -0.150 OA
ATOM     17  O   UNL     1      34.941 -19.021 -23.815  0.00  0.00    -0.150 OA
BRANCH  15  23
ATOM     18  O   UNL     1      33.567 -22.343 -18.448  0.00  0.00    -0.475 OA
ATOM     19  C   UNL     1      35.187 -21.133 -19.559  0.00  0.00    +0.017 C 
ATOM     20  C   UNL     1      35.961 -21.990 -18.634  0.00  0.00    +0.077 C 
ATOM     21  C   UNL     1      33.834 -21.409 -19.417  0.00  0.00    +0.135 C 
ATOM     22  C   UNL     1      34.820 -22.464 -17.733  0.00  0.00    +0.210 C 
ATOM     23  C   UNL     1      34.680 -19.587 -21.302  0.00  0.00    +0.125 C 
ATOM     24  C   UNL     1      35.631 -20.227 -20.503  0.00  0.00    +0.019 C 
ATOM     25  C   UNL     1      32.878 -20.798 -20.203  0.00  0.00    +0.038 C 
ATOM     26  C   UNL     1      33.312 -19.872 -21.154  0.00  0.00    +0.023 C 
ENDBRANCH  15  23
ENDBRANCH   2  15
TORSDOF 3
ENDMDL
MODEL 5
REMARK VINA RESULT:     -10.6      1.170      1.775
REMARK  Name = 127737
REMARK  3 active torsions:
REMARK  status: ('A' for Active; 'I' for Inactive)
REMARK    1  A    between atoms: N_2  and  S_15
REMARK    2  A    between atoms: N_3  and  C_9
REMARK    3  A    between atoms: S_15  and  C_23
REMARK                            x       y       z     vdW  Elec       q    Type
REMARK                         _______ _______ _______ _____ _____    ______ ____
ROOT
ATOM      1  O   UNL     1      32.817 -20.981 -20.465  0.00  0.00    -0.251 OA
ATOM      2  N   UNL     1      34.314 -21.705 -18.841  0.00  0.00    -0.169 N 
ATOM      3  N   UNL     1      34.920 -19.982 -20.288  0.00  0.00    -0.267 N 
ATOM      4  C   UNL     1      33.918 -20.872 -19.940  0.00  0.00    +0.323 C 
ATOM      5  H   UNL     1      35.194 -21.530 -18.434  0.00  0.00    +0.178 HD
ATOM      6  H   UNL     1      35.746 -20.033 -19.756  0.00  0.00    +0.156 HD
ENDROOT
BRANCH   3   9
ATOM      7 CL   UNL     1      34.584 -15.055 -21.533  0.00  0.00    -0.081 Cl
ATOM      8 CL   UNL     1      34.853 -15.964 -24.626  0.00  0.00    -0.081 Cl
ATOM      9  C   UNL     1      34.902 -19.010 -21.315  0.00  0.00    +0.053 C 
ATOM     10  C   UNL     1      34.770 -17.672 -20.980  0.00  0.00    +0.027 C 
ATOM     11  C   UNL     1      35.018 -19.415 -22.635  0.00  0.00    +0.016 C 
ATOM     12  C   UNL     1      34.752 -16.713 -21.993  0.00  0.00    +0.069 C 
ATOM     13  C   UNL     1      35.000 -18.456 -23.648  0.00  0.00    +0.014 C 
ATOM     14  C   UNL     1      34.868 -17.105 -23.327  0.00  0.00    +0.068 C 
ENDBRANCH   3   9
BRANCH   2  15
ATOM     15  S   UNL     1      33.379 -22.980 -18.181  0.00  0.00    +0.077 S 
ATOM     16  O   UNL     1      33.601 -24.184 -18.971  0.00  0.00    -0.150 OA
ATOM     17  O   UNL     1      32.022 -22.502 -17.965  0.00  0.00    -0.150 OA
BRANCH  15  23
ATOM     18  O   UNL     1      35.970 -23.685 -12.965  0.00  0.00    -0.475 OA
ATOM     19  C   UNL     1      36.055 -23.201 -15.218  0.00  0.00    +0.017 C 
ATOM     20  C   UNL     1      37.472 -23.157 -14.797  0.00  0.00    +0.077 C 
ATOM     21  C   UNL     1      35.261 -23.534 -14.130  0.00  0.00    +0.135 C 
ATOM     22  C   UNL     1      37.271 -23.134 -13.280  0.00  0.00    +0.210 C 
ATOM     23  C   UNL     1      34.121 -23.189 -16.613  0.00  0.00    +0.125 C 
ATOM     24  C   UNL     1      35.502 -23.029 -16.473  0.00  0.00    +0.019 C 
ATOM     25  C   UNL     1      33.896 -23.708 -14.246  0.00  0.00    +0.038 C 
ATOM     26  C   UNL     1      33.323 -23.527 -15.507  0.00  0.00    +0.023 C 
ENDBRANCH  15  23
ENDBRANCH   2  15
TORSDOF 3
ENDMDL
MODEL 6
REMARK VINA RESULT:     -10.0      4.316      8.927
REMARK  Name = 127737
REMARK  3 active torsions:
REMARK  status: ('A' for Active; 'I' for Inactive)
REMARK    1  A    between atoms: N_2  and  S_15
REMARK    2  A    between atoms: N_3  and  C_9
REMARK    3  A    between atoms: S_15  and  C_23
REMARK                            x       y       z     vdW  Elec       q    Type
REMARK                         _______ _______ _______ _____ _____    ______ ____
ROOT
ATOM      1  O   UNL     1      36.199 -19.607 -20.169  0.00  0.00    -0.251 OA
ATOM      2  N   UNL     1      34.696 -19.532 -21.940  0.00  0.00    -0.169 N 
ATOM      3  N   UNL     1      34.341 -21.021 -20.183  0.00  0.00    -0.267 N 
ATOM      4  C   UNL     1      35.173 -20.035 -20.684  0.00  0.00    +0.323 C 
ATOM      5  H   UNL     1      33.839 -19.886 -22.272  0.00  0.00    +0.178 HD
ATOM      6  H   UNL     1      33.555 -21.243 -20.733  0.00  0.00    +0.156 HD
ENDROOT
BRANCH   3   9
ATOM      7 CL   UNL     1      37.401 -22.503 -16.391  0.00  0.00    -0.081 Cl
ATOM      8 CL   UNL     1      34.865 -24.085 -15.153  0.00  0.00    -0.081 Cl
ATOM      9  C   UNL     1      34.482 -21.750 -18.979  0.00  0.00    +0.053 C 
ATOM     10  C   UNL     1      35.711 -21.776 -18.341  0.00  0.00    +0.027 C 
ATOM     11  C   UNL     1      33.387 -22.423 -18.462  0.00  0.00    +0.016 C 
ATOM     12  C   UNL     1      35.850 -22.495 -17.154  0.00  0.00    +0.069 C 
ATOM     13  C   UNL     1      33.526 -23.141 -17.274  0.00  0.00    +0.014 C 
ATOM     14  C   UNL     1      34.757 -23.178 -16.620  0.00  0.00    +0.068 C 
ENDBRANCH   3   9
BRANCH   2  15
ATOM     15  S   UNL     1      35.497 -18.367 -22.907  0.00  0.00    +0.077 S 
ATOM     16  O   UNL     1      35.190 -18.626 -24.307  0.00  0.00    -0.150 OA
ATOM     17  O   UNL     1      36.886 -18.278 -22.480  0.00  0.00    -0.150 OA
BRANCH  15  23
ATOM     18  O   UNL     1      32.825 -13.376 -21.367  0.00  0.00    -0.475 OA
ATOM     19  C   UNL     1      33.543 -14.879 -22.963  0.00  0.00    +0.017 C 
ATOM     20  C   UNL     1      32.955 -13.779 -23.757  0.00  0.00    +0.077 C 
ATOM     21  C   UNL     1      33.458 -14.568 -21.613  0.00  0.00    +0.135 C 
ATOM     22  C   UNL     1      32.217 -13.042 -22.638  0.00  0.00    +0.210 C 
ATOM     23  C   UNL     1      34.700 -16.891 -22.417  0.00  0.00    +0.125 C 
ATOM     24  C   UNL     1      34.167 -16.037 -23.386  0.00  0.00    +0.019 C 
ATOM     25  C   UNL     1      33.988 -15.391 -20.639  0.00  0.00    +0.038 C 
ATOM     26  C   UNL     1      34.612 -16.569 -21.052  0.00  0.00    +0.023 C 
ENDBRANCH  15  23
ENDBRANCH   2  15
TORSDOF 3
ENDMDL
MODEL 7
REMARK VINA RESULT:     -10.0      8.087     12.828
REMARK  Name = 127737
REMARK  3 active torsions:
REMARK  status: ('A' for Active; 'I' for Inactive)
REMARK    1  A    between atoms: N_2  and  S_15
REMARK    2  A    between atoms: N_3  and  C_9
REMARK    3  A    between atoms: S_15  and  C_23
REMARK                            x       y       z     vdW  Elec       q    Type
REMARK                         _______ _______ _______ _____ _____    ______ ____
ROOT
ATOM      1  O   UNL     1      32.056 -13.495 -22.126  0.00  0.00    -0.251 OA
ATOM      2  N   UNL     1      32.882 -11.537 -23.068  0.00  0.00    -0.169 N 
ATOM      3  N   UNL     1      33.843 -13.586 -23.625  0.00  0.00    -0.267 N 
ATOM      4  C   UNL     1      32.863 -12.959 -22.876  0.00  0.00    +0.323 C 
ATOM      5  H   UNL     1      33.524 -11.178 -23.723  0.00  0.00    +0.178 HD
ATOM      6  H   UNL     1      34.407 -12.997 -24.176  0.00  0.00    +0.156 HD
ENDROOT
BRANCH   3   9
ATOM      7 CL   UNL     1      35.518 -17.753 -21.223  0.00  0.00    -0.081 Cl
ATOM      8 CL   UNL     1      35.041 -19.365 -23.988  0.00  0.00    -0.081 Cl
ATOM      9  C   UNL     1      34.134 -14.968 -23.697  0.00  0.00    +0.053 C 
ATOM     10  C   UNL     1      34.622 -15.617 -22.575  0.00  0.00    +0.027 C 
ATOM     11  C   UNL     1      33.925 -15.644 -24.888  0.00  0.00    +0.016 C 
ATOM     12  C   UNL     1      34.910 -16.981 -22.645  0.00  0.00    +0.069 C 
ATOM     13  C   UNL     1      34.212 -17.008 -24.958  0.00  0.00    +0.014 C 
ATOM     14  C   UNL     1      34.704 -17.676 -23.838  0.00  0.00    +0.068 C 
ENDBRANCH   3   9
BRANCH   2  15
ATOM     15  S   UNL     1      31.878 -10.416 -22.250  0.00  0.00    +0.077 S 
ATOM     16  O   UNL     1      32.295 -10.340 -20.857  0.00  0.00    -0.150 OA
ATOM     17  O   UNL     1      30.489 -10.711 -22.570  0.00  0.00    -0.150 OA
BRANCH  15  23
ATOM     18  O   UNL     1      33.172  -5.372 -24.954  0.00  0.00    -0.475 OA
ATOM     19  C   UNL     1      31.658  -6.825 -23.996  0.00  0.00    +0.017 C 
ATOM     20  C   UNL     1      30.814  -5.719 -24.496  0.00  0.00    +0.077 C 
ATOM     21  C   UNL     1      32.984  -6.572 -24.316  0.00  0.00    +0.135 C 
ATOM     22  C   UNL     1      31.909  -4.688 -24.776  0.00  0.00    +0.210 C 
ATOM     23  C   UNL     1      32.295  -8.919 -23.048  0.00  0.00    +0.125 C 
ATOM     24  C   UNL     1      31.292  -7.999 -23.365  0.00  0.00    +0.019 C 
ATOM     25  C   UNL     1      33.991  -7.472 -24.024  0.00  0.00    +0.038 C 
ATOM     26  C   UNL     1      33.636  -8.657 -23.377  0.00  0.00    +0.023 C 
ENDBRANCH  15  23
ENDBRANCH   2  15
TORSDOF 3
ENDMDL
MODEL 8
REMARK VINA RESULT:      -9.9      7.628     12.068
REMARK  Name = 127737
REMARK  3 active torsions:
REMARK  status: ('A' for Active; 'I' for Inactive)
REMARK    1  A    between atoms: N_2  and  S_15
REMARK    2  A    between atoms: N_3  and  C_9
REMARK    3  A    between atoms: S_15  and  C_23
REMARK                            x       y       z     vdW  Elec       q    Type
REMARK                         _______ _______ _______ _____ _____    ______ ____
ROOT
ATOM      1  O   UNL     1      31.919 -14.216 -21.472  0.00  0.00    -0.251 OA
ATOM      2  N   UNL     1      32.452 -12.039 -22.088  0.00  0.00    -0.169 N 
ATOM      3  N   UNL     1      33.537 -13.830 -23.110  0.00  0.00    -0.267 N 
ATOM      4  C   UNL     1      32.588 -13.465 -22.172  0.00  0.00    +0.323 C 
ATOM      5  H   UNL     1      32.984 -11.497 -22.715  0.00  0.00    +0.178 HD
ATOM      6  H   UNL     1      33.981 -13.091 -23.585  0.00  0.00    +0.156 HD
ENDROOT
BRANCH   3   9
ATOM      7 CL   UNL     1      35.717 -18.201 -21.668  0.00  0.00    -0.081 Cl
ATOM      8 CL   UNL     1      35.232 -19.273 -24.681  0.00  0.00    -0.081 Cl
ATOM      9  C   UNL     1      33.947 -15.135 -23.472  0.00  0.00    +0.053 C 
ATOM     10  C   UNL     1      34.556 -15.941 -22.524  0.00  0.00    +0.027 C 
ATOM     11  C   UNL     1      33.733 -15.579 -24.766  0.00  0.00    +0.016 C 
ATOM     12  C   UNL     1      34.961 -17.228 -22.880  0.00  0.00    +0.069 C 
ATOM     13  C   UNL     1      34.139 -16.866 -25.122  0.00  0.00    +0.014 C 
ATOM     14  C   UNL     1      34.752 -17.690 -24.179  0.00  0.00    +0.068 C 
ENDBRANCH   3   9
BRANCH   2  15
ATOM     15  S   UNL     1      31.439 -11.206 -20.986  0.00  0.00    +0.077 S 
ATOM     16  O   UNL     1      31.944 -11.411 -19.635  0.00  0.00    -0.150 OA
ATOM     17  O   UNL     1      30.052 -11.524 -21.292  0.00  0.00    -0.150 OA
BRANCH  15  23
ATOM     18  O   UNL     1      32.331  -5.645 -22.629  0.00  0.00    -0.475 OA
ATOM     19  C   UNL     1      31.545  -7.774 -23.036  0.00  0.00    +0.017 C 
ATOM     20  C   UNL     1      31.291  -7.058 -24.305  0.00  0.00    +0.077 C 
ATOM     21  C   UNL     1      32.163  -6.915 -22.139  0.00  0.00    +0.135 C 
ATOM     22  C   UNL     1      31.508  -5.624 -23.820  0.00  0.00    +0.210 C 
ATOM     23  C   UNL     1      31.711  -9.541 -21.444  0.00  0.00    +0.125 C 
ATOM     24  C   UNL     1      31.314  -9.097 -22.708  0.00  0.00    +0.019 C 
ATOM     25  C   UNL     1      32.575  -7.335 -20.890  0.00  0.00    +0.038 C 
ATOM     26  C   UNL     1      32.339  -8.666 -20.541  0.00  0.00    +0.023 C 
ENDBRANCH  15  23
ENDBRANCH   2  15
TORSDOF 3
ENDMDL
MODEL 9
REMARK VINA RESULT:      -9.9      1.450      1.751
REMARK  Name = 127737
REMARK  3 active torsions:
REMARK  status: ('A' for Active; 'I' for Inactive)
REMARK    1  A    between atoms: N_2  and  S_15
REMARK    2  A    between atoms: N_3  and  C_9
REMARK    3  A    between atoms: S_15  and  C_23
REMARK                            x       y       z     vdW  Elec       q    Type
REMARK                         _______ _______ _______ _____ _____    ______ ____
ROOT
ATOM      1  O   UNL     1      33.979 -19.738 -21.859  0.00  0.00    -0.251 OA
ATOM      2  N   UNL     1      35.069 -20.082 -19.836  0.00  0.00    -0.169 N 
ATOM      3  N   UNL     1      34.913 -17.930 -20.715  0.00  0.00    -0.267 N 
ATOM      4  C   UNL     1      34.590 -19.262 -20.911  0.00  0.00    +0.323 C 
ATOM      5  H   UNL     1      35.509 -19.628 -19.081  0.00  0.00    +0.178 HD
ATOM      6  H   UNL     1      35.411 -17.724 -19.892  0.00  0.00    +0.156 HD
ENDROOT
BRANCH   3   9
ATOM      7 CL   UNL     1      32.414 -13.531 -21.301  0.00  0.00    -0.081 Cl
ATOM      8 CL   UNL     1      33.706 -13.355 -24.262  0.00  0.00    -0.081 Cl
ATOM      9  C   UNL     1      34.615 -16.830 -21.552  0.00  0.00    +0.053 C 
ATOM     10  C   UNL     1      33.769 -15.835 -21.090  0.00  0.00    +0.027 C 
ATOM     11  C   UNL     1      35.176 -16.769 -22.818  0.00  0.00    +0.016 C 
ATOM     12  C   UNL     1      33.475 -14.749 -21.916  0.00  0.00    +0.069 C 
ATOM     13  C   UNL     1      34.882 -15.683 -23.643  0.00  0.00    +0.014 C 
ATOM     14  C   UNL     1      34.032 -14.674 -23.193  0.00  0.00    +0.068 C 
ENDBRANCH   3   9
BRANCH   2  15
ATOM     15  S   UNL     1      34.936 -21.789 -19.761  0.00  0.00    +0.077 S 
ATOM     16  O   UNL     1      35.871 -22.376 -20.712  0.00  0.00    -0.150 OA
ATOM     17  O   UNL     1      33.528 -22.152 -19.819  0.00  0.00    -0.150 OA
BRANCH  15  23
ATOM     18  O   UNL     1      36.721 -22.911 -14.286  0.00  0.00    -0.475 OA
ATOM     19  C   UNL     1      35.128 -22.989 -15.952  0.00  0.00    +0.017 C 
ATOM     20  C   UNL     1      34.438 -23.572 -14.780  0.00  0.00    +0.077 C 
ATOM     21  C   UNL     1      36.412 -22.612 -15.589  0.00  0.00    +0.135 C 
ATOM     22  C   UNL     1      35.651 -23.795 -13.874  0.00  0.00    +0.210 C 
ATOM     23  C   UNL     1      35.499 -22.117 -18.140  0.00  0.00    +0.125 C 
ATOM     24  C   UNL     1      34.650 -22.745 -17.225  0.00  0.00    +0.019 C 
ATOM     25  C   UNL     1      37.265 -21.979 -16.472  0.00  0.00    +0.038 C 
ATOM     26  C   UNL     1      36.798 -21.736 -17.765  0.00  0.00    +0.023 C 
ENDBRANCH  15  23
ENDBRANCH   2  15
TORSDOF 3
ENDMDL
