MODEL 1
REMARK VINA RESULT:     -10.2      0.000      0.000
REMARK  Name = 11627443
REMARK  9 active torsions:
REMARK  status: ('A' for Active; 'I' for Inactive)
REMARK    1  A    between atoms: N_1  and  C_14
REMARK    2  A    between atoms: C_9  and  C_30
REMARK    3  A    between atoms: C_11  and  C_17
REMARK    4  A    between atoms: C_12  and  O_22
REMARK    5  A    between atoms: C_13  and  O_24
REMARK    6  A    between atoms: N_16  and  C_19
REMARK    7  A    between atoms: C_29  and  C_31
REMARK    8  A    between atoms: C_31  and  C_34
REMARK    9  A    between atoms: C_39  and  O_40
REMARK                            x       y       z     vdW  Elec       q    Type
REMARK                         _______ _______ _______ _____ _____    ______ ____
ROOT
ATOM      1  N   UNL     1      34.136 -15.121 -23.781  0.00  0.00    -0.236 N 
ATOM      2  N   UNL     1      33.418 -15.601 -25.836  0.00  0.00    -0.240 NA
ATOM      3  N   UNL     1      34.112 -12.695 -23.886  0.00  0.00    -0.316 NA
ATOM      4  N   UNL     1      33.354 -11.910 -26.070  0.00  0.00    -0.317 NA
ATOM      5  C   UNL     1      33.927 -13.921 -24.398  0.00  0.00    +0.221 C 
ATOM      6  C   UNL     1      33.818 -16.100 -24.686  0.00  0.00    +0.224 C 
ATOM      7  C   UNL     1      33.482 -14.240 -25.671  0.00  0.00    +0.167 C 
ATOM      8  C   UNL     1      33.190 -13.177 -26.521  0.00  0.00    +0.211 C 
ATOM      9  C   UNL     1      33.798 -11.750 -24.800  0.00  0.00    +0.188 C 
ATOM     10  N   UNL     1      32.733 -13.408 -27.829  0.00  0.00    -0.331 N 
ATOM     11  H   UNL     1      32.529 -12.648 -28.420  0.00  0.00    +0.145 HD
ATOM     12  H   UNL     1      32.615 -14.330 -28.154  0.00  0.00    +0.145 HD
ENDROOT
BRANCH   1  17
ATOM     13  O   UNL     1      35.502 -16.464 -22.391  0.00  0.00    -0.326 OA
ATOM     14  C   UNL     1      35.280 -17.197 -21.177  0.00  0.00    +0.222 C 
ATOM     15  C   UNL     1      34.256 -16.426 -20.357  0.00  0.00    +0.178 C 
ATOM     16  C   UNL     1      33.506 -15.648 -21.419  0.00  0.00    +0.187 C 
ATOM     17  C   UNL     1      34.611 -15.334 -22.416  0.00  0.00    +0.226 C 
BRANCH  14  20
ATOM     18  O   UNL     1      34.562 -18.829 -22.759  0.00  0.00    -0.272 OA
ATOM     19  N   UNL     1      34.601 -19.393 -20.504  0.00  0.00    -0.304 N 
ATOM     20  C   UNL     1      34.788 -18.547 -21.585  0.00  0.00    +0.252 C 
ATOM     21  H   UNL     1      34.816 -19.063 -19.602  0.00  0.00    +0.149 HD
BRANCH  19  22
ATOM     22  C   UNL     1      34.107 -20.733 -20.650  0.00  0.00    +0.072 C 
ATOM     23  C   UNL     1      34.476 -21.806 -19.668  0.00  0.00    +0.021 C 
ATOM     24  C   UNL     1      33.069 -21.284 -19.717  0.00  0.00    +0.021 C 
ENDBRANCH  19  22
ENDBRANCH  14  20
BRANCH  15  25
ATOM     25  O   UNL     1      34.944 -15.531 -19.486  0.00  0.00    -0.379 OA
ATOM     26  H   UNL     1      34.299 -15.024 -18.968  0.00  0.00    +0.211 HD
ENDBRANCH  15  25
BRANCH  16  27
ATOM     27  O   UNL     1      32.896 -14.475 -20.920  0.00  0.00    -0.378 OA
ATOM     28  H   UNL     1      32.682 -14.594 -19.981  0.00  0.00    +0.211 HD
ENDBRANCH  16  27
ENDBRANCH   1  17
BRANCH   9  30
ATOM     29  C   UNL     1      34.087  -9.258 -24.002  0.00  0.00    -0.074 C 
ATOM     30  C   UNL     1      33.955 -10.396 -24.368  0.00  0.00    +0.032 C 
BRANCH  29  31
ATOM     31  C   UNL     1      34.248  -7.870 -23.565  0.00  0.00    +0.077 C 
BRANCH  31  34
ATOM     32  O   UNL     1      31.601  -2.311 -24.525  0.00  0.00    -0.226 OA
ATOM     33  N   UNL     1      31.534  -4.550 -23.908  0.00  0.00    -0.246 N 
ATOM     34  C   UNL     1      33.007  -7.044 -23.896  0.00  0.00    +0.016 C 
ATOM     35  C   UNL     1      33.351  -5.907 -24.869  0.00  0.00    +0.023 C 
ATOM     36  C   UNL     1      32.373  -6.476 -22.617  0.00  0.00    +0.023 C 
ATOM     37  C   UNL     1      32.131  -5.033 -25.152  0.00  0.00    +0.097 C 
ATOM     38  C   UNL     1      31.170  -5.591 -22.941  0.00  0.00    +0.097 C 
ATOM     39  C   UNL     1      31.298  -3.187 -23.717  0.00  0.00    +0.405 C 
BRANCH  39  40
ATOM     40  O   UNL     1      30.685  -2.918 -22.522  0.00  0.00    -0.430 OA
ATOM     41  C   UNL     1      29.808  -1.786 -22.501  0.00  0.00    +0.257 C 
ENDBRANCH  39  40
ENDBRANCH  31  34
ENDBRANCH  29  31
ENDBRANCH   9  30
TORSDOF 9
ENDMDL
MODEL 2
REMARK VINA RESULT:     -10.0      5.945     11.729
REMARK  Name = 11627443
REMARK  9 active torsions:
REMARK  status: ('A' for Active; 'I' for Inactive)
REMARK    1  A    between atoms: N_1  and  C_14
REMARK    2  A    between atoms: C_9  and  C_30
REMARK    3  A    between atoms: C_11  and  C_17
REMARK    4  A    between atoms: C_12  and  O_22
REMARK    5  A    between atoms: C_13  and  O_24
REMARK    6  A    between atoms: N_16  and  C_19
REMARK    7  A    between atoms: C_29  and  C_31
REMARK    8  A    between atoms: C_31  and  C_34
REMARK    9  A    between atoms: C_39  and  O_40
REMARK                            x       y       z     vdW  Elec       q    Type
REMARK                         _______ _______ _______ _____ _____    ______ ____
ROOT
ATOM      1  N   UNL     1      34.887 -23.910 -15.930  0.00  0.00    -0.236 N 
ATOM      2  N   UNL     1      32.757 -23.970 -15.274  0.00  0.00    -0.240 NA
ATOM      3  N   UNL     1      34.664 -22.578 -17.949  0.00  0.00    -0.316 NA
ATOM      4  N   UNL     1      32.341 -21.935 -18.335  0.00  0.00    -0.317 NA
ATOM      5  C   UNL     1      34.185 -23.196 -16.858  0.00  0.00    +0.221 C 
ATOM      6  C   UNL     1      33.986 -24.356 -14.999  0.00  0.00    +0.224 C 
ATOM      7  C   UNL     1      32.867 -23.244 -16.433  0.00  0.00    +0.167 C 
ATOM      8  C   UNL     1      31.928 -22.581 -17.217  0.00  0.00    +0.211 C 
ATOM      9  C   UNL     1      33.664 -21.973 -18.627  0.00  0.00    +0.188 C 
ATOM     10  N   UNL     1      30.569 -22.579 -16.862  0.00  0.00    -0.331 N 
ATOM     11  H   UNL     1      29.914 -22.105 -17.424  0.00  0.00    +0.145 HD
ATOM     12  H   UNL     1      30.271 -23.048 -16.050  0.00  0.00    +0.145 HD
ENDROOT
BRANCH   1  17
ATOM     13  O   UNL     1      36.581 -25.460 -15.358  0.00  0.00    -0.326 OA
ATOM     14  C   UNL     1      37.776 -25.391 -14.565  0.00  0.00    +0.222 C 
ATOM     15  C   UNL     1      38.346 -23.988 -14.717  0.00  0.00    +0.178 C 
ATOM     16  C   UNL     1      37.120 -23.173 -15.078  0.00  0.00    +0.187 C 
ATOM     17  C   UNL     1      36.326 -24.160 -15.921  0.00  0.00    +0.226 C 
BRANCH  14  20
ATOM     18  O   UNL     1      37.163 -26.840 -12.774  0.00  0.00    -0.272 OA
ATOM     19  N   UNL     1      37.219 -24.548 -12.393  0.00  0.00    -0.304 N 
ATOM     20  C   UNL     1      37.364 -25.692 -13.161  0.00  0.00    +0.252 C 
ATOM     21  H   UNL     1      37.408 -23.675 -12.805  0.00  0.00    +0.149 HD
BRANCH  19  22
ATOM     22  C   UNL     1      36.803 -24.589 -11.020  0.00  0.00    +0.072 C 
ATOM     23  C   UNL     1      36.173 -23.395 -10.366  0.00  0.00    +0.021 C 
ATOM     24  C   UNL     1      35.349 -24.617 -10.649  0.00  0.00    +0.021 C 
ENDBRANCH  19  22
ENDBRANCH  14  20
BRANCH  15  25
ATOM     25  O   UNL     1      39.274 -23.984 -15.800  0.00  0.00    -0.379 OA
ATOM     26  H   UNL     1      40.143 -23.695 -15.479  0.00  0.00    +0.211 HD
ENDBRANCH  15  25
BRANCH  16  27
ATOM     27  O   UNL     1      37.428 -21.995 -15.794  0.00  0.00    -0.378 OA
ATOM     28  H   UNL     1      37.589 -22.214 -16.725  0.00  0.00    +0.211 HD
ENDBRANCH  16  27
ENDBRANCH   1  17
BRANCH   9  30
ATOM     29  C   UNL     1      34.381 -20.691 -20.810  0.00  0.00    -0.074 C 
ATOM     30  C   UNL     1      34.053 -21.278 -19.813  0.00  0.00    +0.032 C 
BRANCH  29  31
ATOM     31  C   UNL     1      34.781 -19.983 -22.028  0.00  0.00    +0.077 C 
BRANCH  31  34
ATOM     32  O   UNL     1      32.139 -14.340 -22.096  0.00  0.00    -0.226 OA
ATOM     33  N   UNL     1      33.976 -15.761 -22.190  0.00  0.00    -0.246 N 
ATOM     34  C   UNL     1      34.884 -18.480 -21.779  0.00  0.00    +0.016 C 
ATOM     35  C   UNL     1      33.604 -17.946 -21.119  0.00  0.00    +0.023 C 
ATOM     36  C   UNL     1      35.159 -17.727 -23.090  0.00  0.00    +0.023 C 
ATOM     37  C   UNL     1      33.669 -16.433 -20.929  0.00  0.00    +0.097 C 
ATOM     38  C   UNL     1      35.195 -16.217 -22.864  0.00  0.00    +0.097 C 
ATOM     39  C   UNL     1      33.162 -14.725 -22.658  0.00  0.00    +0.405 C 
BRANCH  39  40
ATOM     40  O   UNL     1      33.626 -14.173 -23.822  0.00  0.00    -0.430 OA
ATOM     41  C   UNL     1      33.584 -12.744 -23.905  0.00  0.00    +0.257 C 
ENDBRANCH  39  40
ENDBRANCH  31  34
ENDBRANCH  29  31
ENDBRANCH   9  30
TORSDOF 9
ENDMDL
MODEL 3
REMARK VINA RESULT:      -9.7      7.435     13.224
REMARK  Name = 11627443
REMARK  9 active torsions:
REMARK  status: ('A' for Active; 'I' for Inactive)
REMARK    1  A    between atoms: N_1  and  C_14
REMARK    2  A    between atoms: C_9  and  C_30
REMARK    3  A    between atoms: C_11  and  C_17
REMARK    4  A    between atoms: C_12  and  O_22
REMARK    5  A    between atoms: C_13  and  O_24
REMARK    6  A    between atoms: N_16  and  C_19
REMARK    7  A    between atoms: C_29  and  C_31
REMARK    8  A    between atoms: C_31  and  C_34
REMARK    9  A    between atoms: C_39  and  O_40
REMARK                            x       y       z     vdW  Elec       q    Type
REMARK                         _______ _______ _______ _____ _____    ______ ____
ROOT
ATOM      1  N   UNL     1      33.832 -23.760 -13.348  0.00  0.00    -0.236 N 
ATOM      2  N   UNL     1      31.772 -24.406 -13.905  0.00  0.00    -0.240 NA
ATOM      3  N   UNL     1      34.632 -23.006 -15.514  0.00  0.00    -0.316 NA
ATOM      4  N   UNL     1      32.921 -23.277 -17.235  0.00  0.00    -0.317 NA
ATOM      5  C   UNL     1      33.710 -23.522 -14.687  0.00  0.00    +0.221 C 
ATOM      6  C   UNL     1      32.643 -24.292 -12.924  0.00  0.00    +0.224 C 
ATOM      7  C   UNL     1      32.426 -23.929 -15.013  0.00  0.00    +0.167 C 
ATOM      8  C   UNL     1      32.040 -23.791 -16.343  0.00  0.00    +0.211 C 
ATOM      9  C   UNL     1      34.145 -22.921 -16.771  0.00  0.00    +0.188 C 
ATOM     10  N   UNL     1      30.756 -24.179 -16.762  0.00  0.00    -0.331 N 
ATOM     11  H   UNL     1      30.495 -24.075 -17.705  0.00  0.00    +0.145 HD
ATOM     12  H   UNL     1      30.118 -24.552 -16.113  0.00  0.00    +0.145 HD
ENDROOT
BRANCH   1  17
ATOM     13  O   UNL     1      36.044 -22.921 -13.322  0.00  0.00    -0.326 OA
ATOM     14  C   UNL     1      37.309 -23.443 -12.886  0.00  0.00    +0.222 C 
ATOM     15  C   UNL     1      37.046 -24.330 -11.679  0.00  0.00    +0.178 C 
ATOM     16  C   UNL     1      35.604 -24.750 -11.888  0.00  0.00    +0.187 C 
ATOM     17  C   UNL     1      35.004 -23.501 -12.515  0.00  0.00    +0.226 C 
BRANCH  14  20
ATOM     18  O   UNL     1      37.531 -23.970 -15.201  0.00  0.00    -0.272 OA
ATOM     19  N   UNL     1      38.765 -25.185 -13.650  0.00  0.00    -0.304 N 
ATOM     20  C   UNL     1      37.870 -24.203 -14.044  0.00  0.00    +0.252 C 
ATOM     21  H   UNL     1      38.966 -25.285 -12.693  0.00  0.00    +0.149 HD
BRANCH  19  22
ATOM     22  C   UNL     1      39.409 -26.060 -14.588  0.00  0.00    +0.072 C 
ATOM     23  C   UNL     1      40.545 -25.578 -15.442  0.00  0.00    +0.021 C 
ATOM     24  C   UNL     1      40.800 -26.569 -14.345  0.00  0.00    +0.021 C 
ENDBRANCH  19  22
ENDBRANCH  14  20
BRANCH  15  25
ATOM     25  O   UNL     1      37.161 -23.542 -10.496  0.00  0.00    -0.379 OA
ATOM     26  H   UNL     1      37.355 -22.623 -10.737  0.00  0.00    +0.211 HD
ENDBRANCH  15  25
BRANCH  16  27
ATOM     27  O   UNL     1      34.950 -25.104 -10.687  0.00  0.00    -0.378 OA
ATOM     28  H   UNL     1      35.601 -25.430 -10.046  0.00  0.00    +0.211 HD
ENDBRANCH  16  27
ENDBRANCH   1  17
BRANCH   9  30
ATOM     29  C   UNL     1      35.792 -21.928 -18.567  0.00  0.00    -0.074 C 
ATOM     30  C   UNL     1      35.040 -22.383 -17.747  0.00  0.00    +0.032 C 
BRANCH  29  31
ATOM     31  C   UNL     1      36.713 -21.380 -19.566  0.00  0.00    +0.077 C 
BRANCH  31  34
ATOM     32  O   UNL     1      34.837 -15.820 -21.661  0.00  0.00    -0.226 OA
ATOM     33  N   UNL     1      34.628 -18.125 -21.452  0.00  0.00    -0.246 N 
ATOM     34  C   UNL     1      35.963 -20.553 -20.607  0.00  0.00    +0.016 C 
ATOM     35  C   UNL     1      36.747 -19.280 -20.961  0.00  0.00    +0.023 C 
ATOM     36  C   UNL     1      34.557 -20.188 -20.105  0.00  0.00    +0.023 C 
ATOM     37  C   UNL     1      35.973 -18.410 -21.949  0.00  0.00    +0.097 C 
ATOM     38  C   UNL     1      33.823 -19.302 -21.109  0.00  0.00    +0.097 C 
ATOM     39  C   UNL     1      34.165 -16.809 -21.375  0.00  0.00    +0.405 C 
BRANCH  39  40
ATOM     40  O   UNL     1      32.868 -16.729 -20.941  0.00  0.00    -0.430 OA
ATOM     41  C   UNL     1      32.403 -15.425 -20.577  0.00  0.00    +0.257 C 
ENDBRANCH  39  40
ENDBRANCH  31  34
ENDBRANCH  29  31
ENDBRANCH   9  30
TORSDOF 9
ENDMDL
MODEL 4
REMARK VINA RESULT:      -9.1      3.402      5.230
REMARK  Name = 11627443
REMARK  9 active torsions:
REMARK  status: ('A' for Active; 'I' for Inactive)
REMARK    1  A    between atoms: N_1  and  C_14
REMARK    2  A    between atoms: C_9  and  C_30
REMARK    3  A    between atoms: C_11  and  C_17
REMARK    4  A    between atoms: C_12  and  O_22
REMARK    5  A    between atoms: C_13  and  O_24
REMARK    6  A    between atoms: N_16  and  C_19
REMARK    7  A    between atoms: C_29  and  C_31
REMARK    8  A    between atoms: C_31  and  C_34
REMARK    9  A    between atoms: C_39  and  O_40
REMARK                            x       y       z     vdW  Elec       q    Type
REMARK                         _______ _______ _______ _____ _____    ______ ____
ROOT
ATOM      1  N   UNL     1      32.270 -12.461 -22.391  0.00  0.00    -0.236 N 
ATOM      2  N   UNL     1      32.059 -12.679 -20.182  0.00  0.00    -0.240 NA
ATOM      3  N   UNL     1      32.071 -10.048 -22.593  0.00  0.00    -0.316 NA
ATOM      4  N   UNL     1      31.749  -9.000 -20.411  0.00  0.00    -0.317 NA
ATOM      5  C   UNL     1      32.103 -11.197 -21.900  0.00  0.00    +0.221 C 
ATOM      6  C   UNL     1      32.234 -13.316 -21.321  0.00  0.00    +0.224 C 
ATOM      7  C   UNL     1      31.975 -11.354 -20.529  0.00  0.00    +0.167 C 
ATOM      8  C   UNL     1      31.792 -10.197 -19.778  0.00  0.00    +0.211 C 
ATOM      9  C   UNL     1      31.888  -9.000 -21.760  0.00  0.00    +0.188 C 
ATOM     10  N   UNL     1      31.653 -10.263 -18.381  0.00  0.00    -0.331 N 
ATOM     11  H   UNL     1      31.525  -9.437 -17.861  0.00  0.00    +0.145 HD
ATOM     12  H   UNL     1      31.685 -11.133 -17.924  0.00  0.00    +0.145 HD
ENDROOT
BRANCH   1  17
ATOM     13  O   UNL     1      32.358 -14.272 -23.911  0.00  0.00    -0.326 OA
ATOM     14  C   UNL     1      33.311 -14.712 -24.890  0.00  0.00    +0.222 C 
ATOM     15  C   UNL     1      33.970 -13.473 -25.477  0.00  0.00    +0.178 C 
ATOM     16  C   UNL     1      33.805 -12.456 -24.366  0.00  0.00    +0.187 C 
ATOM     17  C   UNL     1      32.450 -12.841 -23.790  0.00  0.00    +0.226 C 
BRANCH  14  20
ATOM     18  O   UNL     1      35.006 -15.158 -23.273  0.00  0.00    -0.272 OA
ATOM     19  N   UNL     1      34.274 -16.891 -24.639  0.00  0.00    -0.304 N 
ATOM     20  C   UNL     1      34.281 -15.589 -24.166  0.00  0.00    +0.252 C 
ATOM     21  H   UNL     1      33.650 -17.129 -25.361  0.00  0.00    +0.149 HD
BRANCH  19  22
ATOM     22  C   UNL     1      35.143 -17.906 -24.114  0.00  0.00    +0.072 C 
ATOM     23  C   UNL     1      34.779 -18.672 -22.876  0.00  0.00    +0.021 C 
ATOM     24  C   UNL     1      34.786 -19.360 -24.210  0.00  0.00    +0.021 C 
ENDBRANCH  19  22
ENDBRANCH  14  20
BRANCH  15  25
ATOM     25  O   UNL     1      33.237 -13.065 -26.630  0.00  0.00    -0.379 OA
ATOM     26  H   UNL     1      32.342 -12.800 -26.367  0.00  0.00    +0.211 HD
ENDBRANCH  15  25
BRANCH  16  27
ATOM     27  O   UNL     1      33.821 -11.121 -24.828  0.00  0.00    -0.378 OA
ATOM     28  H   UNL     1      34.735 -10.856 -25.019  0.00  0.00    +0.211 HD
ENDBRANCH  16  27
ENDBRANCH   1  17
BRANCH   9  30
ATOM     29  C   UNL     1      31.794  -6.636 -22.912  0.00  0.00    -0.074 C 
ATOM     30  C   UNL     1      31.837  -7.715 -22.384  0.00  0.00    +0.032 C 
BRANCH  29  31
ATOM     31  C   UNL     1      31.738  -5.317 -23.547  0.00  0.00    +0.077 C 
BRANCH  31  34
ATOM     32  O   UNL     1      36.454  -4.369 -27.508  0.00  0.00    -0.226 OA
ATOM     33  N   UNL     1      34.195  -4.559 -26.996  0.00  0.00    -0.246 N 
ATOM     34  C   UNL     1      32.291  -5.371 -24.969  0.00  0.00    +0.016 C 
ATOM     35  C   UNL     1      33.738  -5.888 -24.973  0.00  0.00    +0.023 C 
ATOM     36  C   UNL     1      32.219  -3.989 -25.636  0.00  0.00    +0.023 C 
ATOM     37  C   UNL     1      34.324  -5.880 -26.383  0.00  0.00    +0.097 C 
ATOM     38  C   UNL     1      32.834  -4.016 -27.034  0.00  0.00    +0.097 C 
ATOM     39  C   UNL     1      35.311  -3.918 -27.539  0.00  0.00    +0.405 C 
BRANCH  39  40
ATOM     40  O   UNL     1      35.000  -2.716 -28.119  0.00  0.00    -0.430 OA
ATOM     41  C   UNL     1      35.288  -2.596 -29.517  0.00  0.00    +0.257 C 
ENDBRANCH  39  40
ENDBRANCH  31  34
ENDBRANCH  29  31
ENDBRANCH   9  30
TORSDOF 9
ENDMDL
MODEL 5
REMARK VINA RESULT:      -8.7      3.427      5.386
REMARK  Name = 11627443
REMARK  9 active torsions:
REMARK  status: ('A' for Active; 'I' for Inactive)
REMARK    1  A    between atoms: N_1  and  C_14
REMARK    2  A    between atoms: C_9  and  C_30
REMARK    3  A    between atoms: C_11  and  C_17
REMARK    4  A    between atoms: C_12  and  O_22
REMARK    5  A    between atoms: C_13  and  O_24
REMARK    6  A    between atoms: N_16  and  C_19
REMARK    7  A    between atoms: C_29  and  C_31
REMARK    8  A    between atoms: C_31  and  C_34
REMARK    9  A    between atoms: C_39  and  O_40
REMARK                            x       y       z     vdW  Elec       q    Type
REMARK                         _______ _______ _______ _____ _____    ______ ____
ROOT
ATOM      1  N   UNL     1      32.302 -12.161 -22.636  0.00  0.00    -0.236 N 
ATOM      2  N   UNL     1      32.259 -12.068 -20.408  0.00  0.00    -0.240 NA
ATOM      3  N   UNL     1      31.876  -9.828 -23.158  0.00  0.00    -0.316 NA
ATOM      4  N   UNL     1      31.608  -8.499 -21.128  0.00  0.00    -0.317 NA
ATOM      5  C   UNL     1      32.057 -10.856 -22.316  0.00  0.00    +0.221 C 
ATOM      6  C   UNL     1      32.414 -12.850 -21.456  0.00  0.00    +0.224 C 
ATOM      7  C   UNL     1      32.035 -10.819 -20.931  0.00  0.00    +0.167 C 
ATOM      8  C   UNL     1      31.800  -9.582 -20.338  0.00  0.00    +0.211 C 
ATOM      9  C   UNL     1      31.657  -8.686 -22.470  0.00  0.00    +0.188 C 
ATOM     10  N   UNL     1      31.760  -9.453 -18.939  0.00  0.00    -0.331 N 
ATOM     11  H   UNL     1      31.594  -8.572 -18.532  0.00  0.00    +0.145 HD
ATOM     12  H   UNL     1      31.900 -10.241 -18.367  0.00  0.00    +0.145 HD
ENDROOT
BRANCH   1  17
ATOM     13  O   UNL     1      32.312 -14.160 -23.901  0.00  0.00    -0.326 OA
ATOM     14  C   UNL     1      33.221 -14.742 -24.848  0.00  0.00    +0.222 C 
ATOM     15  C   UNL     1      33.867 -13.602 -25.621  0.00  0.00    +0.178 C 
ATOM     16  C   UNL     1      33.756 -12.443 -24.651  0.00  0.00    +0.187 C 
ATOM     17  C   UNL     1      32.422 -12.727 -23.976  0.00  0.00    +0.226 C 
BRANCH  14  20
ATOM     18  O   UNL     1      34.936 -15.000 -23.211  0.00  0.00    -0.272 OA
ATOM     19  N   UNL     1      34.222 -16.870 -24.394  0.00  0.00    -0.304 N 
ATOM     20  C   UNL     1      34.211 -15.527 -24.051  0.00  0.00    +0.252 C 
ATOM     21  H   UNL     1      33.596 -17.187 -25.083  0.00  0.00    +0.149 HD
BRANCH  19  22
ATOM     22  C   UNL     1      35.112 -17.814 -23.781  0.00  0.00    +0.072 C 
ATOM     23  C   UNL     1      34.641 -18.721 -22.681  0.00  0.00    +0.021 C 
ATOM     24  C   UNL     1      34.974 -19.287 -24.031  0.00  0.00    +0.021 C 
ENDBRANCH  19  22
ENDBRANCH  14  20
BRANCH  15  25
ATOM     25  O   UNL     1      33.092 -13.341 -26.789  0.00  0.00    -0.379 OA
ATOM     26  H   UNL     1      33.237 -14.047 -27.438  0.00  0.00    +0.211 HD
ENDBRANCH  15  25
BRANCH  16  27
ATOM     27  O   UNL     1      33.767 -11.182 -25.288  0.00  0.00    -0.378 OA
ATOM     28  H   UNL     1      32.855 -10.901 -25.466  0.00  0.00    +0.211 HD
ENDBRANCH  16  27
ENDBRANCH   1  17
BRANCH   9  30
ATOM     29  C   UNL     1      31.277  -6.529 -23.929  0.00  0.00    -0.074 C 
ATOM     30  C   UNL     1      31.450  -7.515 -23.263  0.00  0.00    +0.032 C 
BRANCH  29  31
ATOM     31  C   UNL     1      31.064  -5.332 -24.746  0.00  0.00    +0.077 C 
BRANCH  31  34
ATOM     32  O   UNL     1      34.486  -2.704 -29.242  0.00  0.00    -0.226 OA
ATOM     33  N   UNL     1      34.240  -3.957 -27.300  0.00  0.00    -0.246 N 
ATOM     34  C   UNL     1      32.393  -4.743 -25.212  0.00  0.00    +0.016 C 
ATOM     35  C   UNL     1      32.165  -3.484 -26.061  0.00  0.00    +0.023 C 
ATOM     36  C   UNL     1      33.202  -5.780 -26.006  0.00  0.00    +0.023 C 
ATOM     37  C   UNL     1      33.484  -2.927 -26.590  0.00  0.00    +0.097 C 
ATOM     38  C   UNL     1      34.503  -5.181 -26.536  0.00  0.00    +0.097 C 
ATOM     39  C   UNL     1      34.704  -3.729 -28.598  0.00  0.00    +0.405 C 
BRANCH  39  40
ATOM     40  O   UNL     1      35.438  -4.776 -29.089  0.00  0.00    -0.430 OA
ATOM     41  C   UNL     1      36.805  -4.494 -29.411  0.00  0.00    +0.257 C 
ENDBRANCH  39  40
ENDBRANCH  31  34
ENDBRANCH  29  31
ENDBRANCH   9  30
TORSDOF 9
ENDMDL
MODEL 6
REMARK VINA RESULT:      -8.5      3.657      5.885
REMARK  Name = 11627443
REMARK  9 active torsions:
REMARK  status: ('A' for Active; 'I' for Inactive)
REMARK    1  A    between atoms: N_1  and  C_14
REMARK    2  A    between atoms: C_9  and  C_30
REMARK    3  A    between atoms: C_11  and  C_17
REMARK    4  A    between atoms: C_12  and  O_22
REMARK    5  A    between atoms: C_13  and  O_24
REMARK    6  A    between atoms: N_16  and  C_19
REMARK    7  A    between atoms: C_29  and  C_31
REMARK    8  A    between atoms: C_31  and  C_34
REMARK    9  A    between atoms: C_39  and  O_40
REMARK                            x       y       z     vdW  Elec       q    Type
REMARK                         _______ _______ _______ _____ _____    ______ ____
ROOT
ATOM      1  N   UNL     1      32.207 -11.207 -22.182  0.00  0.00    -0.236 N 
ATOM      2  N   UNL     1      32.017 -10.690 -20.021  0.00  0.00    -0.240 NA
ATOM      3  N   UNL     1      32.122  -8.982 -23.152  0.00  0.00    -0.316 NA
ATOM      4  N   UNL     1      31.881  -7.271 -21.428  0.00  0.00    -0.317 NA
ATOM      5  C   UNL     1      32.108  -9.847 -22.125  0.00  0.00    +0.221 C 
ATOM      6  C   UNL     1      32.145 -11.669 -20.893  0.00  0.00    +0.224 C 
ATOM      7  C   UNL     1      31.992  -9.546 -20.778  0.00  0.00    +0.167 C 
ATOM      8  C   UNL     1      31.876  -8.201 -20.441  0.00  0.00    +0.211 C 
ATOM      9  C   UNL     1      32.002  -7.714 -22.703  0.00  0.00    +0.188 C 
ATOM     10  N   UNL     1      31.753  -7.805 -19.099  0.00  0.00    -0.331 N 
ATOM     11  H   UNL     1      31.672  -6.850 -18.873  0.00  0.00    +0.145 HD
ATOM     12  H   UNL     1      31.749  -8.481 -18.384  0.00  0.00    +0.145 HD
ENDROOT
BRANCH   1  17
ATOM     13  O   UNL     1      32.110 -13.407 -23.048  0.00  0.00    -0.326 OA
ATOM     14  C   UNL     1      33.014 -14.226 -23.805  0.00  0.00    +0.222 C 
ATOM     15  C   UNL     1      33.799 -13.308 -24.730  0.00  0.00    +0.178 C 
ATOM     16  C   UNL     1      33.737 -11.980 -24.003  0.00  0.00    +0.187 C 
ATOM     17  C   UNL     1      32.349 -12.028 -23.382  0.00  0.00    +0.226 C 
BRANCH  14  20
ATOM     18  O   UNL     1      34.201 -14.393 -21.744  0.00  0.00    -0.272 OA
ATOM     19  N   UNL     1      34.300 -16.167 -23.243  0.00  0.00    -0.304 N 
ATOM     20  C   UNL     1      33.887 -14.918 -22.809  0.00  0.00    +0.252 C 
ATOM     21  H   UNL     1      33.987 -16.492 -24.117  0.00  0.00    +0.149 HD
BRANCH  19  22
ATOM     22  C   UNL     1      35.168 -17.004 -22.465  0.00  0.00    +0.072 C 
ATOM     23  C   UNL     1      34.670 -18.282 -21.857  0.00  0.00    +0.021 C 
ATOM     24  C   UNL     1      35.651 -18.324 -22.992  0.00  0.00    +0.021 C 
ENDBRANCH  19  22
ENDBRANCH  14  20
BRANCH  15  25
ATOM     25  O   UNL     1      33.113 -13.217 -25.978  0.00  0.00    -0.379 OA
ATOM     26  H   UNL     1      32.350 -13.816 -25.972  0.00  0.00    +0.211 HD
ENDBRANCH  15  25
BRANCH  16  27
ATOM     27  O   UNL     1      33.893 -10.869 -24.862  0.00  0.00    -0.378 OA
ATOM     28  H   UNL     1      34.358 -10.158 -24.392  0.00  0.00    +0.211 HD
ENDBRANCH  16  27
ENDBRANCH   1  17
BRANCH   9  30
ATOM     29  C   UNL     1      32.005  -5.843 -24.554  0.00  0.00    -0.074 C 
ATOM     30  C   UNL     1      32.004  -6.698 -23.710  0.00  0.00    +0.032 C 
BRANCH  29  31
ATOM     31  C   UNL     1      32.010  -4.806 -25.589  0.00  0.00    +0.077 C 
BRANCH  31  34
ATOM     32  O   UNL     1      37.945  -4.270 -27.408  0.00  0.00    -0.226 OA
ATOM     33  N   UNL     1      35.672  -4.512 -27.826  0.00  0.00    -0.246 N 
ATOM     34  C   UNL     1      33.095  -5.075 -26.628  0.00  0.00    +0.016 C 
ATOM     35  C   UNL     1      34.410  -5.490 -25.951  0.00  0.00    +0.023 C 
ATOM     36  C   UNL     1      33.321  -3.840 -27.514  0.00  0.00    +0.023 C 
ATOM     37  C   UNL     1      35.521  -5.693 -26.977  0.00  0.00    +0.097 C 
ATOM     38  C   UNL     1      34.453  -4.074 -28.513  0.00  0.00    +0.097 C 
ATOM     39  C   UNL     1      36.921  -3.906 -27.983  0.00  0.00    +0.405 C 
BRANCH  39  40
ATOM     40  O   UNL     1      36.890  -2.849 -28.854  0.00  0.00    -0.430 OA
ATOM     41  C   UNL     1      38.095  -2.598 -29.585  0.00  0.00    +0.257 C 
ENDBRANCH  39  40
ENDBRANCH  31  34
ENDBRANCH  29  31
ENDBRANCH   9  30
TORSDOF 9
ENDMDL
MODEL 7
REMARK VINA RESULT:      -8.4      3.935     12.944
REMARK  Name = 11627443
REMARK  9 active torsions:
REMARK  status: ('A' for Active; 'I' for Inactive)
REMARK    1  A    between atoms: N_1  and  C_14
REMARK    2  A    between atoms: C_9  and  C_30
REMARK    3  A    between atoms: C_11  and  C_17
REMARK    4  A    between atoms: C_12  and  O_22
REMARK    5  A    between atoms: C_13  and  O_24
REMARK    6  A    between atoms: N_16  and  C_19
REMARK    7  A    between atoms: C_29  and  C_31
REMARK    8  A    between atoms: C_31  and  C_34
REMARK    9  A    between atoms: C_39  and  O_40
REMARK                            x       y       z     vdW  Elec       q    Type
REMARK                         _______ _______ _______ _____ _____    ______ ____
ROOT
ATOM      1  N   UNL     1      33.874 -16.400 -22.872  0.00  0.00    -0.236 N 
ATOM      2  N   UNL     1      34.853 -17.129 -24.738  0.00  0.00    -0.240 NA
ATOM      3  N   UNL     1      33.858 -18.456 -21.580  0.00  0.00    -0.316 NA
ATOM      4  N   UNL     1      34.863 -20.297 -22.829  0.00  0.00    -0.317 NA
ATOM      5  C   UNL     1      34.132 -17.726 -22.672  0.00  0.00    +0.221 C 
ATOM      6  C   UNL     1      34.324 -16.089 -24.129  0.00  0.00    +0.224 C 
ATOM      7  C   UNL     1      34.739 -18.159 -23.839  0.00  0.00    +0.167 C 
ATOM      8  C   UNL     1      35.110 -19.499 -23.896  0.00  0.00    +0.211 C 
ATOM      9  C   UNL     1      34.261 -19.734 -21.753  0.00  0.00    +0.188 C 
ATOM     10  N   UNL     1      35.731 -20.024 -25.042  0.00  0.00    -0.331 N 
ATOM     11  H   UNL     1      35.989 -20.974 -25.070  0.00  0.00    +0.145 HD
ATOM     12  H   UNL     1      35.909 -19.443 -25.816  0.00  0.00    +0.145 HD
ENDROOT
BRANCH   1  17
ATOM     13  O   UNL     1      32.270 -14.677 -22.634  0.00  0.00    -0.326 OA
ATOM     14  C   UNL     1      32.302 -13.345 -22.100  0.00  0.00    +0.222 C 
ATOM     15  C   UNL     1      33.284 -13.342 -20.938  0.00  0.00    +0.178 C 
ATOM     16  C   UNL     1      34.202 -14.498 -21.282  0.00  0.00    +0.187 C 
ATOM     17  C   UNL     1      33.239 -15.478 -21.934  0.00  0.00    +0.226 C 
BRANCH  14  20
ATOM     18  O   UNL     1      33.128 -12.903 -24.292  0.00  0.00    -0.272 OA
ATOM     19  N   UNL     1      32.663 -11.112 -22.886  0.00  0.00    -0.304 N 
ATOM     20  C   UNL     1      32.735 -12.455 -23.219  0.00  0.00    +0.252 C 
ATOM     21  H   UNL     1      32.331 -10.862 -21.994  0.00  0.00    +0.149 HD
BRANCH  19  22
ATOM     22  C   UNL     1      33.055 -10.071 -23.793  0.00  0.00    +0.072 C 
ATOM     23  C   UNL     1      33.598  -8.767 -23.288  0.00  0.00    +0.021 C 
ATOM     24  C   UNL     1      34.501  -9.728 -24.004  0.00  0.00    +0.021 C 
ENDBRANCH  19  22
ENDBRANCH  14  20
BRANCH  15  25
ATOM     25  O   UNL     1      32.573 -13.620 -19.734  0.00  0.00    -0.379 OA
ATOM     26  H   UNL     1      32.006 -14.396 -19.865  0.00  0.00    +0.211 HD
ENDBRANCH  15  25
BRANCH  16  27
ATOM     27  O   UNL     1      34.838 -15.057 -20.151  0.00  0.00    -0.378 OA
ATOM     28  H   UNL     1      34.238 -15.683 -19.717  0.00  0.00    +0.211 HD
ENDBRANCH  16  27
ENDBRANCH   1  17
BRANCH   9  30
ATOM     29  C   UNL     1      33.821 -21.350 -19.723  0.00  0.00    -0.074 C 
ATOM     30  C   UNL     1      34.022 -20.613 -20.651  0.00  0.00    +0.032 C 
BRANCH  29  31
ATOM     31  C   UNL     1      33.573 -22.254 -18.597  0.00  0.00    +0.077 C 
BRANCH  31  34
ATOM     32  O   UNL     1      38.988 -23.607 -15.826  0.00  0.00    -0.226 OA
ATOM     33  N   UNL     1      36.799 -22.827 -15.809  0.00  0.00    -0.246 N 
ATOM     34  C   UNL     1      34.569 -22.007 -17.467  0.00  0.00    +0.016 C 
ATOM     35  C   UNL     1      36.011 -22.015 -17.997  0.00  0.00    +0.023 C 
ATOM     36  C   UNL     1      34.406 -23.055 -16.356  0.00  0.00    +0.023 C 
ATOM     37  C   UNL     1      37.018 -21.838 -16.864  0.00  0.00    +0.097 C 
ATOM     38  C   UNL     1      35.443 -22.859 -15.252  0.00  0.00    +0.097 C 
ATOM     39  C   UNL     1      37.850 -23.630 -15.361  0.00  0.00    +0.405 C 
BRANCH  39  40
ATOM     40  O   UNL     1      37.481 -24.459 -14.334  0.00  0.00    -0.430 OA
ATOM     41  C   UNL     1      37.644 -25.863 -14.567  0.00  0.00    +0.257 C 
ENDBRANCH  39  40
ENDBRANCH  31  34
ENDBRANCH  29  31
ENDBRANCH   9  30
TORSDOF 9
ENDMDL
MODEL 8
REMARK VINA RESULT:      -8.3      2.691     11.994
REMARK  Name = 11627443
REMARK  9 active torsions:
REMARK  status: ('A' for Active; 'I' for Inactive)
REMARK    1  A    between atoms: N_1  and  C_14
REMARK    2  A    between atoms: C_9  and  C_30
REMARK    3  A    between atoms: C_11  and  C_17
REMARK    4  A    between atoms: C_12  and  O_22
REMARK    5  A    between atoms: C_13  and  O_24
REMARK    6  A    between atoms: N_16  and  C_19
REMARK    7  A    between atoms: C_29  and  C_31
REMARK    8  A    between atoms: C_31  and  C_34
REMARK    9  A    between atoms: C_39  and  O_40
REMARK                            x       y       z     vdW  Elec       q    Type
REMARK                         _______ _______ _______ _____ _____    ______ ____
ROOT
ATOM      1  N   UNL     1      31.433  -5.598 -22.963  0.00  0.00    -0.236 N 
ATOM      2  N   UNL     1      31.464  -5.899 -20.754  0.00  0.00    -0.240 NA
ATOM      3  N   UNL     1      32.241  -7.770 -23.691  0.00  0.00    -0.316 NA
ATOM      4  N   UNL     1      32.699  -9.229 -21.788  0.00  0.00    -0.317 NA
ATOM      5  C   UNL     1      31.885  -6.871 -22.760  0.00  0.00    +0.221 C 
ATOM      6  C   UNL     1      31.195  -5.055 -21.727  0.00  0.00    +0.224 C 
ATOM      7  C   UNL     1      31.896  -7.038 -21.385  0.00  0.00    +0.167 C 
ATOM      8  C   UNL     1      32.323  -8.273 -20.904  0.00  0.00    +0.211 C 
ATOM      9  C   UNL     1      32.636  -8.922 -23.106  0.00  0.00    +0.188 C 
ATOM     10  N   UNL     1      32.366  -8.529 -19.524  0.00  0.00    -0.331 N 
ATOM     11  H   UNL     1      32.670  -9.407 -19.196  0.00  0.00    +0.145 HD
ATOM     12  H   UNL     1      32.093  -7.833 -18.884  0.00  0.00    +0.145 HD
ENDROOT
BRANCH   1  17
ATOM     13  O   UNL     1      31.772  -5.755 -25.299  0.00  0.00    -0.326 OA
ATOM     14  C   UNL     1      32.385  -4.906 -26.282  0.00  0.00    +0.222 C 
ATOM     15  C   UNL     1      32.136  -3.465 -25.861  0.00  0.00    +0.178 C 
ATOM     16  C   UNL     1      31.947  -3.590 -24.362  0.00  0.00    +0.187 C 
ATOM     17  C   UNL     1      31.238  -4.931 -24.247  0.00  0.00    +0.226 C 
BRANCH  14  20
ATOM     18  O   UNL     1      34.324  -6.034 -25.476  0.00  0.00    -0.272 OA
ATOM     19  N   UNL     1      34.535  -4.595 -27.289  0.00  0.00    -0.304 N 
ATOM     20  C   UNL     1      33.837  -5.257 -26.293  0.00  0.00    +0.252 C 
ATOM     21  H   UNL     1      34.043  -3.993 -27.892  0.00  0.00    +0.149 HD
BRANCH  19  22
ATOM     22  C   UNL     1      35.950  -4.754 -27.474  0.00  0.00    +0.072 C 
ATOM     23  C   UNL     1      36.551  -4.787 -28.849  0.00  0.00    +0.021 C 
ATOM     24  C   UNL     1      36.804  -3.614 -27.946  0.00  0.00    +0.021 C 
ENDBRANCH  19  22
ENDBRANCH  14  20
BRANCH  15  25
ATOM     25  O   UNL     1      30.932  -3.008 -26.471  0.00  0.00    -0.379 OA
ATOM     26  H   UNL     1      30.722  -3.571 -27.233  0.00  0.00    +0.211 HD
ENDBRANCH  15  25
BRANCH  16  27
ATOM     27  O   UNL     1      31.181  -2.539 -23.810  0.00  0.00    -0.378 OA
ATOM     28  H   UNL     1      31.514  -1.689 -24.137  0.00  0.00    +0.211 HD
ENDBRANCH  16  27
ENDBRANCH   1  17
BRANCH   9  30
ATOM     29  C   UNL     1      33.385 -10.835 -24.752  0.00  0.00    -0.074 C 
ATOM     30  C   UNL     1      33.042  -9.962 -24.001  0.00  0.00    +0.032 C 
BRANCH  29  31
ATOM     31  C   UNL     1      33.796 -11.903 -25.667  0.00  0.00    +0.077 C 
BRANCH  31  34
ATOM     32  O   UNL     1      35.204 -17.190 -22.685  0.00  0.00    -0.226 OA
ATOM     33  N   UNL     1      33.965 -15.945 -24.208  0.00  0.00    -0.246 N 
ATOM     34  C   UNL     1      33.365 -13.270 -25.141  0.00  0.00    +0.016 C 
ATOM     35  C   UNL     1      33.950 -13.527 -23.744  0.00  0.00    +0.023 C 
ATOM     36  C   UNL     1      33.790 -14.385 -26.108  0.00  0.00    +0.023 C 
ATOM     37  C   UNL     1      33.583 -14.919 -23.239  0.00  0.00    +0.097 C 
ATOM     38  C   UNL     1      33.426 -15.763 -25.559  0.00  0.00    +0.097 C 
ATOM     39  C   UNL     1      34.750 -17.033 -23.817  0.00  0.00    +0.405 C 
BRANCH  39  40
ATOM     40  O   UNL     1      34.966 -17.923 -24.836  0.00  0.00    -0.430 OA
ATOM     41  C   UNL     1      34.607 -19.284 -24.573  0.00  0.00    +0.257 C 
ENDBRANCH  39  40
ENDBRANCH  31  34
ENDBRANCH  29  31
ENDBRANCH   9  30
TORSDOF 9
ENDMDL
MODEL 9
REMARK VINA RESULT:      -8.2      3.918     12.294
REMARK  Name = 11627443
REMARK  9 active torsions:
REMARK  status: ('A' for Active; 'I' for Inactive)
REMARK    1  A    between atoms: N_1  and  C_14
REMARK    2  A    between atoms: C_9  and  C_30
REMARK    3  A    between atoms: C_11  and  C_17
REMARK    4  A    between atoms: C_12  and  O_22
REMARK    5  A    between atoms: C_13  and  O_24
REMARK    6  A    between atoms: N_16  and  C_19
REMARK    7  A    between atoms: C_29  and  C_31
REMARK    8  A    between atoms: C_31  and  C_34
REMARK    9  A    between atoms: C_39  and  O_40
REMARK                            x       y       z     vdW  Elec       q    Type
REMARK                         _______ _______ _______ _____ _____    ______ ____
ROOT
ATOM      1  N   UNL     1      33.667 -16.413 -23.363  0.00  0.00    -0.236 N 
ATOM      2  N   UNL     1      33.995 -17.346 -25.361  0.00  0.00    -0.240 NA
ATOM      3  N   UNL     1      34.629 -18.128 -21.938  0.00  0.00    -0.316 NA
ATOM      4  N   UNL     1      35.477 -20.001 -23.254  0.00  0.00    -0.317 NA
ATOM      5  C   UNL     1      34.284 -17.608 -23.126  0.00  0.00    +0.221 C 
ATOM      6  C   UNL     1      33.514 -16.302 -24.720  0.00  0.00    +0.224 C 
ATOM      7  C   UNL     1      34.479 -18.171 -24.376  0.00  0.00    +0.167 C 
ATOM      8  C   UNL     1      35.102 -19.415 -24.416  0.00  0.00    +0.211 C 
ATOM      9  C   UNL     1      35.221 -19.331 -22.104  0.00  0.00    +0.188 C 
ATOM     10  N   UNL     1      35.339 -20.059 -25.642  0.00  0.00    -0.331 N 
ATOM     11  H   UNL     1      35.781 -20.939 -25.657  0.00  0.00    +0.145 HD
ATOM     12  H   UNL     1      35.066 -19.632 -26.485  0.00  0.00    +0.145 HD
ENDROOT
BRANCH   1  17
ATOM     13  O   UNL     1      32.391 -14.455 -22.992  0.00  0.00    -0.326 OA
ATOM     14  C   UNL     1      32.675 -13.167 -22.425  0.00  0.00    +0.222 C 
ATOM     15  C   UNL     1      33.700 -13.368 -21.319  0.00  0.00    +0.178 C 
ATOM     16  C   UNL     1      34.391 -14.649 -21.743  0.00  0.00    +0.187 C 
ATOM     17  C   UNL     1      33.244 -15.431 -22.367  0.00  0.00    +0.226 C 
BRANCH  14  20
ATOM     18  O   UNL     1      33.676 -12.814 -24.560  0.00  0.00    -0.272 OA
ATOM     19  N   UNL     1      33.094 -10.967 -23.275  0.00  0.00    -0.304 N 
ATOM     20  C   UNL     1      33.195 -12.323 -23.543  0.00  0.00    +0.252 C 
ATOM     21  H   UNL     1      32.690 -10.681 -22.424  0.00  0.00    +0.149 HD
BRANCH  19  22
ATOM     22  C   UNL     1      33.557  -9.964 -24.191  0.00  0.00    +0.072 C 
ATOM     23  C   UNL     1      34.218  -8.710 -23.698  0.00  0.00    +0.021 C 
ATOM     24  C   UNL     1      35.022  -9.746 -24.429  0.00  0.00    +0.021 C 
ENDBRANCH  19  22
ENDBRANCH  14  20
BRANCH  15  25
ATOM     25  O   UNL     1      33.013 -13.566 -20.085  0.00  0.00    -0.379 OA
ATOM     26  H   UNL     1      32.764 -12.706 -19.713  0.00  0.00    +0.211 HD
ENDBRANCH  15  25
BRANCH  16  27
ATOM     27  O   UNL     1      34.979 -15.346 -20.664  0.00  0.00    -0.378 OA
ATOM     28  H   UNL     1      35.505 -14.731 -20.129  0.00  0.00    +0.211 HD
ENDBRANCH  16  27
ENDBRANCH   1  17
BRANCH   9  30
ATOM     29  C   UNL     1      35.982 -20.539 -19.893  0.00  0.00    -0.074 C 
ATOM     30  C   UNL     1      35.636 -19.987 -20.903  0.00  0.00    +0.032 C 
BRANCH  29  31
ATOM     31  C   UNL     1      36.412 -21.213 -18.666  0.00  0.00    +0.077 C 
BRANCH  31  34
ATOM     32  O   UNL     1      30.716 -22.803 -16.702  0.00  0.00    -0.226 OA
ATOM     33  N   UNL     1      33.002 -23.166 -16.917  0.00  0.00    -0.246 N 
ATOM     34  C   UNL     1      35.417 -22.298 -18.260  0.00  0.00    +0.016 C 
ATOM     35  C   UNL     1      34.022 -22.001 -18.831  0.00  0.00    +0.023 C 
ATOM     36  C   UNL     1      35.347 -22.430 -16.731  0.00  0.00    +0.023 C 
ATOM     37  C   UNL     1      33.004 -23.042 -18.374  0.00  0.00    +0.097 C 
ATOM     38  C   UNL     1      34.303 -23.464 -16.311  0.00  0.00    +0.097 C 
ATOM     39  C   UNL     1      31.809 -23.053 -16.197  0.00  0.00    +0.405 C 
BRANCH  39  40
ATOM     40  O   UNL     1      31.983 -23.251 -14.853  0.00  0.00    -0.430 OA
ATOM     41  C   UNL     1      30.788 -23.379 -14.074  0.00  0.00    +0.257 C 
ENDBRANCH  39  40
ENDBRANCH  31  34
ENDBRANCH  29  31
ENDBRANCH   9  30
TORSDOF 9
ENDMDL
