MODEL 1
REMARK VINA RESULT:     -11.2      0.000      0.000
REMARK  Name = 5663
REMARK  4 active torsions:
REMARK  status: ('A' for Active; 'I' for Inactive)
REMARK    1  A    between atoms: N_2  and  C_11
REMARK    2  A    between atoms: C_8  and  C_21
REMARK    3  A    between atoms: C_24  and  O_27
REMARK    4  A    between atoms: C_26  and  O_29
REMARK                            x       y       z     vdW  Elec       q    Type
REMARK                         _______ _______ _______ _____ _____    ______ ____
ROOT
ATOM      1  O   UNL     1      35.328 -19.185 -23.430  0.00  0.00    -0.270 OA
ATOM      2  N   UNL     1      33.336 -14.740 -22.017  0.00  0.00    -0.304 N 
ATOM      3  N   UNL     1      34.300 -17.462 -22.238  0.00  0.00    -0.273 N 
ATOM      4  C   UNL     1      32.666 -15.831 -21.304  0.00  0.00    +0.112 C 
ATOM      5  C   UNL     1      34.481 -15.070 -22.869  0.00  0.00    +0.112 C 
ATOM      6  C   UNL     1      33.644 -16.972 -21.021  0.00  0.00    +0.115 C 
ATOM      7  C   UNL     1      34.396 -16.518 -23.347  0.00  0.00    +0.115 C 
ATOM      8  C   UNL     1      34.777 -18.765 -22.413  0.00  0.00    +0.249 C 
ENDROOT
BRANCH   2  11
ATOM      9  O   UNL     1      31.266  -7.362 -22.411  0.00  0.00    -0.275 OA
ATOM     10  N   UNL     1      31.489  -9.487 -21.567  0.00  0.00    -0.284 N 
ATOM     11  C   UNL     1      32.888 -13.425 -21.900  0.00  0.00    +0.048 C 
ATOM     12  C   UNL     1      32.742 -11.176 -22.787  0.00  0.00    -0.007 C 
ATOM     13  C   UNL     1      33.214 -12.490 -22.883  0.00  0.00    +0.011 C 
ATOM     14  C   UNL     1      33.156 -10.128 -23.778  0.00  0.00    +0.037 C 
ATOM     15  C   UNL     1      31.952 -10.809 -21.690  0.00  0.00    +0.046 C 
ATOM     16  C   UNL     1      32.106 -13.052 -20.808  0.00  0.00    +0.016 C 
ATOM     17  C   UNL     1      32.091  -9.048 -23.903  0.00  0.00    +0.090 C 
ATOM     18  C   UNL     1      31.642 -11.741 -20.696  0.00  0.00    +0.016 C 
ATOM     19  C   UNL     1      31.611  -8.534 -22.560  0.00  0.00    +0.226 C 
ATOM     20  H   UNL     1      31.052  -9.225 -20.724  0.00  0.00    +0.155 HD
ENDBRANCH   2  11
BRANCH   8  21
ATOM     21  C   UNL     1      34.618 -19.720 -21.306  0.00  0.00    +0.057 C 
ATOM     22  C   UNL     1      35.743 -20.259 -20.689  0.00  0.00    +0.045 C 
ATOM     23  C   UNL     1      33.341 -20.082 -20.883  0.00  0.00    +0.008 C 
ATOM     24  C   UNL     1      35.592 -21.167 -19.641  0.00  0.00    +0.173 C 
ATOM     25  C   UNL     1      33.189 -20.989 -19.835  0.00  0.00    +0.040 C 
ATOM     26  C   UNL     1      34.314 -21.532 -19.214  0.00  0.00    +0.172 C 
BRANCH  24  27
ATOM     27  O   UNL     1      36.698 -21.690 -19.042  0.00  0.00    -0.468 OA
ATOM     28  C   UNL     1      36.913 -21.354 -17.673  0.00  0.00    +0.253 C 
ENDBRANCH  24  27
BRANCH  26  29
ATOM     29  O   UNL     1      34.154 -22.417 -18.190  0.00  0.00    -0.468 OA
ATOM     30  C   UNL     1      32.816 -22.734 -17.812  0.00  0.00    +0.253 C 
ENDBRANCH  26  29
ENDBRANCH   8  21
TORSDOF 4
ENDMDL
MODEL 2
REMARK VINA RESULT:     -11.1      1.727      2.833
REMARK  Name = 5663
REMARK  4 active torsions:
REMARK  status: ('A' for Active; 'I' for Inactive)
REMARK    1  A    between atoms: N_2  and  C_11
REMARK    2  A    between atoms: C_8  and  C_21
REMARK    3  A    between atoms: C_24  and  O_27
REMARK    4  A    between atoms: C_26  and  O_29
REMARK                            x       y       z     vdW  Elec       q    Type
REMARK                         _______ _______ _______ _____ _____    ______ ____
ROOT
ATOM      1  O   UNL     1      34.339 -17.666 -25.065  0.00  0.00    -0.270 OA
ATOM      2  N   UNL     1      33.270 -13.049 -23.259  0.00  0.00    -0.304 N 
ATOM      3  N   UNL     1      34.092 -15.791 -23.697  0.00  0.00    -0.273 N 
ATOM      4  C   UNL     1      33.210 -14.032 -22.173  0.00  0.00    +0.112 C 
ATOM      5  C   UNL     1      33.723 -13.502 -24.577  0.00  0.00    +0.112 C 
ATOM      6  C   UNL     1      34.238 -15.141 -22.391  0.00  0.00    +0.115 C 
ATOM      7  C   UNL     1      33.465 -14.997 -24.750  0.00  0.00    +0.115 C 
ATOM      8  C   UNL     1      34.458 -17.113 -23.973  0.00  0.00    +0.249 C 
ENDROOT
BRANCH   2  11
ATOM      9  O   UNL     1      32.036  -5.491 -22.786  0.00  0.00    -0.275 OA
ATOM     10  N   UNL     1      31.718  -7.743 -22.460  0.00  0.00    -0.284 N 
ATOM     11  C   UNL     1      32.892 -11.724 -23.050  0.00  0.00    +0.048 C 
ATOM     12  C   UNL     1      33.305  -9.356 -23.348  0.00  0.00    -0.007 C 
ATOM     13  C   UNL     1      33.694 -10.688 -23.530  0.00  0.00    +0.011 C 
ATOM     14  C   UNL     1      34.195  -8.223 -23.770  0.00  0.00    +0.037 C 
ATOM     15  C   UNL     1      32.111  -9.076 -22.670  0.00  0.00    +0.046 C 
ATOM     16  C   UNL     1      31.709 -11.438 -22.370  0.00  0.00    +0.016 C 
ATOM     17  C   UNL     1      33.376  -6.984 -24.101  0.00  0.00    +0.090 C 
ATOM     18  C   UNL     1      31.318 -10.113 -22.172  0.00  0.00    +0.016 C 
ATOM     19  C   UNL     1      32.346  -6.655 -23.037  0.00  0.00    +0.226 C 
ATOM     20  H   UNL     1      30.950  -7.574 -21.868  0.00  0.00    +0.155 HD
ENDBRANCH   2  11
BRANCH   8  21
ATOM     21  C   UNL     1      35.033 -17.918 -22.884  0.00  0.00    +0.057 C 
ATOM     22  C   UNL     1      34.193 -18.618 -22.023  0.00  0.00    +0.045 C 
ATOM     23  C   UNL     1      36.415 -17.972 -22.720  0.00  0.00    +0.008 C 
ATOM     24  C   UNL     1      34.739 -19.380 -20.989  0.00  0.00    +0.173 C 
ATOM     25  C   UNL     1      36.961 -18.733 -21.687  0.00  0.00    +0.040 C 
ATOM     26  C   UNL     1      36.123 -19.437 -20.821  0.00  0.00    +0.172 C 
BRANCH  24  27
ATOM     27  O   UNL     1      33.911 -20.063 -20.150  0.00  0.00    -0.468 OA
ATOM     28  C   UNL     1      32.531 -20.118 -20.506  0.00  0.00    +0.253 C 
ENDBRANCH  24  27
BRANCH  26  29
ATOM     29  O   UNL     1      36.668 -20.178 -19.816  0.00  0.00    -0.468 OA
ATOM     30  C   UNL     1      36.458 -21.588 -19.864  0.00  0.00    +0.253 C 
ENDBRANCH  26  29
ENDBRANCH   8  21
TORSDOF 4
ENDMDL
MODEL 3
REMARK VINA RESULT:     -11.1      2.460      4.276
REMARK  Name = 5663
REMARK  4 active torsions:
REMARK  status: ('A' for Active; 'I' for Inactive)
REMARK    1  A    between atoms: N_2  and  C_11
REMARK    2  A    between atoms: C_8  and  C_21
REMARK    3  A    between atoms: C_24  and  O_27
REMARK    4  A    between atoms: C_26  and  O_29
REMARK                            x       y       z     vdW  Elec       q    Type
REMARK                         _______ _______ _______ _____ _____    ______ ____
ROOT
ATOM      1  O   UNL     1      33.590 -16.361 -26.215  0.00  0.00    -0.270 OA
ATOM      2  N   UNL     1      33.531 -11.651 -24.333  0.00  0.00    -0.304 N 
ATOM      3  N   UNL     1      33.802 -14.490 -24.834  0.00  0.00    -0.273 N 
ATOM      4  C   UNL     1      33.384 -12.621 -23.244  0.00  0.00    +0.112 C 
ATOM      5  C   UNL     1      33.784 -12.160 -25.684  0.00  0.00    +0.112 C 
ATOM      6  C   UNL     1      34.171 -13.895 -23.546  0.00  0.00    +0.115 C 
ATOM      7  C   UNL     1      33.245 -13.582 -25.832  0.00  0.00    +0.115 C 
ATOM      8  C   UNL     1      33.898 -15.853 -25.137  0.00  0.00    +0.249 C 
ENDROOT
BRANCH   2  11
ATOM      9  O   UNL     1      31.850  -4.331 -22.767  0.00  0.00    -0.275 OA
ATOM     10  N   UNL     1      33.102  -6.173 -23.327  0.00  0.00    -0.284 N 
ATOM     11  C   UNL     1      33.420 -10.283 -24.095  0.00  0.00    +0.048 C 
ATOM     12  C   UNL     1      32.052  -8.351 -23.580  0.00  0.00    -0.007 C 
ATOM     13  C   UNL     1      32.167  -9.719 -23.849  0.00  0.00    +0.011 C 
ATOM     14  C   UNL     1      30.708  -7.704 -23.407  0.00  0.00    +0.037 C 
ATOM     15  C   UNL     1      33.204  -7.554 -23.573  0.00  0.00    +0.046 C 
ATOM     16  C   UNL     1      34.561  -9.482 -24.093  0.00  0.00    +0.016 C 
ATOM     17  C   UNL     1      30.808  -6.476 -22.514  0.00  0.00    +0.090 C 
ATOM     18  C   UNL     1      34.456  -8.114 -23.839  0.00  0.00    +0.016 C 
ATOM     19  C   UNL     1      31.942  -5.550 -22.909  0.00  0.00    +0.226 C 
ATOM     20  H   UNL     1      33.905  -5.618 -23.461  0.00  0.00    +0.155 HD
ENDBRANCH   2  11
BRANCH   8  21
ATOM     21  C   UNL     1      34.405 -16.763 -24.099  0.00  0.00    +0.057 C 
ATOM     22  C   UNL     1      34.581 -16.301 -22.798  0.00  0.00    +0.045 C 
ATOM     23  C   UNL     1      34.709 -18.082 -24.425  0.00  0.00    +0.008 C 
ATOM     24  C   UNL     1      35.064 -17.164 -21.814  0.00  0.00    +0.173 C 
ATOM     25  C   UNL     1      35.192 -18.946 -23.442  0.00  0.00    +0.040 C 
ATOM     26  C   UNL     1      35.370 -18.487 -22.137  0.00  0.00    +0.172 C 
BRANCH  24  27
ATOM     27  O   UNL     1      35.234 -16.705 -20.543  0.00  0.00    -0.468 OA
ATOM     28  C   UNL     1      34.563 -15.494 -20.198  0.00  0.00    +0.253 C 
ENDBRANCH  24  27
BRANCH  26  29
ATOM     29  O   UNL     1      35.842 -19.340 -21.185  0.00  0.00    -0.468 OA
ATOM     30  C   UNL     1      34.892 -20.196 -20.554  0.00  0.00    +0.253 C 
ENDBRANCH  26  29
ENDBRANCH   8  21
TORSDOF 4
ENDMDL
MODEL 4
REMARK VINA RESULT:     -11.1      2.085      9.982
REMARK  Name = 5663
REMARK  4 active torsions:
REMARK  status: ('A' for Active; 'I' for Inactive)
REMARK    1  A    between atoms: N_2  and  C_11
REMARK    2  A    between atoms: C_8  and  C_21
REMARK    3  A    between atoms: C_24  and  O_27
REMARK    4  A    between atoms: C_26  and  O_29
REMARK                            x       y       z     vdW  Elec       q    Type
REMARK                         _______ _______ _______ _____ _____    ______ ____
ROOT
ATOM      1  O   UNL     1      33.821 -12.587 -25.687  0.00  0.00    -0.270 OA
ATOM      2  N   UNL     1      34.497 -16.400 -22.412  0.00  0.00    -0.304 N 
ATOM      3  N   UNL     1      33.933 -13.901 -23.760  0.00  0.00    -0.273 N 
ATOM      4  C   UNL     1      34.694 -15.119 -21.727  0.00  0.00    +0.112 C 
ATOM      5  C   UNL     1      34.042 -16.378 -23.804  0.00  0.00    +0.112 C 
ATOM      6  C   UNL     1      33.773 -14.048 -22.311  0.00  0.00    +0.115 C 
ATOM      7  C   UNL     1      34.439 -15.066 -24.479  0.00  0.00    +0.115 C 
ATOM      8  C   UNL     1      33.689 -12.721 -24.471  0.00  0.00    +0.249 C 
ENDROOT
BRANCH   2  11
ATOM      9  O   UNL     1      34.781 -23.164 -18.802  0.00  0.00    -0.275 OA
ATOM     10  N   UNL     1      35.518 -21.262 -19.858  0.00  0.00    -0.284 N 
ATOM     11  C   UNL     1      34.750 -17.607 -21.762  0.00  0.00    +0.048 C 
ATOM     12  C   UNL     1      33.940 -19.561 -20.583  0.00  0.00    -0.007 C 
ATOM     13  C   UNL     1      33.695 -18.335 -21.211  0.00  0.00    +0.011 C 
ATOM     14  C   UNL     1      32.837 -20.317 -19.899  0.00  0.00    +0.037 C 
ATOM     15  C   UNL     1      35.253 -20.042 -20.505  0.00  0.00    +0.046 C 
ATOM     16  C   UNL     1      36.055 -18.089 -21.675  0.00  0.00    +0.016 C 
ATOM     17  C   UNL     1      33.128 -21.810 -19.890  0.00  0.00    +0.090 C 
ATOM     18  C   UNL     1      36.312 -19.304 -21.040  0.00  0.00    +0.016 C 
ATOM     19  C   UNL     1      34.536 -22.135 -19.431  0.00  0.00    +0.226 C 
ATOM     20  H   UNL     1      36.458 -21.509 -19.700  0.00  0.00    +0.155 HD
ENDBRANCH   2  11
BRANCH   8  21
ATOM     21  C   UNL     1      33.237 -11.538 -23.722  0.00  0.00    +0.057 C 
ATOM     22  C   UNL     1      32.257 -11.671 -22.742  0.00  0.00    +0.045 C 
ATOM     23  C   UNL     1      33.790 -10.290 -24.001  0.00  0.00    +0.008 C 
ATOM     24  C   UNL     1      31.828 -10.548 -22.034  0.00  0.00    +0.173 C 
ATOM     25  C   UNL     1      33.361  -9.168 -23.293  0.00  0.00    +0.040 C 
ATOM     26  C   UNL     1      32.379  -9.296 -22.310  0.00  0.00    +0.172 C 
BRANCH  24  27
ATOM     27  O   UNL     1      30.869 -10.686 -21.076  0.00  0.00    -0.468 OA
ATOM     28  C   UNL     1      31.297 -11.135 -19.792  0.00  0.00    +0.253 C 
ENDBRANCH  24  27
BRANCH  26  29
ATOM     29  O   UNL     1      31.969  -8.193 -21.624  0.00  0.00    -0.468 OA
ATOM     30  C   UNL     1      32.781  -7.769 -20.532  0.00  0.00    +0.253 C 
ENDBRANCH  26  29
ENDBRANCH   8  21
TORSDOF 4
ENDMDL
MODEL 5
REMARK VINA RESULT:     -11.0      2.137     10.250
REMARK  Name = 5663
REMARK  4 active torsions:
REMARK  status: ('A' for Active; 'I' for Inactive)
REMARK    1  A    between atoms: N_2  and  C_11
REMARK    2  A    between atoms: C_8  and  C_21
REMARK    3  A    between atoms: C_24  and  O_27
REMARK    4  A    between atoms: C_26  and  O_29
REMARK                            x       y       z     vdW  Elec       q    Type
REMARK                         _______ _______ _______ _____ _____    ______ ____
ROOT
ATOM      1  O   UNL     1      33.559 -12.498 -25.876  0.00  0.00    -0.270 OA
ATOM      2  N   UNL     1      34.491 -16.221 -22.561  0.00  0.00    -0.304 N 
ATOM      3  N   UNL     1      33.883 -13.742 -23.927  0.00  0.00    -0.273 N 
ATOM      4  C   UNL     1      34.869 -14.932 -21.976  0.00  0.00    +0.112 C 
ATOM      5  C   UNL     1      33.831 -16.221 -23.869  0.00  0.00    +0.112 C 
ATOM      6  C   UNL     1      33.938 -13.823 -22.465  0.00  0.00    +0.115 C 
ATOM      7  C   UNL     1      34.200 -14.966 -24.657  0.00  0.00    +0.115 C 
ATOM      8  C   UNL     1      33.606 -12.576 -24.649  0.00  0.00    +0.249 C 
ENDROOT
BRANCH   2  11
ATOM      9  O   UNL     1      34.895 -22.953 -18.902  0.00  0.00    -0.275 OA
ATOM     10  N   UNL     1      35.599 -21.039 -19.960  0.00  0.00    -0.284 N 
ATOM     11  C   UNL     1      34.766 -17.417 -21.900  0.00  0.00    +0.048 C 
ATOM     12  C   UNL     1      33.988 -19.384 -20.719  0.00  0.00    -0.007 C 
ATOM     13  C   UNL     1      33.722 -18.168 -21.358  0.00  0.00    +0.011 C 
ATOM     14  C   UNL     1      32.896 -20.163 -20.045  0.00  0.00    +0.037 C 
ATOM     15  C   UNL     1      35.312 -19.831 -20.619  0.00  0.00    +0.046 C 
ATOM     16  C   UNL     1      36.081 -17.865 -21.790  0.00  0.00    +0.016 C 
ATOM     17  C   UNL     1      33.224 -21.649 -20.022  0.00  0.00    +0.090 C 
ATOM     18  C   UNL     1      36.360 -19.070 -21.144  0.00  0.00    +0.016 C 
ATOM     19  C   UNL     1      34.633 -21.935 -19.541  0.00  0.00    +0.226 C 
ATOM     20  H   UNL     1      36.543 -21.261 -19.787  0.00  0.00    +0.155 HD
ENDBRANCH   2  11
BRANCH   8  21
ATOM     21  C   UNL     1      33.348 -11.337 -23.899  0.00  0.00    +0.057 C 
ATOM     22  C   UNL     1      34.189 -10.240 -24.062  0.00  0.00    +0.045 C 
ATOM     23  C   UNL     1      32.264 -11.270 -23.027  0.00  0.00    +0.008 C 
ATOM     24  C   UNL     1      33.945  -9.066 -23.348  0.00  0.00    +0.173 C 
ATOM     25  C   UNL     1      32.019 -10.097 -22.314  0.00  0.00    +0.040 C 
ATOM     26  C   UNL     1      32.860  -8.995 -22.474  0.00  0.00    +0.172 C 
BRANCH  24  27
ATOM     27  O   UNL     1      34.772  -7.997 -23.513  0.00  0.00    -0.468 OA
ATOM     28  C   UNL     1      34.393  -7.030 -24.490  0.00  0.00    +0.253 C 
ENDBRANCH  24  27
BRANCH  26  29
ATOM     29  O   UNL     1      32.610  -7.854 -21.773  0.00  0.00    -0.468 OA
ATOM     30  C   UNL     1      32.545  -7.968 -20.353  0.00  0.00    +0.253 C 
ENDBRANCH  26  29
ENDBRANCH   8  21
TORSDOF 4
ENDMDL
MODEL 6
REMARK VINA RESULT:     -10.8      0.603      1.642
REMARK  Name = 5663
REMARK  4 active torsions:
REMARK  status: ('A' for Active; 'I' for Inactive)
REMARK    1  A    between atoms: N_2  and  C_11
REMARK    2  A    between atoms: C_8  and  C_21
REMARK    3  A    between atoms: C_24  and  O_27
REMARK    4  A    between atoms: C_26  and  O_29
REMARK                            x       y       z     vdW  Elec       q    Type
REMARK                         _______ _______ _______ _____ _____    ______ ____
ROOT
ATOM      1  O   UNL     1      35.175 -19.311 -23.779  0.00  0.00    -0.270 OA
ATOM      2  N   UNL     1      33.417 -14.815 -22.222  0.00  0.00    -0.304 N 
ATOM      3  N   UNL     1      34.429 -17.516 -22.487  0.00  0.00    -0.273 N 
ATOM      4  C   UNL     1      33.035 -15.856 -21.262  0.00  0.00    +0.112 C 
ATOM      5  C   UNL     1      34.294 -15.189 -23.335  0.00  0.00    +0.112 C 
ATOM      6  C   UNL     1      34.114 -16.935 -21.178  0.00  0.00    +0.115 C 
ATOM      7  C   UNL     1      34.158 -16.677 -23.651  0.00  0.00    +0.115 C 
ATOM      8  C   UNL     1      34.909 -18.815 -22.685  0.00  0.00    +0.249 C 
ENDROOT
BRANCH   2  11
ATOM      9  O   UNL     1      31.280  -7.452 -22.502  0.00  0.00    -0.275 OA
ATOM     10  N   UNL     1      31.485  -9.599 -21.711  0.00  0.00    -0.284 N 
ATOM     11  C   UNL     1      32.947 -13.510 -22.090  0.00  0.00    +0.048 C 
ATOM     12  C   UNL     1      32.820 -11.236 -22.915  0.00  0.00    -0.007 C 
ATOM     13  C   UNL     1      33.312 -12.542 -23.026  0.00  0.00    +0.011 C 
ATOM     14  C   UNL     1      33.272 -10.154 -23.851  0.00  0.00    +0.037 C 
ATOM     15  C   UNL     1      31.970 -10.912 -21.850  0.00  0.00    +0.046 C 
ATOM     16  C   UNL     1      32.106 -13.178 -21.029  0.00  0.00    +0.016 C 
ATOM     17  C   UNL     1      32.202  -9.082 -23.999  0.00  0.00    +0.090 C 
ATOM     18  C   UNL     1      31.620 -11.876 -20.901  0.00  0.00    +0.016 C 
ATOM     19  C   UNL     1      31.646  -8.615 -22.668  0.00  0.00    +0.226 C 
ATOM     20  H   UNL     1      31.002  -9.367 -20.885  0.00  0.00    +0.155 HD
ENDBRANCH   2  11
BRANCH   8  21
ATOM     21  C   UNL     1      35.119 -19.667 -21.505  0.00  0.00    +0.057 C 
ATOM     22  C   UNL     1      34.025 -20.232 -20.855  0.00  0.00    +0.045 C 
ATOM     23  C   UNL     1      36.412 -19.903 -21.043  0.00  0.00    +0.008 C 
ATOM     24  C   UNL     1      34.225 -21.039 -19.734  0.00  0.00    +0.173 C 
ATOM     25  C   UNL     1      36.612 -20.710 -19.924  0.00  0.00    +0.040 C 
ATOM     26  C   UNL     1      35.519 -21.278 -19.268  0.00  0.00    +0.172 C 
BRANCH  24  27
ATOM     27  O   UNL     1      33.150 -21.588 -19.103  0.00  0.00    -0.468 OA
ATOM     28  C   UNL     1      33.316 -22.897 -18.561  0.00  0.00    +0.253 C 
ENDBRANCH  24  27
BRANCH  26  29
ATOM     29  O   UNL     1      35.726 -22.064 -18.176  0.00  0.00    -0.468 OA
ATOM     30  C   UNL     1      36.833 -21.734 -17.340  0.00  0.00    +0.253 C 
ENDBRANCH  26  29
ENDBRANCH   8  21
TORSDOF 4
ENDMDL
MODEL 7
REMARK VINA RESULT:     -10.6      3.332      5.255
REMARK  Name = 5663
REMARK  4 active torsions:
REMARK  status: ('A' for Active; 'I' for Inactive)
REMARK    1  A    between atoms: N_2  and  C_11
REMARK    2  A    between atoms: C_8  and  C_21
REMARK    3  A    between atoms: C_24  and  O_27
REMARK    4  A    between atoms: C_26  and  O_29
REMARK                            x       y       z     vdW  Elec       q    Type
REMARK                         _______ _______ _______ _____ _____    ______ ____
ROOT
ATOM      1  O   UNL     1      37.120 -22.111 -18.299  0.00  0.00    -0.270 OA
ATOM      2  N   UNL     1      34.957 -19.034 -21.700  0.00  0.00    -0.304 N 
ATOM      3  N   UNL     1      35.591 -20.881 -19.562  0.00  0.00    -0.273 N 
ATOM      4  C   UNL     1      34.016 -20.092 -21.321  0.00  0.00    +0.112 C 
ATOM      5  C   UNL     1      36.237 -18.961 -20.992  0.00  0.00    +0.112 C 
ATOM      6  C   UNL     1      34.210 -20.488 -19.858  0.00  0.00    +0.115 C 
ATOM      7  C   UNL     1      36.623 -20.329 -20.435  0.00  0.00    +0.115 C 
ATOM      8  C   UNL     1      35.964 -21.776 -18.554  0.00  0.00    +0.249 C 
ENDROOT
BRANCH   2  11
ATOM      9  O   UNL     1      33.152 -13.308 -26.478  0.00  0.00    -0.275 OA
ATOM     10  N   UNL     1      33.780 -15.405 -25.781  0.00  0.00    -0.284 N 
ATOM     11  C   UNL     1      34.649 -18.131 -22.716  0.00  0.00    +0.048 C 
ATOM     12  C   UNL     1      33.909 -15.932 -23.411  0.00  0.00    -0.007 C 
ATOM     13  C   UNL     1      34.190 -16.853 -22.395  0.00  0.00    +0.011 C 
ATOM     14  C   UNL     1      33.324 -14.585 -23.097  0.00  0.00    +0.037 C 
ATOM     15  C   UNL     1      34.080 -16.311 -24.748  0.00  0.00    +0.046 C 
ATOM     16  C   UNL     1      34.812 -18.503 -24.050  0.00  0.00    +0.016 C 
ATOM     17  C   UNL     1      33.708 -13.566 -24.160  0.00  0.00    +0.090 C 
ATOM     18  C   UNL     1      34.521 -17.597 -25.070  0.00  0.00    +0.016 C 
ATOM     19  C   UNL     1      33.484 -14.071 -25.572  0.00  0.00    +0.226 C 
ATOM     20  H   UNL     1      33.781 -15.740 -26.707  0.00  0.00    +0.155 HD
ENDBRANCH   2  11
BRANCH   8  21
ATOM     21  C   UNL     1      34.906 -22.369 -17.722  0.00  0.00    +0.057 C 
ATOM     22  C   UNL     1      35.169 -22.694 -16.394  0.00  0.00    +0.045 C 
ATOM     23  C   UNL     1      33.647 -22.605 -18.269  0.00  0.00    +0.008 C 
ATOM     24  C   UNL     1      34.165 -23.259 -15.606  0.00  0.00    +0.173 C 
ATOM     25  C   UNL     1      32.644 -23.169 -17.482  0.00  0.00    +0.040 C 
ATOM     26  C   UNL     1      32.902 -23.496 -16.151  0.00  0.00    +0.172 C 
BRANCH  24  27
ATOM     27  O   UNL     1      34.430 -23.574 -14.308  0.00  0.00    -0.468 OA
ATOM     28  C   UNL     1      35.528 -24.452 -14.066  0.00  0.00    +0.253 C 
ENDBRANCH  24  27
BRANCH  26  29
ATOM     29  O   UNL     1      31.915 -24.046 -15.391  0.00  0.00    -0.468 OA
ATOM     30  C   UNL     1      30.570 -23.748 -15.762  0.00  0.00    +0.253 C 
ENDBRANCH  26  29
ENDBRANCH   8  21
TORSDOF 4
ENDMDL
MODEL 8
REMARK VINA RESULT:     -10.4      2.312      9.975
REMARK  Name = 5663
REMARK  4 active torsions:
REMARK  status: ('A' for Active; 'I' for Inactive)
REMARK    1  A    between atoms: N_2  and  C_11
REMARK    2  A    between atoms: C_8  and  C_21
REMARK    3  A    between atoms: C_24  and  O_27
REMARK    4  A    between atoms: C_26  and  O_29
REMARK                            x       y       z     vdW  Elec       q    Type
REMARK                         _______ _______ _______ _____ _____    ______ ____
ROOT
ATOM      1  O   UNL     1      33.817 -14.978 -26.532  0.00  0.00    -0.270 OA
ATOM      2  N   UNL     1      34.667 -17.811 -22.412  0.00  0.00    -0.304 N 
ATOM      3  N   UNL     1      34.110 -15.723 -24.339  0.00  0.00    -0.273 N 
ATOM      4  C   UNL     1      35.067 -16.425 -22.151  0.00  0.00    +0.112 C 
ATOM      5  C   UNL     1      34.012 -18.114 -23.687  0.00  0.00    +0.112 C 
ATOM      6  C   UNL     1      34.158 -15.451 -22.899  0.00  0.00    +0.115 C 
ATOM      7  C   UNL     1      34.407 -17.092 -24.751  0.00  0.00    +0.115 C 
ATOM      8  C   UNL     1      33.859 -14.760 -25.322  0.00  0.00    +0.249 C 
ENDROOT
BRANCH   2  11
ATOM      9  O   UNL     1      34.946 -23.569 -17.349  0.00  0.00    -0.275 OA
ATOM     10  N   UNL     1      35.681 -21.880 -18.721  0.00  0.00    -0.284 N 
ATOM     11  C   UNL     1      34.917 -18.818 -21.481  0.00  0.00    +0.048 C 
ATOM     12  C   UNL     1      34.097 -20.539 -19.987  0.00  0.00    -0.007 C 
ATOM     13  C   UNL     1      33.851 -19.507 -20.900  0.00  0.00    +0.011 C 
ATOM     14  C   UNL     1      32.970 -21.231 -19.276  0.00  0.00    +0.037 C 
ATOM     15  C   UNL     1      35.419 -20.861 -19.654  0.00  0.00    +0.046 C 
ATOM     16  C   UNL     1      36.229 -19.139 -21.140  0.00  0.00    +0.016 C 
ATOM     17  C   UNL     1      33.360 -22.652 -18.895  0.00  0.00    +0.090 C 
ATOM     18  C   UNL     1      36.485 -20.157 -20.221  0.00  0.00    +0.016 C 
ATOM     19  C   UNL     1      34.715 -22.731 -18.219  0.00  0.00    +0.226 C 
ATOM     20  H   UNL     1      36.607 -21.993 -18.406  0.00  0.00    +0.155 HD
ENDBRANCH   2  11
BRANCH   8  21
ATOM     21  C   UNL     1      33.621 -13.373 -24.893  0.00  0.00    +0.057 C 
ATOM     22  C   UNL     1      32.912 -13.122 -23.722  0.00  0.00    +0.045 C 
ATOM     23  C   UNL     1      34.104 -12.318 -25.664  0.00  0.00    +0.008 C 
ATOM     24  C   UNL     1      32.685 -11.806 -23.317  0.00  0.00    +0.173 C 
ATOM     25  C   UNL     1      33.878 -11.003 -25.259  0.00  0.00    +0.040 C 
ATOM     26  C   UNL     1      33.168 -10.746 -24.086  0.00  0.00    +0.172 C 
BRANCH  24  27
ATOM     27  O   UNL     1      31.991 -11.568 -22.169  0.00  0.00    -0.468 OA
ATOM     28  C   UNL     1      32.013 -12.591 -21.175  0.00  0.00    +0.253 C 
ENDBRANCH  24  27
BRANCH  26  29
ATOM     29  O   UNL     1      32.953  -9.458 -23.700  0.00  0.00    -0.468 OA
ATOM     30  C   UNL     1      34.088  -8.595 -23.665  0.00  0.00    +0.253 C 
ENDBRANCH  26  29
ENDBRANCH   8  21
TORSDOF 4
ENDMDL
MODEL 9
REMARK VINA RESULT:     -10.2      4.590      7.200
REMARK  Name = 5663
REMARK  4 active torsions:
REMARK  status: ('A' for Active; 'I' for Inactive)
REMARK    1  A    between atoms: N_2  and  C_11
REMARK    2  A    between atoms: C_8  and  C_21
REMARK    3  A    between atoms: C_24  and  O_27
REMARK    4  A    between atoms: C_26  and  O_29
REMARK                            x       y       z     vdW  Elec       q    Type
REMARK                         _______ _______ _______ _____ _____    ______ ____
ROOT
ATOM      1  O   UNL     1      31.948 -13.426 -20.936  0.00  0.00    -0.270 OA
ATOM      2  N   UNL     1      32.210  -8.886 -23.183  0.00  0.00    -0.304 N 
ATOM      3  N   UNL     1      32.369 -11.676 -22.423  0.00  0.00    -0.273 N 
ATOM      4  C   UNL     1      33.342  -9.715 -23.608  0.00  0.00    +0.112 C 
ATOM      5  C   UNL     1      31.184  -9.499 -22.336  0.00  0.00    +0.112 C 
ATOM      6  C   UNL     1      32.936 -11.186 -23.683  0.00  0.00    +0.115 C 
ATOM      7  C   UNL     1      31.765 -10.673 -21.551  0.00  0.00    +0.115 C 
ATOM      8  C   UNL     1      32.421 -13.006 -21.992  0.00  0.00    +0.249 C 
ENDROOT
BRANCH   2  11
ATOM      9  O   UNL     1      32.283  -1.819 -26.168  0.00  0.00    -0.275 OA
ATOM     10  N   UNL     1      31.797  -3.530 -24.715  0.00  0.00    -0.284 N 
ATOM     11  C   UNL     1      32.120  -7.547 -23.559  0.00  0.00    +0.048 C 
ATOM     12  C   UNL     1      32.719  -5.751 -25.070  0.00  0.00    -0.007 C 
ATOM     13  C   UNL     1      32.830  -7.088 -24.669  0.00  0.00    +0.011 C 
ATOM     14  C   UNL     1      33.545  -5.209 -26.200  0.00  0.00    +0.037 C 
ATOM     15  C   UNL     1      31.900  -4.881 -24.339  0.00  0.00    +0.046 C 
ATOM     16  C   UNL     1      31.312  -6.674 -22.833  0.00  0.00    +0.016 C 
ATOM     17  C   UNL     1      32.841  -4.041 -26.875  0.00  0.00    +0.090 C 
ATOM     18  C   UNL     1      31.205  -5.337 -23.216  0.00  0.00    +0.016 C 
ATOM     19  C   UNL     1      32.319  -3.016 -25.887  0.00  0.00    +0.226 C 
ATOM     20  H   UNL     1      31.324  -2.915 -24.109  0.00  0.00    +0.155 HD
ENDBRANCH   2  11
BRANCH   8  21
ATOM     21  C   UNL     1      33.086 -13.993 -22.856  0.00  0.00    +0.057 C 
ATOM     22  C   UNL     1      32.790 -14.034 -24.216  0.00  0.00    +0.045 C 
ATOM     23  C   UNL     1      34.007 -14.882 -22.308  0.00  0.00    +0.008 C 
ATOM     24  C   UNL     1      33.420 -14.972 -25.035  0.00  0.00    +0.173 C 
ATOM     25  C   UNL     1      34.637 -15.819 -23.127  0.00  0.00    +0.040 C 
ATOM     26  C   UNL     1      34.344 -15.865 -24.490  0.00  0.00    +0.172 C 
BRANCH  24  27
ATOM     27  O   UNL     1      33.125 -15.006 -26.364  0.00  0.00    -0.468 OA
ATOM     28  C   UNL     1      33.068 -13.755 -27.047  0.00  0.00    +0.253 C 
ENDBRANCH  24  27
BRANCH  26  29
ATOM     29  O   UNL     1      34.966 -16.784 -25.280  0.00  0.00    -0.468 OA
ATOM     30  C   UNL     1      34.569 -18.145 -25.126  0.00  0.00    +0.253 C 
ENDBRANCH  26  29
ENDBRANCH   8  21
TORSDOF 4
ENDMDL
