MODEL 1
REMARK VINA RESULT:      -8.2      0.000      0.000
REMARK  Name = 54841
REMARK  6 active torsions:
REMARK  status: ('A' for Active; 'I' for Inactive)
REMARK    1  A    between atoms: C_1  and  C_2
REMARK    2  A    between atoms: C_1  and  O_8
REMARK    3  A    between atoms: C_1  and  C_16
REMARK    4  A    between atoms: O_8  and  C_9
REMARK    5  A    between atoms: C_16  and  C_17
REMARK    6  A    between atoms: C_17  and  N_18
REMARK                            x       y       z     vdW  Elec       q    Type
REMARK                         _______ _______ _______ _____ _____    ______ ____
ROOT
ATOM      1  C   UNL     1      34.548 -18.280 -21.945  0.00  0.00    +0.186 C 
ENDROOT
BRANCH   1   2
ATOM      2  C   UNL     1      34.053 -16.919 -21.514  0.00  0.00    +0.017 C 
ATOM      3  C   UNL     1      32.753 -16.786 -21.054  0.00  0.00    -0.001 C 
ATOM      4  C   UNL     1      34.909 -15.832 -21.587  0.00  0.00    -0.001 C 
ATOM      5  C   UNL     1      32.296 -15.529 -20.656  0.00  0.00    -0.000 C 
ATOM      6  C   UNL     1      34.451 -14.576 -21.189  0.00  0.00    -0.000 C 
ATOM      7  C   UNL     1      33.145 -14.425 -20.724  0.00  0.00    -0.000 C 
ENDBRANCH   1   2
BRANCH   1   8
ATOM      8  O   UNL     1      35.269 -18.854 -20.852  0.00  0.00    -0.475 OA
BRANCH   8   9
ATOM      9  C   UNL     1      34.760 -20.008 -20.324  0.00  0.00    +0.135 C 
ATOM     10  C   UNL     1      35.607 -20.985 -19.809  0.00  0.00    +0.012 C 
ATOM     11  C   UNL     1      33.380 -20.195 -20.308  0.00  0.00    +0.037 C 
ATOM     12  C   UNL     1      35.071 -22.157 -19.274  0.00  0.00    -0.001 C 
ATOM     13  C   UNL     1      37.089 -20.799 -19.819  0.00  0.00    +0.034 C 
ATOM     14  C   UNL     1      32.843 -21.366 -19.774  0.00  0.00    +0.003 C 
ATOM     15  C   UNL     1      33.690 -22.347 -19.257  0.00  0.00    -0.000 C 
ENDBRANCH   8   9
ENDBRANCH   1   8
BRANCH   1  16
ATOM     16  C   UNL     1      35.458 -18.249 -23.184  0.00  0.00    +0.025 C 
BRANCH  16  17
ATOM     17  C   UNL     1      34.681 -18.102 -24.492  0.00  0.00    -0.078 C 
BRANCH  17  18
ATOM     18  N   UNL     1      35.030 -16.846 -25.147  0.00  0.00    +0.382 N 
ATOM     19  C   UNL     1      33.878 -15.960 -25.218  0.00  0.00    -0.106 C 
ATOM     20  H   UNL     1      35.360 -17.043 -26.093  0.00  0.00    -0.085 HD
ATOM     21  H   UNL     1      35.762 -16.388 -24.605  0.00  0.00    -0.085 HD
ENDBRANCH  17  18
ENDBRANCH  16  17
ENDBRANCH   1  16
TORSDOF 6
ENDMDL
MODEL 2
REMARK VINA RESULT:      -8.1      1.992      6.036
REMARK  Name = 54841
REMARK  6 active torsions:
REMARK  status: ('A' for Active; 'I' for Inactive)
REMARK    1  A    between atoms: C_1  and  C_2
REMARK    2  A    between atoms: C_1  and  O_8
REMARK    3  A    between atoms: C_1  and  C_16
REMARK    4  A    between atoms: O_8  and  C_9
REMARK    5  A    between atoms: C_16  and  C_17
REMARK    6  A    between atoms: C_17  and  N_18
REMARK                            x       y       z     vdW  Elec       q    Type
REMARK                         _______ _______ _______ _____ _____    ______ ____
ROOT
ATOM      1  C   UNL     1      34.110 -16.504 -21.730  0.00  0.00    +0.186 C 
ENDROOT
BRANCH   1   2
ATOM      2  C   UNL     1      34.550 -17.885 -21.305  0.00  0.00    +0.017 C 
ATOM      3  C   UNL     1      33.591 -18.838 -21.002  0.00  0.00    -0.001 C 
ATOM      4  C   UNL     1      35.903 -18.171 -21.225  0.00  0.00    -0.001 C 
ATOM      5  C   UNL     1      33.997 -20.114 -20.609  0.00  0.00    -0.000 C 
ATOM      6  C   UNL     1      36.308 -19.447 -20.832  0.00  0.00    -0.000 C 
ATOM      7  C   UNL     1      35.355 -20.417 -20.524  0.00  0.00    -0.000 C 
ENDBRANCH   1   2
BRANCH   1   8
ATOM      8  O   UNL     1      34.935 -16.095 -22.823  0.00  0.00    -0.475 OA
BRANCH   8   9
ATOM      9  C   UNL     1      34.291 -15.613 -23.928  0.00  0.00    +0.135 C 
ATOM     10  C   UNL     1      34.057 -16.434 -25.027  0.00  0.00    +0.012 C 
ATOM     11  C   UNL     1      33.870 -14.285 -23.941  0.00  0.00    +0.037 C 
ATOM     12  C   UNL     1      33.398 -15.926 -26.147  0.00  0.00    -0.001 C 
ATOM     13  C   UNL     1      34.503 -17.860 -25.028  0.00  0.00    +0.034 C 
ATOM     14  C   UNL     1      33.210 -13.776 -25.059  0.00  0.00    +0.003 C 
ATOM     15  C   UNL     1      32.975 -14.597 -26.162  0.00  0.00    -0.000 C 
ENDBRANCH   8   9
ENDBRANCH   1   8
BRANCH   1  16
ATOM     16  C   UNL     1      34.198 -15.450 -20.613  0.00  0.00    +0.025 C 
BRANCH  16  17
ATOM     17  C   UNL     1      32.833 -14.891 -20.211  0.00  0.00    -0.078 C 
BRANCH  17  18
ATOM     18  N   UNL     1      32.390 -13.898 -21.183  0.00  0.00    +0.382 N 
ATOM     19  C   UNL     1      32.039 -12.649 -20.524  0.00  0.00    -0.106 C 
ATOM     20  H   UNL     1      31.573 -14.256 -21.677  0.00  0.00    -0.085 HD
ATOM     21  H   UNL     1      33.151 -13.719 -21.837  0.00  0.00    -0.085 HD
ENDBRANCH  17  18
ENDBRANCH  16  17
ENDBRANCH   1  16
TORSDOF 6
ENDMDL
MODEL 3
REMARK VINA RESULT:      -8.0      1.512      2.005
REMARK  Name = 54841
REMARK  6 active torsions:
REMARK  status: ('A' for Active; 'I' for Inactive)
REMARK    1  A    between atoms: C_1  and  C_2
REMARK    2  A    between atoms: C_1  and  O_8
REMARK    3  A    between atoms: C_1  and  C_16
REMARK    4  A    between atoms: O_8  and  C_9
REMARK    5  A    between atoms: C_16  and  C_17
REMARK    6  A    between atoms: C_17  and  N_18
REMARK                            x       y       z     vdW  Elec       q    Type
REMARK                         _______ _______ _______ _____ _____    ______ ____
ROOT
ATOM      1  C   UNL     1      34.208 -16.752 -22.631  0.00  0.00    +0.186 C 
ENDROOT
BRANCH   1   2
ATOM      2  C   UNL     1      33.515 -15.475 -22.218  0.00  0.00    +0.017 C 
ATOM      3  C   UNL     1      33.307 -15.223 -20.871  0.00  0.00    -0.001 C 
ATOM      4  C   UNL     1      33.102 -14.582 -23.192  0.00  0.00    -0.001 C 
ATOM      5  C   UNL     1      32.667 -14.043 -20.490  0.00  0.00    -0.000 C 
ATOM      6  C   UNL     1      32.462 -13.403 -22.810  0.00  0.00    -0.000 C 
ATOM      7  C   UNL     1      32.244 -13.134 -21.459  0.00  0.00    -0.000 C 
ENDBRANCH   1   2
BRANCH   1   8
ATOM      8  O   UNL     1      34.921 -17.254 -21.498  0.00  0.00    -0.475 OA
BRANCH   8   9
ATOM      9  C   UNL     1      34.578 -18.505 -21.066  0.00  0.00    +0.135 C 
ATOM     10  C   UNL     1      35.560 -19.455 -20.795  0.00  0.00    +0.012 C 
ATOM     11  C   UNL     1      33.231 -18.819 -20.901  0.00  0.00    +0.037 C 
ATOM     12  C   UNL     1      35.192 -20.727 -20.354  0.00  0.00    -0.001 C 
ATOM     13  C   UNL     1      37.007 -19.132 -20.967  0.00  0.00    +0.034 C 
ATOM     14  C   UNL     1      32.863 -20.090 -20.461  0.00  0.00    +0.003 C 
ATOM     15  C   UNL     1      33.844 -21.044 -20.188  0.00  0.00    -0.000 C 
ENDBRANCH   8   9
ENDBRANCH   1   8
BRANCH   1  16
ATOM     16  C   UNL     1      35.188 -16.578 -23.803  0.00  0.00    +0.025 C 
BRANCH  16  17
ATOM     17  C   UNL     1      34.750 -17.325 -25.063  0.00  0.00    -0.078 C 
BRANCH  17  18
ATOM     18  N   UNL     1      34.008 -18.528 -24.703  0.00  0.00    +0.382 N 
ATOM     19  C   UNL     1      34.901 -19.672 -24.587  0.00  0.00    -0.106 C 
ATOM     20  H   UNL     1      33.311 -18.719 -25.423  0.00  0.00    -0.085 HD
ATOM     21  H   UNL     1      33.556 -18.375 -23.802  0.00  0.00    -0.085 HD
ENDBRANCH  17  18
ENDBRANCH  16  17
ENDBRANCH   1  16
TORSDOF 6
ENDMDL
MODEL 4
REMARK VINA RESULT:      -7.9      6.017      8.960
REMARK  Name = 54841
REMARK  6 active torsions:
REMARK  status: ('A' for Active; 'I' for Inactive)
REMARK    1  A    between atoms: C_1  and  C_2
REMARK    2  A    between atoms: C_1  and  O_8
REMARK    3  A    between atoms: C_1  and  C_16
REMARK    4  A    between atoms: O_8  and  C_9
REMARK    5  A    between atoms: C_16  and  C_17
REMARK    6  A    between atoms: C_17  and  N_18
REMARK                            x       y       z     vdW  Elec       q    Type
REMARK                         _______ _______ _______ _____ _____    ______ ____
ROOT
ATOM      1  C   UNL     1      34.718 -23.221 -15.818  0.00  0.00    +0.186 C 
ENDROOT
BRANCH   1   2
ATOM      2  C   UNL     1      35.017 -22.617 -17.169  0.00  0.00    +0.017 C 
ATOM      3  C   UNL     1      34.036 -22.630 -18.148  0.00  0.00    -0.001 C 
ATOM      4  C   UNL     1      36.264 -22.062 -17.404  0.00  0.00    -0.001 C 
ATOM      5  C   UNL     1      34.312 -22.071 -19.397  0.00  0.00    -0.000 C 
ATOM      6  C   UNL     1      36.539 -21.505 -18.653  0.00  0.00    -0.000 C 
ATOM      7  C   UNL     1      35.563 -21.509 -19.649  0.00  0.00    -0.000 C 
ENDBRANCH   1   2
BRANCH   1   8
ATOM      8  O   UNL     1      35.490 -24.417 -15.689  0.00  0.00    -0.475 OA
BRANCH   8   9
ATOM      9  C   UNL     1      36.332 -24.487 -14.614  0.00  0.00    +0.135 C 
ATOM     10  C   UNL     1      37.034 -25.658 -14.338  0.00  0.00    +0.012 C 
ATOM     11  C   UNL     1      36.480 -23.370 -13.795  0.00  0.00    +0.037 C 
ATOM     12  C   UNL     1      37.890 -25.711 -13.237  0.00  0.00    -0.001 C 
ATOM     13  C   UNL     1      36.886 -26.863 -15.207  0.00  0.00    +0.034 C 
ATOM     14  C   UNL     1      37.335 -23.423 -12.694  0.00  0.00    +0.003 C 
ATOM     15  C   UNL     1      38.039 -24.594 -12.416  0.00  0.00    -0.000 C 
ENDBRANCH   8   9
ENDBRANCH   1   8
BRANCH   1  16
ATOM     16  C   UNL     1      33.233 -23.557 -15.599  0.00  0.00    +0.025 C 
BRANCH  16  17
ATOM     17  C   UNL     1      32.864 -23.698 -14.122  0.00  0.00    -0.078 C 
BRANCH  17  18
ATOM     18  N   UNL     1      32.395 -25.052 -13.848  0.00  0.00    +0.382 N 
ATOM     19  C   UNL     1      30.943 -25.120 -13.911  0.00  0.00    -0.106 C 
ATOM     20  H   UNL     1      32.703 -25.330 -12.916  0.00  0.00    -0.085 HD
ATOM     21  H   UNL     1      32.782 -25.680 -14.552  0.00  0.00    -0.085 HD
ENDBRANCH  17  18
ENDBRANCH  16  17
ENDBRANCH   1  16
TORSDOF 6
ENDMDL
MODEL 5
REMARK VINA RESULT:      -7.9      1.877      3.797
REMARK  Name = 54841
REMARK  6 active torsions:
REMARK  status: ('A' for Active; 'I' for Inactive)
REMARK    1  A    between atoms: C_1  and  C_2
REMARK    2  A    between atoms: C_1  and  O_8
REMARK    3  A    between atoms: C_1  and  C_16
REMARK    4  A    between atoms: O_8  and  C_9
REMARK    5  A    between atoms: C_16  and  C_17
REMARK    6  A    between atoms: C_17  and  N_18
REMARK                            x       y       z     vdW  Elec       q    Type
REMARK                         _______ _______ _______ _____ _____    ______ ____
ROOT
ATOM      1  C   UNL     1      34.774 -16.645 -22.141  0.00  0.00    +0.186 C 
ENDROOT
BRANCH   1   2
ATOM      2  C   UNL     1      34.333 -16.113 -23.484  0.00  0.00    +0.017 C 
ATOM      3  C   UNL     1      34.229 -16.984 -24.557  0.00  0.00    -0.001 C 
ATOM      4  C   UNL     1      34.042 -14.765 -23.617  0.00  0.00    -0.001 C 
ATOM      5  C   UNL     1      33.822 -16.492 -25.798  0.00  0.00    -0.000 C 
ATOM      6  C   UNL     1      33.635 -14.274 -24.858  0.00  0.00    -0.000 C 
ATOM      7  C   UNL     1      33.526 -15.137 -25.948  0.00  0.00    -0.000 C 
ENDBRANCH   1   2
BRANCH   1   8
ATOM      8  O   UNL     1      34.160 -17.921 -21.949  0.00  0.00    -0.475 OA
BRANCH   8   9
ATOM      9  C   UNL     1      34.893 -18.857 -21.274  0.00  0.00    +0.135 C 
ATOM     10  C   UNL     1      34.266 -19.917 -20.625  0.00  0.00    +0.012 C 
ATOM     11  C   UNL     1      36.280 -18.736 -21.243  0.00  0.00    +0.037 C 
ATOM     12  C   UNL     1      35.030 -20.863 -19.941  0.00  0.00    -0.001 C 
ATOM     13  C   UNL     1      32.779 -20.060 -20.650  0.00  0.00    +0.034 C 
ATOM     14  C   UNL     1      37.045 -19.681 -20.559  0.00  0.00    +0.003 C 
ATOM     15  C   UNL     1      36.419 -20.744 -19.908  0.00  0.00    -0.000 C 
ENDBRANCH   8   9
ENDBRANCH   1   8
BRANCH   1  16
ATOM     16  C   UNL     1      34.411 -15.731 -20.958  0.00  0.00    +0.025 C 
BRANCH  16  17
ATOM     17  C   UNL     1      32.906 -15.662 -20.697  0.00  0.00    -0.078 C 
BRANCH  17  18
ATOM     18  N   UNL     1      32.561 -14.389 -20.075  0.00  0.00    +0.382 N 
ATOM     19  C   UNL     1      32.257 -13.385 -21.083  0.00  0.00    -0.106 C 
ATOM     20  H   UNL     1      33.348 -14.069 -19.511  0.00  0.00    -0.085 HD
ATOM     21  H   UNL     1      31.737 -14.524 -19.490  0.00  0.00    -0.085 HD
ENDBRANCH  17  18
ENDBRANCH  16  17
ENDBRANCH   1  16
TORSDOF 6
ENDMDL
MODEL 6
REMARK VINA RESULT:      -7.9      4.176      7.208
REMARK  Name = 54841
REMARK  6 active torsions:
REMARK  status: ('A' for Active; 'I' for Inactive)
REMARK    1  A    between atoms: C_1  and  C_2
REMARK    2  A    between atoms: C_1  and  O_8
REMARK    3  A    between atoms: C_1  and  C_16
REMARK    4  A    between atoms: O_8  and  C_9
REMARK    5  A    between atoms: C_16  and  C_17
REMARK    6  A    between atoms: C_17  and  N_18
REMARK                            x       y       z     vdW  Elec       q    Type
REMARK                         _______ _______ _______ _____ _____    ______ ____
ROOT
ATOM      1  C   UNL     1      33.460 -13.458 -23.916  0.00  0.00    +0.186 C 
ENDROOT
BRANCH   1   2
ATOM      2  C   UNL     1      34.008 -14.865 -23.957  0.00  0.00    +0.017 C 
ATOM      3  C   UNL     1      33.772 -15.652 -25.074  0.00  0.00    -0.001 C 
ATOM      4  C   UNL     1      34.735 -15.342 -22.879  0.00  0.00    -0.001 C 
ATOM      5  C   UNL     1      34.279 -16.951 -25.112  0.00  0.00    -0.000 C 
ATOM      6  C   UNL     1      35.241 -16.641 -22.918  0.00  0.00    -0.000 C 
ATOM      7  C   UNL     1      35.013 -17.446 -24.034  0.00  0.00    -0.000 C 
ENDBRANCH   1   2
BRANCH   1   8
ATOM      8  O   UNL     1      32.192 -13.498 -23.257  0.00  0.00    -0.475 OA
BRANCH   8   9
ATOM      9  C   UNL     1      32.007 -12.611 -22.234  0.00  0.00    +0.135 C 
ATOM     10  C   UNL     1      32.128 -13.021 -20.909  0.00  0.00    +0.012 C 
ATOM     11  C   UNL     1      31.694 -11.287 -22.534  0.00  0.00    +0.037 C 
ATOM     12  C   UNL     1      31.936 -12.102 -19.877  0.00  0.00    -0.001 C 
ATOM     13  C   UNL     1      32.464 -14.437 -20.572  0.00  0.00    +0.034 C 
ATOM     14  C   UNL     1      31.502 -10.368 -21.503  0.00  0.00    +0.003 C 
ATOM     15  C   UNL     1      31.623 -10.776 -20.174  0.00  0.00    -0.000 C 
ENDBRANCH   8   9
ENDBRANCH   1   8
BRANCH   1  16
ATOM     16  C   UNL     1      33.285 -12.816 -25.303  0.00  0.00    +0.025 C 
BRANCH  16  17
ATOM     17  C   UNL     1      34.135 -11.560 -25.490  0.00  0.00    -0.078 C 
BRANCH  17  18
ATOM     18  N   UNL     1      34.632 -11.091 -24.200  0.00  0.00    +0.382 N 
ATOM     19  C   UNL     1      34.778  -9.644 -24.197  0.00  0.00    -0.106 C 
ATOM     20  H   UNL     1      35.539 -11.520 -24.017  0.00  0.00    -0.085 HD
ATOM     21  H   UNL     1      33.962 -11.354 -23.478  0.00  0.00    -0.085 HD
ENDBRANCH  17  18
ENDBRANCH  16  17
ENDBRANCH   1  16
TORSDOF 6
ENDMDL
MODEL 7
REMARK VINA RESULT:      -7.9      6.202      9.213
REMARK  Name = 54841
REMARK  6 active torsions:
REMARK  status: ('A' for Active; 'I' for Inactive)
REMARK    1  A    between atoms: C_1  and  C_2
REMARK    2  A    between atoms: C_1  and  O_8
REMARK    3  A    between atoms: C_1  and  C_16
REMARK    4  A    between atoms: O_8  and  C_9
REMARK    5  A    between atoms: C_16  and  C_17
REMARK    6  A    between atoms: C_17  and  N_18
REMARK                            x       y       z     vdW  Elec       q    Type
REMARK                         _______ _______ _______ _____ _____    ______ ____
ROOT
ATOM      1  C   UNL     1      32.648  -9.560 -22.361  0.00  0.00    +0.186 C 
ENDROOT
BRANCH   1   2
ATOM      2  C   UNL     1      32.992  -8.372 -23.228  0.00  0.00    +0.017 C 
ATOM      3  C   UNL     1      31.977  -7.534 -23.661  0.00  0.00    -0.001 C 
ATOM      4  C   UNL     1      34.314  -8.145 -23.573  0.00  0.00    -0.001 C 
ATOM      5  C   UNL     1      32.295  -6.436 -24.463  0.00  0.00    -0.000 C 
ATOM      6  C   UNL     1      34.630  -7.048 -24.375  0.00  0.00    -0.000 C 
ATOM      7  C   UNL     1      33.621  -6.194 -24.820  0.00  0.00    -0.000 C 
ENDBRANCH   1   2
BRANCH   1   8
ATOM      8  O   UNL     1      32.082 -10.569 -23.199  0.00  0.00    -0.475 OA
BRANCH   8   9
ATOM      9  C   UNL     1      32.531 -11.846 -23.007  0.00  0.00    +0.135 C 
ATOM     10  C   UNL     1      33.494 -12.394 -23.850  0.00  0.00    +0.012 C 
ATOM     11  C   UNL     1      32.012 -12.595 -21.953  0.00  0.00    +0.037 C 
ATOM     12  C   UNL     1      33.941 -13.698 -23.639  0.00  0.00    -0.001 C 
ATOM     13  C   UNL     1      34.060 -11.603 -24.984  0.00  0.00    +0.034 C 
ATOM     14  C   UNL     1      32.459 -13.899 -21.741  0.00  0.00    +0.003 C 
ATOM     15  C   UNL     1      33.424 -14.450 -22.585  0.00  0.00    -0.000 C 
ENDBRANCH   8   9
ENDBRANCH   1   8
BRANCH   1  16
ATOM     16  C   UNL     1      31.661  -9.238 -21.226  0.00  0.00    +0.025 C 
BRANCH  16  17
ATOM     17  C   UNL     1      32.340  -8.630 -19.998  0.00  0.00    -0.078 C 
BRANCH  17  18
ATOM     18  N   UNL     1      32.540  -9.652 -18.976  0.00  0.00    +0.382 N 
ATOM     19  C   UNL     1      31.424 -10.586 -18.953  0.00  0.00    -0.106 C 
ATOM     20  H   UNL     1      32.618  -9.201 -18.064  0.00  0.00    -0.085 HD
ATOM     21  H   UNL     1      33.393 -10.167 -19.192  0.00  0.00    -0.085 HD
ENDBRANCH  17  18
ENDBRANCH  16  17
ENDBRANCH   1  16
TORSDOF 6
ENDMDL
MODEL 8
REMARK VINA RESULT:      -7.8      2.977      4.404
REMARK  Name = 54841
REMARK  6 active torsions:
REMARK  status: ('A' for Active; 'I' for Inactive)
REMARK    1  A    between atoms: C_1  and  C_2
REMARK    2  A    between atoms: C_1  and  O_8
REMARK    3  A    between atoms: C_1  and  C_16
REMARK    4  A    between atoms: O_8  and  C_9
REMARK    5  A    between atoms: C_16  and  C_17
REMARK    6  A    between atoms: C_17  and  N_18
REMARK                            x       y       z     vdW  Elec       q    Type
REMARK                         _______ _______ _______ _____ _____    ______ ____
ROOT
ATOM      1  C   UNL     1      33.309 -14.674 -23.636  0.00  0.00    +0.186 C 
ENDROOT
BRANCH   1   2
ATOM      2  C   UNL     1      32.782 -13.871 -22.471  0.00  0.00    +0.017 C 
ATOM      3  C   UNL     1      32.204 -12.634 -22.707  0.00  0.00    -0.001 C 
ATOM      4  C   UNL     1      32.888 -14.387 -21.189  0.00  0.00    -0.001 C 
ATOM      5  C   UNL     1      31.717 -11.893 -21.629  0.00  0.00    -0.000 C 
ATOM      6  C   UNL     1      32.401 -13.644 -20.113  0.00  0.00    -0.000 C 
ATOM      7  C   UNL     1      31.816 -12.398 -20.333  0.00  0.00    -0.000 C 
ENDBRANCH   1   2
BRANCH   1   8
ATOM      8  O   UNL     1      34.529 -15.297 -23.228  0.00  0.00    -0.475 OA
BRANCH   8   9
ATOM      9  C   UNL     1      34.635 -16.640 -23.456  0.00  0.00    +0.135 C 
ATOM     10  C   UNL     1      34.890 -17.520 -22.407  0.00  0.00    +0.012 C 
ATOM     11  C   UNL     1      34.486 -17.121 -24.755  0.00  0.00    +0.037 C 
ATOM     12  C   UNL     1      34.994 -18.889 -22.658  0.00  0.00    -0.001 C 
ATOM     13  C   UNL     1      35.052 -17.020 -21.009  0.00  0.00    +0.034 C 
ATOM     14  C   UNL     1      34.591 -18.488 -25.006  0.00  0.00    +0.003 C 
ATOM     15  C   UNL     1      34.845 -19.372 -23.957  0.00  0.00    -0.000 C 
ENDBRANCH   8   9
ENDBRANCH   1   8
BRANCH   1  16
ATOM     16  C   UNL     1      33.572 -13.839 -24.901  0.00  0.00    +0.025 C 
BRANCH  16  17
ATOM     17  C   UNL     1      32.772 -14.321 -26.111  0.00  0.00    -0.078 C 
BRANCH  17  18
ATOM     18  N   UNL     1      32.989 -13.429 -27.246  0.00  0.00    +0.382 N 
ATOM     19  C   UNL     1      33.740 -12.251 -26.841  0.00  0.00    -0.106 C 
ATOM     20  H   UNL     1      32.086 -13.139 -27.619  0.00  0.00    -0.085 HD
ATOM     21  H   UNL     1      33.523 -13.929 -27.956  0.00  0.00    -0.085 HD
ENDBRANCH  17  18
ENDBRANCH  16  17
ENDBRANCH   1  16
TORSDOF 6
ENDMDL
MODEL 9
REMARK VINA RESULT:      -7.8      5.460      8.953
REMARK  Name = 54841
REMARK  6 active torsions:
REMARK  status: ('A' for Active; 'I' for Inactive)
REMARK    1  A    between atoms: C_1  and  C_2
REMARK    2  A    between atoms: C_1  and  O_8
REMARK    3  A    between atoms: C_1  and  C_16
REMARK    4  A    between atoms: O_8  and  C_9
REMARK    5  A    between atoms: C_16  and  C_17
REMARK    6  A    between atoms: C_17  and  N_18
REMARK                            x       y       z     vdW  Elec       q    Type
REMARK                         _______ _______ _______ _____ _____    ______ ____
ROOT
ATOM      1  C   UNL     1      34.284 -23.056 -15.328  0.00  0.00    +0.186 C 
ENDROOT
BRANCH   1   2
ATOM      2  C   UNL     1      32.901 -23.577 -15.017  0.00  0.00    +0.017 C 
ATOM      3  C   UNL     1      31.812 -23.058 -15.700  0.00  0.00    -0.001 C 
ATOM      4  C   UNL     1      32.747 -24.563 -14.056  0.00  0.00    -0.001 C 
ATOM      5  C   UNL     1      30.534 -23.540 -15.413  0.00  0.00    -0.000 C 
ATOM      6  C   UNL     1      31.469 -25.043 -13.770  0.00  0.00    -0.000 C 
ATOM      7  C   UNL     1      30.363 -24.532 -14.448  0.00  0.00    -0.000 C 
ENDBRANCH   1   2
BRANCH   1   8
ATOM      8  O   UNL     1      34.700 -23.624 -16.572  0.00  0.00    -0.475 OA
BRANCH   8   9
ATOM      9  C   UNL     1      34.720 -22.784 -17.650  0.00  0.00    +0.135 C 
ATOM     10  C   UNL     1      35.864 -22.054 -17.960  0.00  0.00    +0.012 C 
ATOM     11  C   UNL     1      33.577 -22.667 -18.439  0.00  0.00    +0.037 C 
ATOM     12  C   UNL     1      35.867 -21.201 -19.065  0.00  0.00    -0.001 C 
ATOM     13  C   UNL     1      37.097 -22.169 -17.124  0.00  0.00    +0.034 C 
ATOM     14  C   UNL     1      33.579 -21.815 -19.543  0.00  0.00    +0.003 C 
ATOM     15  C   UNL     1      34.725 -21.082 -19.856  0.00  0.00    -0.000 C 
ENDBRANCH   8   9
ENDBRANCH   1   8
BRANCH   1  16
ATOM     16  C   UNL     1      35.331 -23.386 -14.251  0.00  0.00    +0.025 C 
BRANCH  16  17
ATOM     17  C   UNL     1      36.393 -24.375 -14.734  0.00  0.00    -0.078 C 
BRANCH  17  18
ATOM     18  N   UNL     1      35.942 -25.745 -14.512  0.00  0.00    +0.382 N 
ATOM     19  C   UNL     1      36.755 -26.686 -15.268  0.00  0.00    -0.106 C 
ATOM     20  H   UNL     1      34.970 -25.828 -14.809  0.00  0.00    -0.085 HD
ATOM     21  H   UNL     1      36.031 -25.960 -13.520  0.00  0.00    -0.085 HD
ENDBRANCH  17  18
ENDBRANCH  16  17
ENDBRANCH   1  16
TORSDOF 6
ENDMDL
