MODEL 1
REMARK VINA RESULT:      -5.3      0.000      0.000
REMARK  Name = 68029831
REMARK  1 active torsions:
REMARK  status: ('A' for Active; 'I' for Inactive)
REMARK    1  A    between atoms: C_22  and  N_29
REMARK                            x       y       z     vdW  Elec       q    Type
REMARK                         _______ _______ _______ _____ _____    ______ ____
ROOT
ATOM      1  O   UNL     1      32.201  -5.191 -23.026  0.00  0.00    -0.269 OA
ATOM      2  N   UNL     1      32.817  -8.692 -22.335  0.00  0.00    -0.260 N 
ATOM      3  N   UNL     1      33.464  -6.703 -24.192  0.00  0.00    -0.298 N 
ATOM      4  N   UNL     1      32.450 -10.773 -21.124  0.00  0.00    -0.322 NA
ATOM      5  N   UNL     1      31.371 -10.451 -18.971  0.00  0.00    -0.170 NA
ATOM      6  N   UNL     1      31.983 -12.581 -19.719  0.00  0.00    -0.232 N 
ATOM      7  N   UNL     1      33.030 -13.396 -21.687  0.00  0.00    -0.227 NA
ATOM      8  C   UNL     1      33.445  -9.150 -23.599  0.00  0.00    +0.082 C 
ATOM      9  C   UNL     1      34.464 -10.303 -23.386  0.00  0.00    +0.020 C 
ATOM     10  C   UNL     1      32.325  -9.628 -24.560  0.00  0.00    +0.020 C 
ATOM     11  C   UNL     1      34.223  -7.940 -24.195  0.00  0.00    +0.108 C 
ATOM     12  C   UNL     1      32.848 -10.241 -25.860  0.00  0.00    +0.002 C 
ATOM     13  C   UNL     1      35.005 -10.876 -24.697  0.00  0.00    +0.002 C 
ATOM     14  C   UNL     1      33.872 -11.342 -25.605  0.00  0.00    +0.000 C 
ATOM     15  C   UNL     1      32.466  -7.363 -22.142  0.00  0.00    +0.108 C 
ATOM     16  C   UNL     1      32.370  -9.437 -21.266  0.00  0.00    +0.201 C 
ATOM     17  C   UNL     1      32.680  -6.319 -23.118  0.00  0.00    +0.260 C 
ATOM     18  C   UNL     1      31.802  -8.563 -20.344  0.00  0.00    +0.067 C 
ATOM     19  C   UNL     1      31.869  -7.264 -20.899  0.00  0.00    +0.025 C 
ATOM     20  C   UNL     1      31.300  -9.117 -19.167  0.00  0.00    +0.116 C 
ATOM     21  C   UNL     1      31.932 -11.188 -19.951  0.00  0.00    +0.151 C 
ATOM     22  C   UNL     1      33.424 -15.769 -21.923  0.00  0.00    +0.067 C 
ATOM     23  C   UNL     1      32.478 -13.656 -20.480  0.00  0.00    +0.141 C 
ATOM     24  C   UNL     1      32.849 -15.996 -20.677  0.00  0.00    +0.019 C 
ATOM     25  C   UNL     1      33.489 -14.463 -22.378  0.00  0.00    +0.115 C 
ATOM     26  C   UNL     1      32.365 -14.925 -19.935  0.00  0.00    +0.036 C 
ATOM     27  H   UNL     1      33.508  -6.117 -24.982  0.00  0.00    +0.150 HD
ATOM     28  H   UNL     1      31.598 -12.853 -18.855  0.00  0.00    +0.166 HD
ENDROOT
BRANCH  22  29
ATOM     29  N   UNL     1      33.920 -16.829 -22.692  0.00  0.00    -0.311 N 
ATOM     30  N   UNL     1      35.162 -18.873 -24.253  0.00  0.00    +0.388 N 
ATOM     31  C   UNL     1      34.568 -17.965 -22.031  0.00  0.00    +0.068 C 
ATOM     32  C   UNL     1      34.387 -16.534 -24.053  0.00  0.00    +0.068 C 
ATOM     33  C   UNL     1      34.393 -17.806 -24.905  0.00  0.00    -0.056 C 
ATOM     34  C   UNL     1      34.569 -19.191 -22.948  0.00  0.00    -0.056 C 
ATOM     35  C   UNL     1      35.207 -20.063 -25.101  0.00  0.00    -0.101 C 
ATOM     36  H   UNL     1      36.118 -18.548 -24.109  0.00  0.00    -0.080 HD
ENDBRANCH  22  29
TORSDOF 1
ENDMDL
MODEL 2
REMARK VINA RESULT:      -4.5      3.089      8.716
REMARK  Name = 68029831
REMARK  1 active torsions:
REMARK  status: ('A' for Active; 'I' for Inactive)
REMARK    1  A    between atoms: C_22  and  N_29
REMARK                            x       y       z     vdW  Elec       q    Type
REMARK                         _______ _______ _______ _____ _____    ______ ____
ROOT
ATOM      1  O   UNL     1      33.343 -15.972 -21.411  0.00  0.00    -0.269 OA
ATOM      2  N   UNL     1      32.576 -12.531 -22.237  0.00  0.00    -0.260 N 
ATOM      3  N   UNL     1      33.308 -14.941 -23.455  0.00  0.00    -0.298 N 
ATOM      4  N   UNL     1      32.093 -10.210 -21.679  0.00  0.00    -0.322 NA
ATOM      5  N   UNL     1      31.365  -9.908 -19.381  0.00  0.00    -0.170 NA
ATOM      6  N   UNL     1      31.536  -8.097 -20.851  0.00  0.00    -0.232 N 
ATOM      7  N   UNL     1      32.181  -7.878 -23.125  0.00  0.00    -0.227 NA
ATOM      8  C   UNL     1      33.019 -12.447 -23.651  0.00  0.00    +0.082 C 
ATOM      9  C   UNL     1      32.188 -11.435 -24.487  0.00  0.00    +0.020 C 
ATOM     10  C   UNL     1      34.512 -12.027 -23.674  0.00  0.00    +0.020 C 
ATOM     11  C   UNL     1      32.817 -13.856 -24.284  0.00  0.00    +0.108 C 
ATOM     12  C   UNL     1      35.061 -11.786 -25.081  0.00  0.00    +0.002 C 
ATOM     13  C   UNL     1      32.732 -11.238 -25.904  0.00  0.00    +0.002 C 
ATOM     14  C   UNL     1      34.197 -10.816 -25.879  0.00  0.00    +0.000 C 
ATOM     15  C   UNL     1      32.636 -13.723 -21.530  0.00  0.00    +0.108 C 
ATOM     16  C   UNL     1      32.190 -11.520 -21.386  0.00  0.00    +0.201 C 
ATOM     17  C   UNL     1      33.111 -14.971 -22.085  0.00  0.00    +0.260 C 
ATOM     18  C   UNL     1      31.923 -12.086 -20.143  0.00  0.00    +0.067 C 
ATOM     19  C   UNL     1      32.201 -13.469 -20.243  0.00  0.00    +0.025 C 
ATOM     20  C   UNL     1      31.494 -11.229 -19.131  0.00  0.00    +0.116 C 
ATOM     21  C   UNL     1      31.673  -9.485 -20.624  0.00  0.00    +0.151 C 
ATOM     22  C   UNL     1      32.165  -5.691 -24.155  0.00  0.00    +0.067 C 
ATOM     23  C   UNL     1      31.755  -7.291 -21.984  0.00  0.00    +0.141 C 
ATOM     24  C   UNL     1      31.727  -5.124 -22.963  0.00  0.00    +0.019 C 
ATOM     25  C   UNL     1      32.376  -7.060 -24.183  0.00  0.00    +0.115 C 
ATOM     26  C   UNL     1      31.515  -5.933 -21.852  0.00  0.00    +0.036 C 
ATOM     27  H   UNL     1      33.797 -15.681 -23.880  0.00  0.00    +0.150 HD
ATOM     28  H   UNL     1      31.227  -7.595 -20.063  0.00  0.00    +0.166 HD
ENDROOT
BRANCH  22  29
ATOM     29  N   UNL     1      32.387  -4.902 -25.289  0.00  0.00    -0.311 N 
ATOM     30  N   UNL     1      33.016  -3.163 -27.466  0.00  0.00    +0.388 N 
ATOM     31  C   UNL     1      33.479  -5.240 -26.207  0.00  0.00    +0.068 C 
ATOM     32  C   UNL     1      32.032  -3.479 -25.220  0.00  0.00    +0.068 C 
ATOM     33  C   UNL     1      31.840  -2.905 -26.626  0.00  0.00    -0.056 C 
ATOM     34  C   UNL     1      33.241  -4.609 -27.581  0.00  0.00    -0.056 C 
ATOM     35  C   UNL     1      32.843  -2.562 -28.788  0.00  0.00    -0.101 C 
ATOM     36  H   UNL     1      33.833  -2.737 -27.027  0.00  0.00    -0.080 HD
ENDBRANCH  22  29
TORSDOF 1
ENDMDL
MODEL 3
REMARK VINA RESULT:      -4.3      3.414      9.503
REMARK  Name = 68029831
REMARK  1 active torsions:
REMARK  status: ('A' for Active; 'I' for Inactive)
REMARK    1  A    between atoms: C_22  and  N_29
REMARK                            x       y       z     vdW  Elec       q    Type
REMARK                         _______ _______ _______ _____ _____    ______ ____
ROOT
ATOM      1  O   UNL     1      34.603 -20.922 -21.381  0.00  0.00    -0.269 OA
ATOM      2  N   UNL     1      34.469 -17.500 -22.558  0.00  0.00    -0.260 N 
ATOM      3  N   UNL     1      34.723 -18.969 -20.192  0.00  0.00    -0.298 N 
ATOM      4  N   UNL     1      34.133 -15.791 -24.261  0.00  0.00    -0.322 NA
ATOM      5  N   UNL     1      34.289 -16.653 -26.527  0.00  0.00    -0.170 NA
ATOM      6  N   UNL     1      33.877 -14.388 -26.112  0.00  0.00    -0.232 N 
ATOM      7  N   UNL     1      33.642 -13.094 -24.137  0.00  0.00    -0.227 NA
ATOM      8  C   UNL     1      34.299 -16.745 -21.292  0.00  0.00    +0.082 C 
ATOM      9  C   UNL     1      34.940 -15.330 -21.340  0.00  0.00    +0.020 C 
ATOM     10  C   UNL     1      32.782 -16.610 -21.000  0.00  0.00    +0.020 C 
ATOM     11  C   UNL     1      35.022 -17.550 -20.172  0.00  0.00    +0.108 C 
ATOM     12  C   UNL     1      32.464 -15.744 -19.780  0.00  0.00    +0.002 C 
ATOM     13  C   UNL     1      34.643 -14.494 -20.093  0.00  0.00    +0.002 C 
ATOM     14  C   UNL     1      33.141 -14.380 -19.850  0.00  0.00    +0.000 C 
ATOM     15  C   UNL     1      34.628 -18.879 -22.562  0.00  0.00    +0.108 C 
ATOM     16  C   UNL     1      34.371 -17.053 -23.857  0.00  0.00    +0.201 C 
ATOM     17  C   UNL     1      34.655 -19.694 -21.369  0.00  0.00    +0.260 C 
ATOM     18  C   UNL     1      34.551 -18.146 -24.700  0.00  0.00    +0.067 C 
ATOM     19  C   UNL     1      34.715 -19.286 -23.880  0.00  0.00    +0.025 C 
ATOM     20  C   UNL     1      34.509 -17.905 -26.072  0.00  0.00    +0.116 C 
ATOM     21  C   UNL     1      34.113 -15.686 -25.604  0.00  0.00    +0.151 C 
ATOM     22  C   UNL     1      33.211 -10.722 -24.320  0.00  0.00    +0.067 C 
ATOM     23  C   UNL     1      33.652 -13.148 -25.488  0.00  0.00    +0.141 C 
ATOM     24  C   UNL     1      33.229 -10.818 -25.707  0.00  0.00    +0.019 C 
ATOM     25  C   UNL     1      33.422 -11.879 -23.587  0.00  0.00    +0.115 C 
ATOM     26  C   UNL     1      33.453 -12.050 -26.311  0.00  0.00    +0.036 C 
ATOM     27  H   UNL     1      34.564 -19.434 -19.338  0.00  0.00    +0.150 HD
ATOM     28  H   UNL     1      33.869 -14.343 -27.096  0.00  0.00    +0.166 HD
ENDROOT
BRANCH  22  29
ATOM     29  N   UNL     1      32.988  -9.495 -23.685  0.00  0.00    -0.311 N 
ATOM     30  N   UNL     1      32.655  -7.088 -22.184  0.00  0.00    +0.388 N 
ATOM     31  C   UNL     1      34.029  -8.463 -23.712  0.00  0.00    +0.068 C 
ATOM     32  C   UNL     1      32.104  -9.475 -22.513  0.00  0.00    +0.068 C 
ATOM     33  C   UNL     1      31.562  -8.064 -22.273  0.00  0.00    -0.056 C 
ATOM     34  C   UNL     1      33.425  -7.084 -23.434  0.00  0.00    -0.056 C 
ATOM     35  C   UNL     1      32.129  -5.753 -21.900  0.00  0.00    -0.101 C 
ATOM     36  H   UNL     1      33.273  -7.356 -21.417  0.00  0.00    -0.080 HD
ENDBRANCH  22  29
TORSDOF 1
ENDMDL
MODEL 4
REMARK VINA RESULT:      -3.7      2.993      8.478
REMARK  Name = 68029831
REMARK  1 active torsions:
REMARK  status: ('A' for Active; 'I' for Inactive)
REMARK    1  A    between atoms: C_22  and  N_29
REMARK                            x       y       z     vdW  Elec       q    Type
REMARK                         _______ _______ _______ _____ _____    ______ ____
ROOT
ATOM      1  O   UNL     1      34.707 -18.198 -24.757  0.00  0.00    -0.269 OA
ATOM      2  N   UNL     1      33.333 -15.006 -23.740  0.00  0.00    -0.260 N 
ATOM      3  N   UNL     1      33.966 -16.456 -26.046  0.00  0.00    -0.298 N 
ATOM      4  N   UNL     1      32.758 -13.303 -22.095  0.00  0.00    -0.322 NA
ATOM      5  N   UNL     1      32.687 -14.152 -19.821  0.00  0.00    -0.170 NA
ATOM      6  N   UNL     1      32.215 -11.912 -20.298  0.00  0.00    -0.232 N 
ATOM      7  N   UNL     1      32.152 -10.633 -22.296  0.00  0.00    -0.227 NA
ATOM      8  C   UNL     1      33.339 -14.246 -25.015  0.00  0.00    +0.082 C 
ATOM      9  C   UNL     1      32.189 -13.205 -25.106  0.00  0.00    +0.020 C 
ATOM     10  C   UNL     1      34.702 -13.517 -25.146  0.00  0.00    +0.020 C 
ATOM     11  C   UNL     1      33.134 -15.274 -26.167  0.00  0.00    +0.108 C 
ATOM     12  C   UNL     1      34.794 -12.598 -26.365  0.00  0.00    +0.002 C 
ATOM     13  C   UNL     1      32.278 -12.321 -26.352  0.00  0.00    +0.002 C 
ATOM     14  C   UNL     1      33.628 -11.617 -26.435  0.00  0.00    +0.000 C 
ATOM     15  C   UNL     1      33.733 -16.333 -23.686  0.00  0.00    +0.108 C 
ATOM     16  C   UNL     1      33.089 -14.555 -22.461  0.00  0.00    +0.201 C 
ATOM     17  C   UNL     1      34.175 -17.092 -24.834  0.00  0.00    +0.260 C 
ATOM     18  C   UNL     1      33.258 -15.628 -21.591  0.00  0.00    +0.067 C 
ATOM     19  C   UNL     1      33.658 -16.740 -22.368  0.00  0.00    +0.025 C 
ATOM     20  C   UNL     1      33.038 -15.389 -20.235  0.00  0.00    +0.116 C 
ATOM     21  C   UNL     1      32.574 -13.197 -20.765  0.00  0.00    +0.151 C 
ATOM     22  C   UNL     1      31.582  -8.287 -22.183  0.00  0.00    +0.067 C 
ATOM     23  C   UNL     1      32.003 -10.685 -20.954  0.00  0.00    +0.141 C 
ATOM     24  C   UNL     1      31.439  -8.380 -20.803  0.00  0.00    +0.019 C 
ATOM     25  C   UNL     1      31.937  -9.432 -22.877  0.00  0.00    +0.115 C 
ATOM     26  C   UNL     1      31.651  -9.599 -20.168  0.00  0.00    +0.036 C 
ATOM     27  H   UNL     1      34.397 -16.819 -26.853  0.00  0.00    +0.150 HD
ATOM     28  H   UNL     1      32.087 -11.866 -19.323  0.00  0.00    +0.166 HD
ENDROOT
BRANCH  22  29
ATOM     29  N   UNL     1      31.375  -7.073 -22.848  0.00  0.00    -0.311 N 
ATOM     30  N   UNL     1      30.712  -4.678 -24.256  0.00  0.00    +0.388 N 
ATOM     31  C   UNL     1      30.760  -5.949 -22.136  0.00  0.00    +0.068 C 
ATOM     32  C   UNL     1      31.140  -7.112 -24.298  0.00  0.00    +0.068 C 
ATOM     33  C   UNL     1      31.452  -5.752 -24.928  0.00  0.00    -0.056 C 
ATOM     34  C   UNL     1      31.083  -4.627 -22.837  0.00  0.00    -0.056 C 
ATOM     35  C   UNL     1      30.975  -3.392 -24.903  0.00  0.00    -0.101 C 
ATOM     36  H   UNL     1      29.713  -4.872 -24.328  0.00  0.00    -0.080 HD
ENDBRANCH  22  29
TORSDOF 1
ENDMDL
MODEL 5
REMARK VINA RESULT:      -3.7      2.842      5.957
REMARK  Name = 68029831
REMARK  1 active torsions:
REMARK  status: ('A' for Active; 'I' for Inactive)
REMARK    1  A    between atoms: C_22  and  N_29
REMARK                            x       y       z     vdW  Elec       q    Type
REMARK                         _______ _______ _______ _____ _____    ______ ____
ROOT
ATOM      1  O   UNL     1      32.609  -9.278 -24.226  0.00  0.00    -0.269 OA
ATOM      2  N   UNL     1      32.958 -12.852 -23.759  0.00  0.00    -0.260 N 
ATOM      3  N   UNL     1      32.206 -10.548 -22.364  0.00  0.00    -0.298 N 
ATOM      4  N   UNL     1      33.641 -15.086 -24.451  0.00  0.00    -0.322 NA
ATOM      5  N   UNL     1      33.999 -15.279 -26.846  0.00  0.00    -0.170 NA
ATOM      6  N   UNL     1      34.282 -17.112 -25.422  0.00  0.00    -0.232 N 
ATOM      7  N   UNL     1      34.060 -17.426 -23.079  0.00  0.00    -0.227 NA
ATOM      8  C   UNL     1      32.836 -12.984 -22.286  0.00  0.00    +0.082 C 
ATOM      9  C   UNL     1      32.204 -14.335 -21.849  0.00  0.00    +0.020 C 
ATOM     10  C   UNL     1      34.250 -12.854 -21.661  0.00  0.00    +0.020 C 
ATOM     11  C   UNL     1      31.893 -11.846 -21.796  0.00  0.00    +0.108 C 
ATOM     12  C   UNL     1      34.280 -13.093 -20.151  0.00  0.00    +0.002 C 
ATOM     13  C   UNL     1      32.209 -14.537 -20.333  0.00  0.00    +0.002 C 
ATOM     14  C   UNL     1      33.619 -14.411 -19.764  0.00  0.00    +0.000 C 
ATOM     15  C   UNL     1      32.821 -11.624 -24.389  0.00  0.00    +0.108 C 
ATOM     16  C   UNL     1      33.335 -13.796 -24.688  0.00  0.00    +0.201 C 
ATOM     17  C   UNL     1      32.541 -10.385 -23.697  0.00  0.00    +0.260 C 
ATOM     18  C   UNL     1      33.358 -13.182 -25.937  0.00  0.00    +0.067 C 
ATOM     19  C   UNL     1      33.031 -11.820 -25.741  0.00  0.00    +0.025 C 
ATOM     20  C   UNL     1      33.700 -13.975 -27.031  0.00  0.00    +0.116 C 
ATOM     21  C   UNL     1      33.955 -15.746 -25.582  0.00  0.00    +0.151 C 
ATOM     22  C   UNL     1      34.493 -19.607 -22.131  0.00  0.00    +0.067 C 
ATOM     23  C   UNL     1      34.349 -17.948 -24.292  0.00  0.00    +0.141 C 
ATOM     24  C   UNL     1      34.783 -20.108 -23.395  0.00  0.00    +0.019 C 
ATOM     25  C   UNL     1      34.140 -18.271 -22.028  0.00  0.00    +0.115 C 
ATOM     26  C   UNL     1      34.712 -19.270 -24.502  0.00  0.00    +0.036 C 
ATOM     27  H   UNL     1      32.179  -9.755 -21.781  0.00  0.00    +0.150 HD
ATOM     28  H   UNL     1      34.507 -17.568 -26.265  0.00  0.00    +0.166 HD
ENDROOT
BRANCH  22  29
ATOM     29  N   UNL     1      34.556 -20.427 -20.999  0.00  0.00    -0.311 N 
ATOM     30  N   UNL     1      34.726 -21.886 -18.549  0.00  0.00    +0.388 N 
ATOM     31  C   UNL     1      33.357 -20.628 -20.179  0.00  0.00    +0.068 C 
ATOM     32  C   UNL     1      35.836 -20.522 -20.285  0.00  0.00    +0.068 C 
ATOM     33  C   UNL     1      35.887 -21.798 -19.442  0.00  0.00    -0.056 C 
ATOM     34  C   UNL     1      33.488 -21.901 -19.338  0.00  0.00    -0.056 C 
ATOM     35  C   UNL     1      34.814 -23.081 -17.709  0.00  0.00    -0.101 C 
ATOM     36  H   UNL     1      34.717 -21.068 -17.939  0.00  0.00    -0.080 HD
ENDBRANCH  22  29
TORSDOF 1
ENDMDL
