MODEL 1
REMARK VINA RESULT:      -6.6      0.000      0.000
REMARK  Name = 10976469
REMARK  8 active torsions:
REMARK  status: ('A' for Active; 'I' for Inactive)
REMARK    1  A    between atoms: C_1  and  O_3
REMARK    2  A    between atoms: C_1  and  C_10
REMARK    3  A    between atoms: O_3  and  P_4
REMARK    4  A    between atoms: P_4  and  O_6
REMARK    5  A    between atoms: P_4  and  O_8
REMARK    6  A    between atoms: C_10  and  N_11
REMARK    7  A    between atoms: C_10  and  C_16
REMARK    8  A    between atoms: C_16  and  O_17
REMARK                            x       y       z     vdW  Elec       q    Type
REMARK                         _______ _______ _______ _____ _____    ______ ____
ROOT
ATOM      1  C   UNK     1      37.753 -25.743 -14.700  0.00  0.00    +0.117 C 
ATOM      2  C   UNK     1      36.899 -26.831 -15.338  0.00  0.00    +0.031 C 
ENDROOT
BRANCH   1   3
ATOM      3  O   UNK     1      38.888 -26.371 -14.106  0.00  0.00    -0.278 OA
BRANCH   3   4
ATOM      4  P   UNK     1      40.355 -25.834 -14.511  0.00  0.00    +0.473 P 
ATOM      5  O   UNK     1      40.729 -24.500 -13.933  0.00  0.00    -0.228 OA
BRANCH   4   6
ATOM      6  O   UNK     1      40.363 -25.914 -16.127  0.00  0.00    -0.303 OA
ATOM      7  H   UNK     1      39.632 -25.384 -16.480  0.00  0.00    +0.222 HD
ENDBRANCH   4   6
BRANCH   4   8
ATOM      8  O   UNK     1      41.314 -27.060 -14.073  0.00  0.00    -0.303 OA
ATOM      9  H   UNK     1      42.076 -27.103 -14.671  0.00  0.00    +0.222 HD
ENDBRANCH   4   8
ENDBRANCH   3   4
ENDBRANCH   1   3
BRANCH   1  10
ATOM     10  C   UNK     1      36.989 -24.902 -13.665  0.00  0.00    +0.064 C 
BRANCH  10  11
ATOM     11  N   UNK     1      35.544 -25.094 -13.832  0.00  0.00    +0.390 N 
ATOM     12  H   UNK     1      35.326 -26.089 -13.794  0.00  0.00    -0.088 HD
ATOM     13  H   UNK     1      35.253 -24.717 -14.734  0.00  0.00    -0.088 HD
ATOM     14  H   UNK     1      35.049 -24.609 -13.084  0.00  0.00    -0.088 HD
ENDBRANCH  10  11
BRANCH  10  16
ATOM     15  O   UNK     1      37.913 -24.589 -11.429  0.00  0.00    -0.253 OA
ATOM     16  C   UNK     1      37.321 -25.295 -12.235  0.00  0.00    +0.295 C 
BRANCH  16  17
ATOM     17  O   UNK     1      36.863 -26.536 -11.923  0.00  0.00    -0.482 OA
ATOM     18  H   UNK     1      37.457 -27.260 -11.892  0.00  0.00    +0.295 HD
ENDBRANCH  16  17
ENDBRANCH  10  16
ENDBRANCH   1  10
TORSDOF 8
ENDMDL
MODEL 2
REMARK VINA RESULT:      -6.2      2.177      3.201
REMARK  Name = 10976469
REMARK  8 active torsions:
REMARK  status: ('A' for Active; 'I' for Inactive)
REMARK    1  A    between atoms: C_1  and  O_3
REMARK    2  A    between atoms: C_1  and  C_10
REMARK    3  A    between atoms: O_3  and  P_4
REMARK    4  A    between atoms: P_4  and  O_6
REMARK    5  A    between atoms: P_4  and  O_8
REMARK    6  A    between atoms: C_10  and  N_11
REMARK    7  A    between atoms: C_10  and  C_16
REMARK    8  A    between atoms: C_16  and  O_17
REMARK                            x       y       z     vdW  Elec       q    Type
REMARK                         _______ _______ _______ _____ _____    ______ ____
ROOT
ATOM      1  C   UNK     1      37.423 -23.865 -14.543  0.00  0.00    +0.117 C 
ATOM      2  C   UNK     1      37.444 -22.879 -15.703  0.00  0.00    +0.031 C 
ENDROOT
BRANCH   1   3
ATOM      3  O   UNK     1      36.531 -24.924 -14.885  0.00  0.00    -0.278 OA
BRANCH   3   4
ATOM      4  P   UNK     1      37.129 -26.419 -14.996  0.00  0.00    +0.473 P 
ATOM      5  O   UNK     1      36.554 -27.257 -16.100  0.00  0.00    -0.228 OA
BRANCH   4   6
ATOM      6  O   UNK     1      36.946 -27.020 -13.505  0.00  0.00    -0.303 OA
ATOM      7  H   UNK     1      36.985 -26.298 -12.859  0.00  0.00    +0.222 HD
ENDBRANCH   4   6
BRANCH   4   8
ATOM      8  O   UNK     1      38.722 -26.157 -15.097  0.00  0.00    -0.303 OA
ATOM      9  H   UNK     1      38.881 -25.240 -15.373  0.00  0.00    +0.222 HD
ENDBRANCH   4   8
ENDBRANCH   3   4
ENDBRANCH   1   3
BRANCH   1  10
ATOM     10  C   UNK     1      37.019 -23.220 -13.208  0.00  0.00    +0.064 C 
BRANCH  10  11
ATOM     11  N   UNK     1      35.603 -23.481 -12.933  0.00  0.00    +0.390 N 
ATOM     12  H   UNK     1      35.370 -24.432 -13.222  0.00  0.00    -0.088 HD
ATOM     13  H   UNK     1      35.027 -22.819 -13.453  0.00  0.00    -0.088 HD
ATOM     14  H   UNK     1      35.425 -23.377 -11.935  0.00  0.00    -0.088 HD
ENDBRANCH  10  11
BRANCH  10  16
ATOM     15  O   UNK     1      37.583 -24.846 -11.477  0.00  0.00    -0.253 OA
ATOM     16  C   UNK     1      37.803 -23.776 -12.030  0.00  0.00    +0.295 C 
BRANCH  16  17
ATOM     17  O   UNK     1      38.816 -22.952 -11.653  0.00  0.00    -0.482 OA
ATOM     18  H   UNK     1      38.699 -22.366 -10.931  0.00  0.00    +0.295 HD
ENDBRANCH  16  17
ENDBRANCH  10  16
ENDBRANCH   1  10
TORSDOF 8
ENDMDL
MODEL 3
REMARK VINA RESULT:      -6.2      1.894      2.750
REMARK  Name = 10976469
REMARK  8 active torsions:
REMARK  status: ('A' for Active; 'I' for Inactive)
REMARK    1  A    between atoms: C_1  and  O_3
REMARK    2  A    between atoms: C_1  and  C_10
REMARK    3  A    between atoms: O_3  and  P_4
REMARK    4  A    between atoms: P_4  and  O_6
REMARK    5  A    between atoms: P_4  and  O_8
REMARK    6  A    between atoms: C_10  and  N_11
REMARK    7  A    between atoms: C_10  and  C_16
REMARK    8  A    between atoms: C_16  and  O_17
REMARK                            x       y       z     vdW  Elec       q    Type
REMARK                         _______ _______ _______ _____ _____    ______ ____
ROOT
ATOM      1  C   UNK     1      38.105 -24.785 -13.460  0.00  0.00    +0.117 C 
ATOM      2  C   UNK     1      38.146 -24.123 -12.089  0.00  0.00    +0.031 C 
ENDROOT
BRANCH   1   3
ATOM      3  O   UNK     1      39.414 -24.703 -14.024  0.00  0.00    -0.278 OA
BRANCH   3   4
ATOM      4  P   UNK     1      40.067 -26.048 -14.631  0.00  0.00    +0.473 P 
ATOM      5  O   UNK     1      41.297 -26.536 -13.924  0.00  0.00    -0.228 OA
BRANCH   4   6
ATOM      6  O   UNK     1      40.262 -25.708 -16.201  0.00  0.00    -0.303 OA
ATOM      7  H   UNK     1      40.168 -26.521 -16.721  0.00  0.00    +0.222 HD
ENDBRANCH   4   6
BRANCH   4   8
ATOM      8  O   UNK     1      38.822 -27.080 -14.626  0.00  0.00    -0.303 OA
ATOM      9  H   UNK     1      39.150 -27.980 -14.478  0.00  0.00    +0.222 HD
ENDBRANCH   4   8
ENDBRANCH   3   4
ENDBRANCH   1   3
BRANCH   1  10
ATOM     10  C   UNK     1      37.064 -24.160 -14.403  0.00  0.00    +0.064 C 
BRANCH  10  11
ATOM     11  N   UNK     1      37.719 -23.677 -15.623  0.00  0.00    +0.390 N 
ATOM     12  H   UNK     1      37.322 -24.153 -16.433  0.00  0.00    -0.088 HD
ATOM     13  H   UNK     1      38.719 -23.870 -15.572  0.00  0.00    -0.088 HD
ATOM     14  H   UNK     1      37.570 -22.672 -15.713  0.00  0.00    -0.088 HD
ENDBRANCH  10  11
BRANCH  10  16
ATOM     15  O   UNK     1      36.165 -26.045 -15.664  0.00  0.00    -0.253 OA
ATOM     16  C   UNK     1      36.001 -25.155 -14.840  0.00  0.00    +0.295 C 
BRANCH  16  17
ATOM     17  O   UNK     1      34.822 -24.965 -14.191  0.00  0.00    -0.482 OA
ATOM     18  H   UNK     1      34.033 -24.842 -14.680  0.00  0.00    +0.295 HD
ENDBRANCH  16  17
ENDBRANCH  10  16
ENDBRANCH   1  10
TORSDOF 8
ENDMDL
MODEL 4
REMARK VINA RESULT:      -6.2      2.858      4.209
REMARK  Name = 10976469
REMARK  8 active torsions:
REMARK  status: ('A' for Active; 'I' for Inactive)
REMARK    1  A    between atoms: C_1  and  O_3
REMARK    2  A    between atoms: C_1  and  C_10
REMARK    3  A    between atoms: O_3  and  P_4
REMARK    4  A    between atoms: P_4  and  O_6
REMARK    5  A    between atoms: P_4  and  O_8
REMARK    6  A    between atoms: C_10  and  N_11
REMARK    7  A    between atoms: C_10  and  C_16
REMARK    8  A    between atoms: C_16  and  O_17
REMARK                            x       y       z     vdW  Elec       q    Type
REMARK                         _______ _______ _______ _____ _____    ______ ____
ROOT
ATOM      1  C   UNK     1      37.443 -24.222 -14.555  0.00  0.00    +0.117 C 
ATOM      2  C   UNK     1      37.637 -23.186 -15.654  0.00  0.00    +0.031 C 
ENDROOT
BRANCH   1   3
ATOM      3  O   UNK     1      37.951 -23.671 -13.341  0.00  0.00    -0.278 OA
BRANCH   3   4
ATOM      4  P   UNK     1      36.971 -23.616 -12.059  0.00  0.00    +0.473 P 
ATOM      5  O   UNK     1      37.381 -22.655 -10.982  0.00  0.00    -0.228 OA
BRANCH   4   6
ATOM      6  O   UNK     1      36.853 -25.163 -11.598  0.00  0.00    -0.303 OA
ATOM      7  H   UNK     1      36.835 -25.210 -10.629  0.00  0.00    +0.222 HD
ENDBRANCH   4   6
BRANCH   4   8
ATOM      8  O   UNK     1      35.530 -23.317 -12.728  0.00  0.00    -0.303 OA
ATOM      9  H   UNK     1      34.916 -23.002 -12.046  0.00  0.00    +0.222 HD
ENDBRANCH   4   8
ENDBRANCH   3   4
ENDBRANCH   1   3
BRANCH   1  10
ATOM     10  C   UNK     1      38.114 -25.568 -14.867  0.00  0.00    +0.064 C 
BRANCH  10  11
ATOM     11  N   UNK     1      39.030 -25.936 -13.782  0.00  0.00    +0.390 N 
ATOM     12  H   UNK     1      38.620 -26.691 -13.232  0.00  0.00    -0.088 HD
ATOM     13  H   UNK     1      39.188 -25.126 -13.181  0.00  0.00    -0.088 HD
ATOM     14  H   UNK     1      39.917 -26.246 -14.177  0.00  0.00    -0.088 HD
ENDBRANCH  10  11
BRANCH  10  16
ATOM     15  O   UNK     1      36.750 -27.207 -16.054  0.00  0.00    -0.253 OA
ATOM     16  C   UNK     1      37.111 -26.704 -14.998  0.00  0.00    +0.295 C 
BRANCH  16  17
ATOM     17  O   UNK     1      36.658 -27.130 -13.789  0.00  0.00    -0.482 OA
ATOM     18  H   UNK     1      35.835 -26.822 -13.463  0.00  0.00    +0.295 HD
ENDBRANCH  16  17
ENDBRANCH  10  16
ENDBRANCH   1  10
TORSDOF 8
ENDMDL
MODEL 5
REMARK VINA RESULT:      -6.1      2.486      3.928
REMARK  Name = 10976469
REMARK  8 active torsions:
REMARK  status: ('A' for Active; 'I' for Inactive)
REMARK    1  A    between atoms: C_1  and  O_3
REMARK    2  A    between atoms: C_1  and  C_10
REMARK    3  A    between atoms: O_3  and  P_4
REMARK    4  A    between atoms: P_4  and  O_6
REMARK    5  A    between atoms: P_4  and  O_8
REMARK    6  A    between atoms: C_10  and  N_11
REMARK    7  A    between atoms: C_10  and  C_16
REMARK    8  A    between atoms: C_16  and  O_17
REMARK                            x       y       z     vdW  Elec       q    Type
REMARK                         _______ _______ _______ _____ _____    ______ ____
ROOT
ATOM      1  C   UNK     1      35.872 -24.599 -13.750  0.00  0.00    +0.117 C 
ATOM      2  C   UNK     1      34.377 -24.318 -13.822  0.00  0.00    +0.031 C 
ENDROOT
BRANCH   1   3
ATOM      3  O   UNK     1      36.517 -23.415 -13.283  0.00  0.00    -0.278 OA
BRANCH   3   4
ATOM      4  P   UNK     1      37.491 -23.533 -12.001  0.00  0.00    +0.473 P 
ATOM      5  O   UNK     1      36.875 -24.164 -10.787  0.00  0.00    -0.228 OA
BRANCH   4   6
ATOM      6  O   UNK     1      38.041 -22.025 -11.793  0.00  0.00    -0.303 OA
ATOM      7  H   UNK     1      38.995 -22.050 -11.625  0.00  0.00    +0.222 HD
ENDBRANCH   4   6
BRANCH   4   8
ATOM      8  O   UNK     1      38.773 -24.316 -12.601  0.00  0.00    -0.303 OA
ATOM      9  H   UNK     1      39.382 -24.538 -11.880  0.00  0.00    +0.222 HD
ENDBRANCH   4   8
ENDBRANCH   3   4
ENDBRANCH   1   3
BRANCH   1  10
ATOM     10  C   UNK     1      36.468 -25.053 -15.092  0.00  0.00    +0.064 C 
BRANCH  10  11
ATOM     11  N   UNK     1      37.530 -24.130 -15.507  0.00  0.00    +0.390 N 
ATOM     12  H   UNK     1      38.396 -24.650 -15.649  0.00  0.00    -0.088 HD
ATOM     13  H   UNK     1      37.672 -23.427 -14.782  0.00  0.00    -0.088 HD
ATOM     14  H   UNK     1      37.262 -23.673 -16.378  0.00  0.00    -0.088 HD
ENDBRANCH  10  11
BRANCH  10  16
ATOM     15  O   UNK     1      37.740 -26.866 -14.067  0.00  0.00    -0.253 OA
ATOM     16  C   UNK     1      37.095 -26.436 -15.015  0.00  0.00    +0.295 C 
BRANCH  16  17
ATOM     17  O   UNK     1      36.842 -27.177 -16.126  0.00  0.00    -0.482 OA
ATOM     18  H   UNK     1      37.069 -26.844 -16.972  0.00  0.00    +0.295 HD
ENDBRANCH  16  17
ENDBRANCH  10  16
ENDBRANCH   1  10
TORSDOF 8
ENDMDL
MODEL 6
REMARK VINA RESULT:      -5.8      3.121      4.726
REMARK  Name = 10976469
REMARK  8 active torsions:
REMARK  status: ('A' for Active; 'I' for Inactive)
REMARK    1  A    between atoms: C_1  and  O_3
REMARK    2  A    between atoms: C_1  and  C_10
REMARK    3  A    between atoms: O_3  and  P_4
REMARK    4  A    between atoms: P_4  and  O_6
REMARK    5  A    between atoms: P_4  and  O_8
REMARK    6  A    between atoms: C_10  and  N_11
REMARK    7  A    between atoms: C_10  and  C_16
REMARK    8  A    between atoms: C_16  and  O_17
REMARK                            x       y       z     vdW  Elec       q    Type
REMARK                         _______ _______ _______ _____ _____    ______ ____
ROOT
ATOM      1  C   UNK     1      37.490 -24.853 -13.398  0.00  0.00    +0.117 C 
ATOM      2  C   UNK     1      38.746 -25.706 -13.279  0.00  0.00    +0.031 C 
ENDROOT
BRANCH   1   3
ATOM      3  O   UNK     1      36.581 -25.270 -12.380  0.00  0.00    -0.278 OA
BRANCH   3   4
ATOM      4  P   UNK     1      36.016 -24.154 -11.360  0.00  0.00    +0.473 P 
ATOM      5  O   UNK     1      37.027 -23.152 -10.886  0.00  0.00    -0.228 OA
BRANCH   4   6
ATOM      6  O   UNK     1      35.304 -25.021 -10.195  0.00  0.00    -0.303 OA
ATOM      7  H   UNK     1      35.664 -25.922 -10.196  0.00  0.00    +0.222 HD
ENDBRANCH   4   6
BRANCH   4   8
ATOM      8  O   UNK     1      34.767 -23.530 -12.175  0.00  0.00    -0.303 OA
ATOM      9  H   UNK     1      34.619 -22.615 -11.889  0.00  0.00    +0.222 HD
ENDBRANCH   4   8
ENDBRANCH   3   4
ENDBRANCH   1   3
BRANCH   1  10
ATOM     10  C   UNK     1      36.833 -24.935 -14.785  0.00  0.00    +0.064 C 
BRANCH  10  11
ATOM     11  N   UNK     1      35.471 -25.465 -14.663  0.00  0.00    +0.390 N 
ATOM     12  H   UNK     1      35.502 -26.384 -14.222  0.00  0.00    -0.088 HD
ATOM     13  H   UNK     1      35.054 -25.549 -15.591  0.00  0.00    -0.088 HD
ATOM     14  H   UNK     1      34.910 -24.833 -14.093  0.00  0.00    -0.088 HD
ENDBRANCH  10  11
BRANCH  10  16
ATOM     15  O   UNK     1      35.939 -23.301 -16.362  0.00  0.00    -0.253 OA
ATOM     16  C   UNK     1      36.715 -23.576 -15.456  0.00  0.00    +0.295 C 
BRANCH  16  17
ATOM     17  O   UNK     1      37.569 -22.663 -14.920  0.00  0.00    -0.482 OA
ATOM     18  H   UNK     1      37.716 -21.847 -15.357  0.00  0.00    +0.295 HD
ENDBRANCH  16  17
ENDBRANCH  10  16
ENDBRANCH   1  10
TORSDOF 8
ENDMDL
MODEL 7
REMARK VINA RESULT:      -5.7      2.316      2.662
REMARK  Name = 10976469
REMARK  8 active torsions:
REMARK  status: ('A' for Active; 'I' for Inactive)
REMARK    1  A    between atoms: C_1  and  O_3
REMARK    2  A    between atoms: C_1  and  C_10
REMARK    3  A    between atoms: O_3  and  P_4
REMARK    4  A    between atoms: P_4  and  O_6
REMARK    5  A    between atoms: P_4  and  O_8
REMARK    6  A    between atoms: C_10  and  N_11
REMARK    7  A    between atoms: C_10  and  C_16
REMARK    8  A    between atoms: C_16  and  O_17
REMARK                            x       y       z     vdW  Elec       q    Type
REMARK                         _______ _______ _______ _____ _____    ______ ____
ROOT
ATOM      1  C   UNK     1      36.463 -23.421 -13.890  0.00  0.00    +0.117 C 
ATOM      2  C   UNK     1      35.565 -22.856 -14.982  0.00  0.00    +0.031 C 
ENDROOT
BRANCH   1   3
ATOM      3  O   UNK     1      36.938 -24.693 -14.330  0.00  0.00    -0.278 OA
BRANCH   3   4
ATOM      4  P   UNK     1      38.525 -24.875 -14.558  0.00  0.00    +0.473 P 
ATOM      5  O   UNK     1      39.363 -24.795 -13.316  0.00  0.00    -0.228 OA
BRANCH   4   6
ATOM      6  O   UNK     1      38.879 -23.787 -15.702  0.00  0.00    -0.303 OA
ATOM      7  H   UNK     1      39.842 -23.710 -15.787  0.00  0.00    +0.222 HD
ENDBRANCH   4   6
BRANCH   4   8
ATOM      8  O   UNK     1      38.609 -26.284 -15.348  0.00  0.00    -0.303 OA
ATOM      9  H   UNK     1      38.028 -26.931 -14.918  0.00  0.00    +0.222 HD
ENDBRANCH   4   8
ENDBRANCH   3   4
ENDBRANCH   1   3
BRANCH   1  10
ATOM     10  C   UNK     1      35.758 -23.542 -12.529  0.00  0.00    +0.064 C 
BRANCH  10  11
ATOM     11  N   UNK     1      35.047 -24.822 -12.445  0.00  0.00    +0.390 N 
ATOM     12  H   UNK     1      34.423 -24.811 -11.638  0.00  0.00    -0.088 HD
ATOM     13  H   UNK     1      35.722 -25.580 -12.340  0.00  0.00    -0.088 HD
ATOM     14  H   UNK     1      34.503 -24.965 -13.294  0.00  0.00    -0.088 HD
ENDBRANCH  10  11
BRANCH  10  16
ATOM     15  O   UNK     1      36.577 -24.084 -10.295  0.00  0.00    -0.253 OA
ATOM     16  C   UNK     1      36.732 -23.503 -11.362  0.00  0.00    +0.295 C 
BRANCH  16  17
ATOM     17  O   UNK     1      37.832 -22.754 -11.636  0.00  0.00    -0.482 OA
ATOM     18  H   UNK     1      38.169 -22.719 -12.510  0.00  0.00    +0.295 HD
ENDBRANCH  16  17
ENDBRANCH  10  16
ENDBRANCH   1  10
TORSDOF 8
ENDMDL
MODEL 8
REMARK VINA RESULT:      -5.7      1.744      2.032
REMARK  Name = 10976469
REMARK  8 active torsions:
REMARK  status: ('A' for Active; 'I' for Inactive)
REMARK    1  A    between atoms: C_1  and  O_3
REMARK    2  A    between atoms: C_1  and  C_10
REMARK    3  A    between atoms: O_3  and  P_4
REMARK    4  A    between atoms: P_4  and  O_6
REMARK    5  A    between atoms: P_4  and  O_8
REMARK    6  A    between atoms: C_10  and  N_11
REMARK    7  A    between atoms: C_10  and  C_16
REMARK    8  A    between atoms: C_16  and  O_17
REMARK                            x       y       z     vdW  Elec       q    Type
REMARK                         _______ _______ _______ _____ _____    ______ ____
ROOT
ATOM      1  C   UNK     1      37.780 -25.811 -14.635  0.00  0.00    +0.117 C 
ATOM      2  C   UNK     1      36.903 -26.881 -15.274  0.00  0.00    +0.031 C 
ENDROOT
BRANCH   1   3
ATOM      3  O   UNK     1      38.936 -26.455 -14.102  0.00  0.00    -0.278 OA
BRANCH   3   4
ATOM      4  P   UNK     1      40.386 -25.874 -14.505  0.00  0.00    +0.473 P 
ATOM      5  O   UNK     1      40.729 -24.542 -13.906  0.00  0.00    -0.228 OA
BRANCH   4   6
ATOM      6  O   UNK     1      40.387 -25.925 -16.123  0.00  0.00    -0.303 OA
ATOM      7  H   UNK     1      39.640 -25.408 -16.462  0.00  0.00    +0.222 HD
ENDBRANCH   4   6
BRANCH   4   8
ATOM      8  O   UNK     1      41.379 -27.083 -14.095  0.00  0.00    -0.303 OA
ATOM      9  H   UNK     1      42.139 -27.095 -14.698  0.00  0.00    +0.222 HD
ENDBRANCH   4   8
ENDBRANCH   3   4
ENDBRANCH   1   3
BRANCH   1  10
ATOM     10  C   UNK     1      37.053 -25.004 -13.548  0.00  0.00    +0.064 C 
BRANCH  10  11
ATOM     11  N   UNK     1      37.942 -24.796 -12.400  0.00  0.00    +0.390 N 
ATOM     12  H   UNK     1      38.812 -24.368 -12.717  0.00  0.00    -0.088 HD
ATOM     13  H   UNK     1      38.146 -25.694 -11.960  0.00  0.00    -0.088 HD
ATOM     14  H   UNK     1      37.487 -24.182 -11.725  0.00  0.00    -0.088 HD
ENDBRANCH  10  11
BRANCH  10  16
ATOM     15  O   UNK     1      35.476 -23.215 -14.066  0.00  0.00    -0.253 OA
ATOM     16  C   UNK     1      36.629 -23.626 -14.029  0.00  0.00    +0.295 C 
BRANCH  16  17
ATOM     17  O   UNK     1      37.690 -22.865 -14.407  0.00  0.00    -0.482 OA
ATOM     18  H   UNK     1      37.879 -22.743 -15.317  0.00  0.00    +0.295 HD
ENDBRANCH  16  17
ENDBRANCH  10  16
ENDBRANCH   1  10
TORSDOF 8
ENDMDL
MODEL 9
REMARK VINA RESULT:      -5.6      2.472      4.232
REMARK  Name = 10976469
REMARK  8 active torsions:
REMARK  status: ('A' for Active; 'I' for Inactive)
REMARK    1  A    between atoms: C_1  and  O_3
REMARK    2  A    between atoms: C_1  and  C_10
REMARK    3  A    between atoms: O_3  and  P_4
REMARK    4  A    between atoms: P_4  and  O_6
REMARK    5  A    between atoms: P_4  and  O_8
REMARK    6  A    between atoms: C_10  and  N_11
REMARK    7  A    between atoms: C_10  and  C_16
REMARK    8  A    between atoms: C_16  and  O_17
REMARK                            x       y       z     vdW  Elec       q    Type
REMARK                         _______ _______ _______ _____ _____    ______ ____
ROOT
ATOM      1  C   UNK     1      36.708 -24.769 -14.180  0.00  0.00    +0.117 C 
ATOM      2  C   UNK     1      35.610 -24.362 -15.153  0.00  0.00    +0.031 C 
ENDROOT
BRANCH   1   3
ATOM      3  O   UNK     1      36.846 -23.725 -13.216  0.00  0.00    -0.278 OA
BRANCH   3   4
ATOM      4  P   UNK     1      36.233 -23.964 -11.742  0.00  0.00    +0.473 P 
ATOM      5  O   UNK     1      36.951 -23.256 -10.630  0.00  0.00    -0.228 OA
BRANCH   4   6
ATOM      6  O   UNK     1      36.167 -25.575 -11.607  0.00  0.00    -0.303 OA
ATOM      7  H   UNK     1      35.839 -25.811 -10.725  0.00  0.00    +0.222 HD
ENDBRANCH   4   6
BRANCH   4   8
ATOM      8  O   UNK     1      34.684 -23.542 -11.931  0.00  0.00    -0.303 OA
ATOM      9  H   UNK     1      34.121 -24.143 -11.417  0.00  0.00    +0.222 HD
ENDBRANCH   4   8
ENDBRANCH   3   4
ENDBRANCH   1   3
BRANCH   1  10
ATOM     10  C   UNK     1      38.051 -25.057 -14.869  0.00  0.00    +0.064 C 
BRANCH  10  11
ATOM     11  N   UNK     1      38.457 -23.905 -15.680  0.00  0.00    +0.390 N 
ATOM     12  H   UNK     1      39.389 -23.602 -15.398  0.00  0.00    -0.088 HD
ATOM     13  H   UNK     1      37.795 -23.141 -15.540  0.00  0.00    -0.088 HD
ATOM     14  H   UNK     1      38.469 -24.170 -16.664  0.00  0.00    -0.088 HD
ENDBRANCH  10  11
BRANCH  10  16
ATOM     15  O   UNK     1      40.299 -24.832 -13.945  0.00  0.00    -0.253 OA
ATOM     16  C   UNK     1      39.174 -25.311 -13.876  0.00  0.00    +0.295 C 
BRANCH  16  17
ATOM     17  O   UNK     1      38.788 -26.132 -12.863  0.00  0.00    -0.482 OA
ATOM     18  H   UNK     1      39.272 -26.145 -12.061  0.00  0.00    +0.295 HD
ENDBRANCH  16  17
ENDBRANCH  10  16
ENDBRANCH   1  10
TORSDOF 8
ENDMDL
