MODEL 1
REMARK VINA RESULT:     -10.8      0.000      0.000
REMARK  Name = 441407
REMARK  8 active torsions:
REMARK  status: ('A' for Active; 'I' for Inactive)
REMARK    1  A    between atoms: C_6  and  O_21
REMARK    2  A    between atoms: C_6  and  C_26
REMARK    3  A    between atoms: C_9  and  O_23
REMARK    4  A    between atoms: C_26  and  C_27
REMARK    5  A    between atoms: C_27  and  O_28
REMARK    6  A    between atoms: O_28  and  P_29
REMARK    7  A    between atoms: P_29  and  O_31
REMARK    8  A    between atoms: P_29  and  O_33
REMARK                            x       y       z     vdW  Elec       q    Type
REMARK                         _______ _______ _______ _____ _____    ______ ____
ROOT
ATOM      1  O   UNL     1      40.120 -26.276 -14.145  0.00  0.00    -0.291 OA
ATOM      2  C   UNL     1      32.114 -23.672 -14.860  0.00  0.00    +0.031 C 
ATOM      3  C   UNL     1      33.235 -23.591 -15.919  0.00  0.00    +0.003 C 
ATOM      4  C   UNL     1      34.619 -23.289 -15.327  0.00  0.00    +0.003 C 
ATOM      5  C   UNL     1      34.994 -24.423 -14.319  0.00  0.00    +0.030 C 
ATOM      6  C   UNL     1      30.896 -23.912 -15.795  0.00  0.00    +0.141 C 
ATOM      7  C   UNL     1      32.468 -24.827 -13.901  0.00  0.00    +0.032 C 
ATOM      8  C   UNL     1      36.456 -24.264 -13.729  0.00  0.00    +0.018 C 
ATOM      9  C   UNL     1      33.869 -24.682 -13.269  0.00  0.00    +0.111 C 
ATOM     10  C   UNL     1      32.660 -22.645 -16.971  0.00  0.00    +0.003 C 
ATOM     11  C   UNL     1      31.155 -22.983 -17.002  0.00  0.00    +0.034 C 
ATOM     12  C   UNL     1      35.671 -23.199 -16.445  0.00  0.00    +0.004 C 
ATOM     13  C   UNL     1      31.914 -22.346 -14.076  0.00  0.00    +0.003 C 
ATOM     14  C   UNL     1      37.444 -24.044 -14.882  0.00  0.00    -0.042 C 
ATOM     15  C   UNL     1      37.070 -22.984 -15.890  0.00  0.00    +0.022 C 
ATOM     16  C   UNL     1      36.812 -25.574 -12.967  0.00  0.00    +0.012 C 
ATOM     17  C   UNL     1      36.607 -23.066 -12.765  0.00  0.00    +0.004 C 
ATOM     18  C   UNL     1      38.298 -25.732 -12.689  0.00  0.00    +0.069 C 
ATOM     19  C   UNL     1      38.607 -24.703 -15.015  0.00  0.00    +0.029 C 
ATOM     20  C   UNL     1      39.079 -25.646 -13.974  0.00  0.00    +0.173 C 
ENDROOT
BRANCH   6  21
ATOM     21  O   UNL     1      30.849 -25.263 -16.244  0.00  0.00    -0.380 OA
ATOM     22  H   UNL     1      31.644 -25.731 -15.944  0.00  0.00    +0.211 HD
ENDBRANCH   6  21
BRANCH   9  23
ATOM     23  O   UNL     1      33.837 -23.661 -12.281  0.00  0.00    -0.384 OA
ATOM     24  H   UNL     1      33.065 -23.789 -11.707  0.00  0.00    +0.210 HD
ENDBRANCH   9  23
BRANCH   6  26
ATOM     25  O   UNL     1      28.920 -24.611 -14.661  0.00  0.00    -0.291 OA
ATOM     26  C   UNL     1      29.570 -23.680 -15.133  0.00  0.00    +0.205 C 
BRANCH  26  27
ATOM     27  C   UNL     1      29.087 -22.245 -15.083  0.00  0.00    +0.220 C 
BRANCH  27  28
ATOM     28  O   UNL     1      28.689 -21.809 -16.365  0.00  0.00    -0.265 OA
BRANCH  28  29
ATOM     29  P   UNL     1      27.280 -22.341 -16.965  0.00  0.00    +0.473 P 
ATOM     30  O   UNL     1      27.357 -23.654 -17.688  0.00  0.00    -0.227 OA
BRANCH  29  31
ATOM     31  O   UNL     1      26.746 -21.096 -17.848  0.00  0.00    -0.303 OA
ATOM     32  H   UNL     1      27.468 -20.759 -18.401  0.00  0.00    +0.222 HD
ENDBRANCH  29  31
BRANCH  29  33
ATOM     33  O   UNL     1      26.304 -22.328 -15.675  0.00  0.00    -0.303 OA
ATOM     34  H   UNL     1      25.386 -22.445 -15.964  0.00  0.00    +0.222 HD
ENDBRANCH  29  33
ENDBRANCH  28  29
ENDBRANCH  27  28
ENDBRANCH  26  27
ENDBRANCH   6  26
TORSDOF 8
ENDMDL
MODEL 2
REMARK VINA RESULT:      -9.3      2.926      8.439
REMARK  Name = 441407
REMARK  8 active torsions:
REMARK  status: ('A' for Active; 'I' for Inactive)
REMARK    1  A    between atoms: C_6  and  O_21
REMARK    2  A    between atoms: C_6  and  C_26
REMARK    3  A    between atoms: C_9  and  O_23
REMARK    4  A    between atoms: C_26  and  C_27
REMARK    5  A    between atoms: C_27  and  O_28
REMARK    6  A    between atoms: O_28  and  P_29
REMARK    7  A    between atoms: P_29  and  O_31
REMARK    8  A    between atoms: P_29  and  O_33
REMARK                            x       y       z     vdW  Elec       q    Type
REMARK                         _______ _______ _______ _____ _____    ______ ____
ROOT
ATOM      1  O   UNL     1      27.687 -21.653 -16.296  0.00  0.00    -0.291 OA
ATOM      2  C   UNL     1      35.324 -24.220 -13.751  0.00  0.00    +0.031 C 
ATOM      3  C   UNL     1      34.982 -23.301 -14.945  0.00  0.00    +0.003 C 
ATOM      4  C   UNL     1      33.689 -23.694 -15.673  0.00  0.00    +0.003 C 
ATOM      5  C   UNL     1      32.500 -23.627 -14.661  0.00  0.00    +0.030 C 
ATOM      6  C   UNL     1      36.676 -23.586 -13.320  0.00  0.00    +0.141 C 
ATOM      7  C   UNL     1      34.169 -24.107 -12.736  0.00  0.00    +0.032 C 
ATOM      8  C   UNL     1      31.096 -23.912 -15.338  0.00  0.00    +0.018 C 
ATOM      9  C   UNL     1      32.788 -24.424 -13.350  0.00  0.00    +0.111 C 
ATOM     10  C   UNL     1      36.287 -23.247 -15.736  0.00  0.00    +0.003 C 
ATOM     11  C   UNL     1      37.387 -23.264 -14.653  0.00  0.00    +0.034 C 
ATOM     12  C   UNL     1      33.434 -22.750 -16.859  0.00  0.00    +0.004 C 
ATOM     13  C   UNL     1      35.552 -25.700 -14.163  0.00  0.00    +0.003 C 
ATOM     14  C   UNL     1      30.955 -23.038 -16.592  0.00  0.00    -0.042 C 
ATOM     15  C   UNL     1      32.117 -23.057 -17.554  0.00  0.00    +0.022 C 
ATOM     16  C   UNL     1      29.984 -23.552 -14.310  0.00  0.00    +0.012 C 
ATOM     17  C   UNL     1      30.911 -25.380 -15.784  0.00  0.00    +0.004 C 
ATOM     18  C   UNL     1      28.607 -23.395 -14.935  0.00  0.00    +0.069 C 
ATOM     19  C   UNL     1      29.866 -22.307 -16.882  0.00  0.00    +0.029 C 
ATOM     20  C   UNL     1      28.650 -22.372 -16.039  0.00  0.00    +0.173 C 
ENDROOT
BRANCH   6  21
ATOM     21  O   UNL     1      36.470 -22.378 -12.593  0.00  0.00    -0.380 OA
ATOM     22  H   UNL     1      36.387 -22.580 -11.648  0.00  0.00    +0.211 HD
ENDBRANCH   6  21
BRANCH   9  23
ATOM     23  O   UNL     1      32.676 -25.825 -13.560  0.00  0.00    -0.384 OA
ATOM     24  H   UNL     1      33.217 -26.082 -14.323  0.00  0.00    +0.210 HD
ENDBRANCH   9  23
BRANCH   6  26
ATOM     25  O   UNL     1      37.484 -24.274 -11.187  0.00  0.00    -0.291 OA
ATOM     26  C   UNL     1      37.486 -24.454 -12.403  0.00  0.00    +0.205 C 
BRANCH  26  27
ATOM     27  C   UNL     1      38.296 -25.552 -13.060  0.00  0.00    +0.220 C 
BRANCH  27  28
ATOM     28  O   UNL     1      39.639 -25.150 -13.224  0.00  0.00    -0.265 OA
BRANCH  28  29
ATOM     29  P   UNL     1      40.467 -25.707 -14.502  0.00  0.00    +0.473 P 
ATOM     30  O   UNL     1      41.292 -26.932 -14.235  0.00  0.00    -0.227 OA
BRANCH  29  31
ATOM     31  O   UNL     1      41.293 -24.415 -15.015  0.00  0.00    -0.303 OA
ATOM     32  H   UNL     1      41.182 -24.320 -15.974  0.00  0.00    +0.222 HD
ENDBRANCH  29  31
BRANCH  29  33
ATOM     33  O   UNL     1      39.322 -25.887 -15.630  0.00  0.00    -0.303 OA
ATOM     34  H   UNL     1      38.524 -26.259 -15.224  0.00  0.00    +0.222 HD
ENDBRANCH  29  33
ENDBRANCH  28  29
ENDBRANCH  27  28
ENDBRANCH  26  27
ENDBRANCH   6  26
TORSDOF 8
ENDMDL
MODEL 3
REMARK VINA RESULT:      -8.5     13.405     16.198
REMARK  Name = 441407
REMARK  8 active torsions:
REMARK  status: ('A' for Active; 'I' for Inactive)
REMARK    1  A    between atoms: C_6  and  O_21
REMARK    2  A    between atoms: C_6  and  C_26
REMARK    3  A    between atoms: C_9  and  O_23
REMARK    4  A    between atoms: C_26  and  C_27
REMARK    5  A    between atoms: C_27  and  O_28
REMARK    6  A    between atoms: O_28  and  P_29
REMARK    7  A    between atoms: P_29  and  O_31
REMARK    8  A    between atoms: P_29  and  O_33
REMARK                            x       y       z     vdW  Elec       q    Type
REMARK                         _______ _______ _______ _____ _____    ______ ____
ROOT
ATOM      1  O   UNL     1      30.645  -4.617 -23.401  0.00  0.00    -0.291 OA
ATOM      2  C   UNL     1      33.364 -12.617 -23.384  0.00  0.00    +0.031 C 
ATOM      3  C   UNL     1      32.327 -11.967 -22.442  0.00  0.00    +0.003 C 
ATOM      4  C   UNL     1      32.658 -10.513 -22.072  0.00  0.00    +0.003 C 
ATOM      5  C   UNL     1      32.716  -9.662 -23.382  0.00  0.00    +0.030 C 
ATOM      6  C   UNL     1      32.762 -14.046 -23.479  0.00  0.00    +0.141 C 
ATOM      7  C   UNL     1      33.377 -11.800 -24.691  0.00  0.00    +0.032 C 
ATOM      8  C   UNL     1      32.946  -8.119 -23.104  0.00  0.00    +0.018 C 
ATOM      9  C   UNL     1      33.646 -10.296 -24.464  0.00  0.00    +0.111 C 
ATOM     10  C   UNL     1      32.170 -12.994 -21.324  0.00  0.00    +0.003 C 
ATOM     11  C   UNL     1      32.287 -14.356 -22.041  0.00  0.00    +0.034 C 
ATOM     12  C   UNL     1      31.594  -9.950 -21.116  0.00  0.00    +0.004 C 
ATOM     13  C   UNL     1      34.788 -12.694 -22.768  0.00  0.00    +0.003 C 
ATOM     14  C   UNL     1      31.945  -7.643 -22.044  0.00  0.00    -0.042 C 
ATOM     15  C   UNL     1      31.843  -8.485 -20.794  0.00  0.00    +0.022 C 
ATOM     16  C   UNL     1      32.714  -7.350 -24.438  0.00  0.00    +0.012 C 
ATOM     17  C   UNL     1      34.360  -7.790 -22.575  0.00  0.00    +0.004 C 
ATOM     18  C   UNL     1      32.511  -5.856 -24.250  0.00  0.00    +0.069 C 
ATOM     19  C   UNL     1      31.202  -6.529 -22.154  0.00  0.00    +0.029 C 
ATOM     20  C   UNL     1      31.374  -5.601 -23.296  0.00  0.00    +0.173 C 
ENDROOT
BRANCH   6  21
ATOM     21  O   UNL     1      31.642 -14.076 -24.360  0.00  0.00    -0.380 OA
ATOM     22  H   UNL     1      31.413 -13.171 -24.622  0.00  0.00    +0.211 HD
ENDBRANCH   6  21
BRANCH   9  23
ATOM     23  O   UNL     1      35.017 -10.105 -24.146  0.00  0.00    -0.384 OA
ATOM     24  H   UNL     1      35.143 -10.196 -23.188  0.00  0.00    +0.210 HD
ENDBRANCH   9  23
BRANCH   6  26
ATOM     25  O   UNL     1      33.736 -15.337 -25.230  0.00  0.00    -0.291 OA
ATOM     26  C   UNL     1      33.712 -15.068 -24.030  0.00  0.00    +0.205 C 
BRANCH  26  27
ATOM     27  C   UNL     1      34.628 -15.741 -23.029  0.00  0.00    +0.220 C 
BRANCH  27  28
ATOM     28  O   UNL     1      34.518 -17.145 -23.119  0.00  0.00    -0.265 OA
BRANCH  28  29
ATOM     29  P   UNL     1      35.309 -18.058 -22.037  0.00  0.00    +0.473 P 
ATOM     30  O   UNL     1      35.335 -17.504 -20.643  0.00  0.00    -0.227 OA
BRANCH  29  31
ATOM     31  O   UNL     1      36.758 -18.287 -22.717  0.00  0.00    -0.303 OA
ATOM     32  H   UNL     1      37.307 -18.833 -22.132  0.00  0.00    +0.222 HD
ENDBRANCH  29  31
BRANCH  29  33
ATOM     33  O   UNL     1      34.596 -19.502 -22.186  0.00  0.00    -0.303 OA
ATOM     34  H   UNL     1      34.727 -20.012 -21.372  0.00  0.00    +0.222 HD
ENDBRANCH  29  33
ENDBRANCH  28  29
ENDBRANCH  27  28
ENDBRANCH  26  27
ENDBRANCH   6  26
TORSDOF 8
ENDMDL
MODEL 4
REMARK VINA RESULT:      -8.1     14.682     16.913
REMARK  Name = 441407
REMARK  8 active torsions:
REMARK  status: ('A' for Active; 'I' for Inactive)
REMARK    1  A    between atoms: C_6  and  O_21
REMARK    2  A    between atoms: C_6  and  C_26
REMARK    3  A    between atoms: C_9  and  O_23
REMARK    4  A    between atoms: C_26  and  C_27
REMARK    5  A    between atoms: C_27  and  O_28
REMARK    6  A    between atoms: O_28  and  P_29
REMARK    7  A    between atoms: P_29  and  O_31
REMARK    8  A    between atoms: P_29  and  O_33
REMARK                            x       y       z     vdW  Elec       q    Type
REMARK                         _______ _______ _______ _____ _____    ______ ____
ROOT
ATOM      1  O   UNL     1      34.720 -16.819 -20.846  0.00  0.00    -0.291 OA
ATOM      2  C   UNL     1      33.074  -8.985 -23.552  0.00  0.00    +0.031 C 
ATOM      3  C   UNL     1      32.749  -9.599 -22.172  0.00  0.00    +0.003 C 
ATOM      4  C   UNL     1      32.337 -11.077 -22.238  0.00  0.00    +0.003 C 
ATOM      5  C   UNL     1      33.510 -11.899 -22.865  0.00  0.00    +0.030 C 
ATOM      6  C   UNL     1      33.369  -7.523 -23.118  0.00  0.00    +0.141 C 
ATOM      7  C   UNL     1      34.264  -9.771 -24.138  0.00  0.00    +0.032 C 
ATOM      8  C   UNL     1      33.230 -13.459 -22.880  0.00  0.00    +0.018 C 
ATOM      9  C   UNL     1      34.009 -11.292 -24.213  0.00  0.00    +0.111 C 
ATOM     10  C   UNL     1      31.783  -8.591 -21.555  0.00  0.00    +0.003 C 
ATOM     11  C   UNL     1      32.300  -7.222 -22.044  0.00  0.00    +0.034 C 
ATOM     12  C   UNL     1      32.008 -11.603 -20.832  0.00  0.00    +0.004 C 
ATOM     13  C   UNL     1      31.867  -9.003 -24.530  0.00  0.00    +0.003 C 
ATOM     14  C   UNL     1      32.776 -13.903 -21.483  0.00  0.00    -0.042 C 
ATOM     15  C   UNL     1      31.677 -13.087 -20.847  0.00  0.00    +0.022 C 
ATOM     16  C   UNL     1      34.555 -14.181 -23.263  0.00  0.00    +0.012 C 
ATOM     17  C   UNL     1      32.124 -13.878 -23.874  0.00  0.00    +0.004 C 
ATOM     18  C   UNL     1      34.553 -15.666 -22.939  0.00  0.00    +0.069 C 
ATOM     19  C   UNL     1      33.269 -14.971 -20.834  0.00  0.00    +0.029 C 
ATOM     20  C   UNL     1      34.244 -15.880 -21.480  0.00  0.00    +0.173 C 
ENDROOT
BRANCH   6  21
ATOM     21  O   UNL     1      34.665  -7.410 -22.536  0.00  0.00    -0.380 OA
ATOM     22  H   UNL     1      34.895  -8.243 -22.095  0.00  0.00    +0.211 HD
ENDBRANCH   6  21
BRANCH   9  23
ATOM     23  O   UNL     1      33.103 -11.567 -25.272  0.00  0.00    -0.384 OA
ATOM     24  H   UNL     1      32.822 -10.733 -25.682  0.00  0.00    +0.210 HD
ENDBRANCH   9  23
BRANCH   6  26
ATOM     25  O   UNL     1      34.359  -6.398 -24.971  0.00  0.00    -0.291 OA
ATOM     26  C   UNL     1      33.370  -6.543 -24.254  0.00  0.00    +0.205 C 
BRANCH  26  27
ATOM     27  C   UNL     1      32.095  -5.753 -24.460  0.00  0.00    +0.220 C 
BRANCH  27  28
ATOM     28  O   UNL     1      32.335  -4.371 -24.307  0.00  0.00    -0.265 OA
BRANCH  28  29
ATOM     29  P   UNL     1      31.154  -3.439 -23.701  0.00  0.00    +0.473 P 
ATOM     30  O   UNL     1      30.234  -2.840 -24.724  0.00  0.00    -0.227 OA
BRANCH  29  31
ATOM     31  O   UNL     1      31.944  -2.376 -22.774  0.00  0.00    -0.303 OA
ATOM     32  H   UNL     1      32.896  -2.556 -22.816  0.00  0.00    +0.222 HD
ENDBRANCH  29  31
BRANCH  29  33
ATOM     33  O   UNL     1      30.437  -4.411 -22.624  0.00  0.00    -0.303 OA
ATOM     34  H   UNL     1      29.957  -3.874 -21.975  0.00  0.00    +0.222 HD
ENDBRANCH  29  33
ENDBRANCH  28  29
ENDBRANCH  27  28
ENDBRANCH  26  27
ENDBRANCH   6  26
TORSDOF 8
ENDMDL
