MODEL 1
REMARK VINA RESULT:      -8.9      0.000      0.000
REMARK  Name = 448514
REMARK  7 active torsions:
REMARK  status: ('A' for Active; 'I' for Inactive)
REMARK    1  A    between atoms: N_1  and  C_3
REMARK    2  A    between atoms: N_1  and  C_7
REMARK    3  A    between atoms: C_3  and  C_18
REMARK    4  A    between atoms: N_6  and  C_8
REMARK    5  A    between atoms: C_7  and  S_16
REMARK    6  A    between atoms: C_11  and  C_15
REMARK    7  A    between atoms: C_18  and  C_21
REMARK                            x       y       z     vdW  Elec       q    Type
REMARK                         _______ _______ _______ _____ _____    ______ ____
ROOT
ATOM      1  N   UNL     1      34.944 -15.604 -23.302  0.00  0.00    -0.176 NA
ENDROOT
BRANCH   1   3
ATOM      2  N   UNL     1      34.624 -16.539 -25.498  0.00  0.00    -0.388 N 
ATOM      3  C   UNL     1      34.302 -15.738 -24.427  0.00  0.00    +0.106 C 
ATOM      4  H   UNL     1      35.441 -17.089 -25.474  0.00  0.00    +0.157 HD
ATOM      5  H   UNL     1      34.038 -16.564 -26.290  0.00  0.00    +0.157 HD
BRANCH   3   6
ATOM      6  C   UNL     1      33.020 -14.929 -24.563  0.00  0.00    +0.088 C 
BRANCH   6   9
ATOM      7 CL   UNL     1      33.764 -13.709 -27.261  0.00  0.00    -0.083 Cl
ATOM      8 CL   UNL     1      32.807 -13.454 -21.898  0.00  0.00    -0.083 Cl
ATOM      9  C   UNL     1      33.311 -13.450 -24.582  0.00  0.00    +0.006 C 
ATOM     10  C   UNL     1      33.655 -12.830 -25.777  0.00  0.00    +0.055 C 
ATOM     11  C   UNL     1      33.232 -12.717 -23.402  0.00  0.00    +0.055 C 
ATOM     12  C   UNL     1      33.923 -11.461 -25.795  0.00  0.00    +0.011 C 
ATOM     13  C   UNL     1      33.500 -11.348 -23.418  0.00  0.00    +0.011 C 
ATOM     14  C   UNL     1      33.846 -10.722 -24.615  0.00  0.00    +0.002 C 
ENDBRANCH   6   9
ENDBRANCH   3   6
ENDBRANCH   1   3
BRANCH   1  16
ATOM     15  N   UNL     1      35.075 -17.909 -22.788  0.00  0.00    -0.224 NA
ATOM     16  C   UNL     1      34.943 -16.667 -22.431  0.00  0.00    +0.177 C 
BRANCH  15  17
ATOM     17  C   UNL     1      35.058 -18.907 -21.797  0.00  0.00    +0.083 C 
ATOM     18  C   UNL     1      36.249 -19.307 -21.201  0.00  0.00    +0.020 C 
ATOM     19  C   UNL     1      33.850 -19.486 -21.422  0.00  0.00    +0.020 C 
ATOM     20  C   UNL     1      35.024 -20.882 -19.838  0.00  0.00    +0.069 C 
ATOM     21  C   UNL     1      36.233 -20.296 -20.218  0.00  0.00    +0.012 C 
ATOM     22  C   UNL     1      33.833 -20.477 -20.440  0.00  0.00    +0.012 C 
BRANCH  20  24
ATOM     23  N   UNL     1      34.993 -22.721 -18.009  0.00  0.00    -0.191 NA
ATOM     24  C   UNL     1      35.007 -21.895 -18.830  0.00  0.00    +0.100 C 
ENDBRANCH  20  24
ENDBRANCH  15  17
BRANCH  16  25
ATOM     25  S   UNL     1      34.692 -16.331 -20.720  0.00  0.00    -0.106 S 
ATOM     26  H   UNL     1      34.191 -17.438 -20.109  0.00  0.00    +0.110 HD
ENDBRANCH  16  25
ENDBRANCH   1  16
TORSDOF 7
ENDMDL
MODEL 2
REMARK VINA RESULT:      -8.9      0.029      1.898
REMARK  Name = 448514
REMARK  7 active torsions:
REMARK  status: ('A' for Active; 'I' for Inactive)
REMARK    1  A    between atoms: N_1  and  C_3
REMARK    2  A    between atoms: N_1  and  C_7
REMARK    3  A    between atoms: C_3  and  C_18
REMARK    4  A    between atoms: N_6  and  C_8
REMARK    5  A    between atoms: C_7  and  S_16
REMARK    6  A    between atoms: C_11  and  C_15
REMARK    7  A    between atoms: C_18  and  C_21
REMARK                            x       y       z     vdW  Elec       q    Type
REMARK                         _______ _______ _______ _____ _____    ______ ____
ROOT
ATOM      1  N   UNL     1      34.961 -15.608 -23.307  0.00  0.00    -0.176 NA
ENDROOT
BRANCH   1   3
ATOM      2  N   UNL     1      34.647 -16.542 -25.504  0.00  0.00    -0.388 N 
ATOM      3  C   UNL     1      34.320 -15.743 -24.432  0.00  0.00    +0.106 C 
ATOM      4  H   UNL     1      35.465 -17.089 -25.479  0.00  0.00    +0.157 HD
ATOM      5  H   UNL     1      34.062 -16.568 -26.296  0.00  0.00    +0.157 HD
BRANCH   3   6
ATOM      6  C   UNL     1      33.036 -14.938 -24.569  0.00  0.00    +0.088 C 
BRANCH   6   9
ATOM      7 CL   UNL     1      32.819 -13.475 -21.898  0.00  0.00    -0.083 Cl
ATOM      8 CL   UNL     1      33.774 -13.703 -27.262  0.00  0.00    -0.083 Cl
ATOM      9  C   UNL     1      33.322 -13.458 -24.581  0.00  0.00    +0.006 C 
ATOM     10  C   UNL     1      33.243 -12.731 -23.398  0.00  0.00    +0.055 C 
ATOM     11  C   UNL     1      33.664 -12.832 -25.775  0.00  0.00    +0.055 C 
ATOM     12  C   UNL     1      33.508 -11.362 -23.409  0.00  0.00    +0.011 C 
ATOM     13  C   UNL     1      33.929 -11.462 -25.786  0.00  0.00    +0.011 C 
ATOM     14  C   UNL     1      33.850 -10.728 -24.603  0.00  0.00    +0.002 C 
ENDBRANCH   6   9
ENDBRANCH   3   6
ENDBRANCH   1   3
BRANCH   1  16
ATOM     15  N   UNL     1      35.114 -17.911 -22.791  0.00  0.00    -0.224 NA
ATOM     16  C   UNL     1      34.961 -16.671 -22.435  0.00  0.00    +0.177 C 
BRANCH  15  17
ATOM     17  C   UNL     1      35.095 -18.910 -21.800  0.00  0.00    +0.083 C 
ATOM     18  C   UNL     1      36.281 -19.289 -21.181  0.00  0.00    +0.020 C 
ATOM     19  C   UNL     1      33.891 -19.511 -21.449  0.00  0.00    +0.020 C 
ATOM     20  C   UNL     1      35.058 -20.886 -19.842  0.00  0.00    +0.069 C 
ATOM     21  C   UNL     1      36.263 -20.279 -20.198  0.00  0.00    +0.012 C 
ATOM     22  C   UNL     1      33.872 -20.502 -20.468  0.00  0.00    +0.012 C 
BRANCH  20  24
ATOM     23  N   UNL     1      35.024 -22.726 -18.014  0.00  0.00    -0.191 NA
ATOM     24  C   UNL     1      35.039 -21.900 -18.835  0.00  0.00    +0.100 C 
ENDBRANCH  20  24
ENDBRANCH  15  17
BRANCH  16  25
ATOM     25  S   UNL     1      34.681 -16.339 -20.728  0.00  0.00    -0.106 S 
ATOM     26  H   UNL     1      34.390 -17.500 -20.082  0.00  0.00    +0.110 HD
ENDBRANCH  16  25
ENDBRANCH   1  16
TORSDOF 7
ENDMDL
MODEL 3
REMARK VINA RESULT:      -8.9      1.638      2.468
REMARK  Name = 448514
REMARK  7 active torsions:
REMARK  status: ('A' for Active; 'I' for Inactive)
REMARK    1  A    between atoms: N_1  and  C_3
REMARK    2  A    between atoms: N_1  and  C_7
REMARK    3  A    between atoms: C_3  and  C_18
REMARK    4  A    between atoms: N_6  and  C_8
REMARK    5  A    between atoms: C_7  and  S_16
REMARK    6  A    between atoms: C_11  and  C_15
REMARK    7  A    between atoms: C_18  and  C_21
REMARK                            x       y       z     vdW  Elec       q    Type
REMARK                         _______ _______ _______ _____ _____    ______ ____
ROOT
ATOM      1  N   UNL     1      35.118 -16.064 -23.364  0.00  0.00    -0.176 NA
ENDROOT
BRANCH   1   3
ATOM      2  N   UNL     1      34.911 -14.182 -21.876  0.00  0.00    -0.388 N 
ATOM      3  C   UNL     1      34.491 -15.033 -22.873  0.00  0.00    +0.106 C 
ATOM      4  H   UNL     1      35.776 -14.333 -21.432  0.00  0.00    +0.157 HD
ATOM      5  H   UNL     1      34.346 -13.420 -21.608  0.00  0.00    +0.157 HD
BRANCH   3   6
ATOM      6  C   UNL     1      33.142 -14.713 -23.497  0.00  0.00    +0.088 C 
BRANCH   6   9
ATOM      7 CL   UNL     1      33.516 -11.686 -23.369  0.00  0.00    -0.083 Cl
ATOM      8 CL   UNL     1      33.071 -16.430 -26.021  0.00  0.00    -0.083 Cl
ATOM      9  C   UNL     1      33.309 -13.994 -24.812  0.00  0.00    +0.006 C 
ATOM     10  C   UNL     1      33.485 -12.615 -24.825  0.00  0.00    +0.055 C 
ATOM     11  C   UNL     1      33.286 -14.716 -26.000  0.00  0.00    +0.055 C 
ATOM     12  C   UNL     1      33.641 -11.949 -26.041  0.00  0.00    +0.011 C 
ATOM     13  C   UNL     1      33.441 -14.051 -27.217  0.00  0.00    +0.011 C 
ATOM     14  C   UNL     1      33.618 -12.668 -27.236  0.00  0.00    +0.002 C 
ENDBRANCH   6   9
ENDBRANCH   3   6
ENDBRANCH   1   3
BRANCH   1  16
ATOM     15  N   UNL     1      34.778 -17.438 -21.470  0.00  0.00    -0.224 NA
ATOM     16  C   UNL     1      34.938 -17.279 -22.749  0.00  0.00    +0.177 C 
BRANCH  15  17
ATOM     17  C   UNL     1      34.603 -18.739 -20.963  0.00  0.00    +0.083 C 
ATOM     18  C   UNL     1      35.715 -19.516 -20.662  0.00  0.00    +0.020 C 
ATOM     19  C   UNL     1      33.319 -19.236 -20.766  0.00  0.00    +0.020 C 
ATOM     20  C   UNL     1      34.258 -21.310 -19.960  0.00  0.00    +0.069 C 
ATOM     21  C   UNL     1      35.543 -20.806 -20.159  0.00  0.00    +0.012 C 
ATOM     22  C   UNL     1      33.145 -20.525 -20.264  0.00  0.00    +0.012 C 
BRANCH  20  24
ATOM     23  N   UNL     1      33.936 -23.707 -19.023  0.00  0.00    -0.191 NA
ATOM     24  C   UNL     1      34.080 -22.632 -19.444  0.00  0.00    +0.100 C 
ENDBRANCH  20  24
ENDBRANCH  15  17
BRANCH  16  25
ATOM     25  S   UNL     1      34.982 -18.727 -23.753  0.00  0.00    -0.106 S 
ATOM     26  H   UNL     1      34.457 -18.446 -24.976  0.00  0.00    +0.110 HD
ENDBRANCH  16  25
ENDBRANCH   1  16
TORSDOF 7
ENDMDL
MODEL 4
REMARK VINA RESULT:      -8.8      1.653      2.091
REMARK  Name = 448514
REMARK  7 active torsions:
REMARK  status: ('A' for Active; 'I' for Inactive)
REMARK    1  A    between atoms: N_1  and  C_3
REMARK    2  A    between atoms: N_1  and  C_7
REMARK    3  A    between atoms: C_3  and  C_18
REMARK    4  A    between atoms: N_6  and  C_8
REMARK    5  A    between atoms: C_7  and  S_16
REMARK    6  A    between atoms: C_11  and  C_15
REMARK    7  A    between atoms: C_18  and  C_21
REMARK                            x       y       z     vdW  Elec       q    Type
REMARK                         _______ _______ _______ _____ _____    ______ ____
ROOT
ATOM      1  N   UNL     1      35.149 -16.038 -23.320  0.00  0.00    -0.176 NA
ENDROOT
BRANCH   1   3
ATOM      2  N   UNL     1      34.890 -14.148 -21.851  0.00  0.00    -0.388 N 
ATOM      3  C   UNL     1      34.497 -15.017 -22.843  0.00  0.00    +0.106 C 
ATOM      4  H   UNL     1      35.755 -14.277 -21.398  0.00  0.00    +0.157 HD
ATOM      5  H   UNL     1      34.308 -13.396 -21.594  0.00  0.00    +0.157 HD
BRANCH   3   6
ATOM      6  C   UNL     1      33.146 -14.731 -23.481  0.00  0.00    +0.088 C 
BRANCH   6   9
ATOM      7 CL   UNL     1      33.075 -16.491 -25.975  0.00  0.00    -0.083 Cl
ATOM      8 CL   UNL     1      33.516 -11.701 -23.406  0.00  0.00    -0.083 Cl
ATOM      9  C   UNL     1      33.310 -14.035 -24.808  0.00  0.00    +0.006 C 
ATOM     10  C   UNL     1      33.285 -14.777 -25.983  0.00  0.00    +0.055 C 
ATOM     11  C   UNL     1      33.482 -12.655 -24.846  0.00  0.00    +0.055 C 
ATOM     12  C   UNL     1      33.436 -14.132 -27.212  0.00  0.00    +0.011 C 
ATOM     13  C   UNL     1      33.633 -12.010 -26.074  0.00  0.00    +0.011 C 
ATOM     14  C   UNL     1      33.610 -12.750 -27.256  0.00  0.00    +0.002 C 
ENDBRANCH   6   9
ENDBRANCH   3   6
ENDBRANCH   1   3
BRANCH   1  16
ATOM     15  N   UNL     1      34.785 -17.425 -21.438  0.00  0.00    -0.224 NA
ATOM     16  C   UNL     1      34.965 -17.258 -22.714  0.00  0.00    +0.177 C 
BRANCH  15  17
ATOM     17  C   UNL     1      34.609 -18.729 -20.940  0.00  0.00    +0.083 C 
ATOM     18  C   UNL     1      35.721 -19.505 -20.633  0.00  0.00    +0.020 C 
ATOM     19  C   UNL     1      33.324 -19.231 -20.760  0.00  0.00    +0.020 C 
ATOM     20  C   UNL     1      34.261 -21.307 -19.957  0.00  0.00    +0.069 C 
ATOM     21  C   UNL     1      35.547 -20.798 -20.139  0.00  0.00    +0.012 C 
ATOM     22  C   UNL     1      33.150 -20.523 -20.267  0.00  0.00    +0.012 C 
BRANCH  20  24
ATOM     23  N   UNL     1      33.938 -23.711 -19.038  0.00  0.00    -0.191 NA
ATOM     24  C   UNL     1      34.083 -22.632 -19.450  0.00  0.00    +0.100 C 
ENDBRANCH  20  24
ENDBRANCH  15  17
BRANCH  16  25
ATOM     25  S   UNL     1      35.034 -18.700 -23.724  0.00  0.00    -0.106 S 
ATOM     26  H   UNL     1      33.799 -19.268 -23.788  0.00  0.00    +0.110 HD
ENDBRANCH  16  25
ENDBRANCH   1  16
TORSDOF 7
ENDMDL
MODEL 5
REMARK VINA RESULT:      -8.8      1.702      2.157
REMARK  Name = 448514
REMARK  7 active torsions:
REMARK  status: ('A' for Active; 'I' for Inactive)
REMARK    1  A    between atoms: N_1  and  C_3
REMARK    2  A    between atoms: N_1  and  C_7
REMARK    3  A    between atoms: C_3  and  C_18
REMARK    4  A    between atoms: N_6  and  C_8
REMARK    5  A    between atoms: C_7  and  S_16
REMARK    6  A    between atoms: C_11  and  C_15
REMARK    7  A    between atoms: C_18  and  C_21
REMARK                            x       y       z     vdW  Elec       q    Type
REMARK                         _______ _______ _______ _____ _____    ______ ____
ROOT
ATOM      1  N   UNL     1      35.199 -16.172 -23.525  0.00  0.00    -0.176 NA
ENDROOT
BRANCH   1   3
ATOM      2  N   UNL     1      35.106 -14.370 -21.931  0.00  0.00    -0.388 N 
ATOM      3  C   UNL     1      34.673 -15.095 -23.017  0.00  0.00    +0.106 C 
ATOM      4  H   UNL     1      35.898 -14.667 -21.425  0.00  0.00    +0.157 HD
ATOM      5  H   UNL     1      34.626 -13.555 -21.658  0.00  0.00    +0.157 HD
BRANCH   3   6
ATOM      6  C   UNL     1      33.443 -14.553 -23.731  0.00  0.00    +0.088 C 
BRANCH   6   9
ATOM      7 CL   UNL     1      33.807 -11.833 -25.067  0.00  0.00    -0.083 Cl
ATOM      8 CL   UNL     1      32.047 -15.098 -21.070  0.00  0.00    -0.083 Cl
ATOM      9  C   UNL     1      32.877 -13.360 -23.005  0.00  0.00    +0.006 C 
ATOM     10  C   UNL     1      33.006 -12.091 -23.559  0.00  0.00    +0.055 C 
ATOM     11  C   UNL     1      32.228 -13.537 -21.787  0.00  0.00    +0.055 C 
ATOM     12  C   UNL     1      32.481 -10.986 -22.888  0.00  0.00    +0.011 C 
ATOM     13  C   UNL     1      31.703 -12.433 -21.116  0.00  0.00    +0.011 C 
ATOM     14  C   UNL     1      31.831 -11.158 -21.667  0.00  0.00    +0.002 C 
ENDBRANCH   6   9
ENDBRANCH   3   6
ENDBRANCH   1   3
BRANCH   1  16
ATOM     15  N   UNL     1      34.886 -17.476 -21.577  0.00  0.00    -0.224 NA
ATOM     16  C   UNL     1      34.994 -17.361 -22.867  0.00  0.00    +0.177 C 
BRANCH  15  17
ATOM     17  C   UNL     1      34.676 -18.753 -21.024  0.00  0.00    +0.083 C 
ATOM     18  C   UNL     1      35.769 -19.548 -20.694  0.00  0.00    +0.020 C 
ATOM     19  C   UNL     1      33.380 -19.209 -20.811  0.00  0.00    +0.020 C 
ATOM     20  C   UNL     1      34.264 -21.277 -19.930  0.00  0.00    +0.069 C 
ATOM     21  C   UNL     1      35.563 -20.813 -20.145  0.00  0.00    +0.012 C 
ATOM     22  C   UNL     1      33.173 -20.474 -20.264  0.00  0.00    +0.012 C 
BRANCH  20  24
ATOM     23  N   UNL     1      33.879 -23.629 -18.908  0.00  0.00    -0.191 NA
ATOM     24  C   UNL     1      34.052 -22.574 -19.367  0.00  0.00    +0.100 C 
ENDBRANCH  20  24
ENDBRANCH  15  17
BRANCH  16  25
ATOM     25  S   UNL     1      34.927 -18.836 -23.827  0.00  0.00    -0.106 S 
ATOM     26  H   UNL     1      35.753 -19.769 -23.284  0.00  0.00    +0.110 HD
ENDBRANCH  16  25
ENDBRANCH   1  16
TORSDOF 7
ENDMDL
MODEL 6
REMARK VINA RESULT:      -8.6      1.873      2.786
REMARK  Name = 448514
REMARK  7 active torsions:
REMARK  status: ('A' for Active; 'I' for Inactive)
REMARK    1  A    between atoms: N_1  and  C_3
REMARK    2  A    between atoms: N_1  and  C_7
REMARK    3  A    between atoms: C_3  and  C_18
REMARK    4  A    between atoms: N_6  and  C_8
REMARK    5  A    between atoms: C_7  and  S_16
REMARK    6  A    between atoms: C_11  and  C_15
REMARK    7  A    between atoms: C_18  and  C_21
REMARK                            x       y       z     vdW  Elec       q    Type
REMARK                         _______ _______ _______ _____ _____    ______ ____
ROOT
ATOM      1  N   UNL     1      34.955 -16.250 -23.971  0.00  0.00    -0.176 NA
ENDROOT
BRANCH   1   3
ATOM      2  N   UNL     1      32.924 -15.026 -24.388  0.00  0.00    -0.388 N 
ATOM      3  C   UNL     1      34.139 -15.254 -23.782  0.00  0.00    +0.106 C 
ATOM      4  H   UNL     1      32.589 -15.653 -25.070  0.00  0.00    +0.157 HD
ATOM      5  H   UNL     1      32.389 -14.238 -24.140  0.00  0.00    +0.157 HD
BRANCH   3   6
ATOM      6  C   UNL     1      34.566 -14.229 -22.743  0.00  0.00    +0.088 C 
BRANCH   6   9
ATOM      7 CL   UNL     1      32.850 -14.969 -20.328  0.00  0.00    -0.083 Cl
ATOM      8 CL   UNL     1      34.215 -11.786 -24.540  0.00  0.00    -0.083 Cl
ATOM      9  C   UNL     1      33.433 -13.295 -22.404  0.00  0.00    +0.006 C 
ATOM     10  C   UNL     1      32.613 -13.571 -21.315  0.00  0.00    +0.055 C 
ATOM     11  C   UNL     1      33.216 -12.162 -23.182  0.00  0.00    +0.055 C 
ATOM     12  C   UNL     1      31.565 -12.707 -21.001  0.00  0.00    +0.011 C 
ATOM     13  C   UNL     1      32.168 -11.297 -22.868  0.00  0.00    +0.011 C 
ATOM     14  C   UNL     1      31.343 -11.570 -21.778  0.00  0.00    +0.002 C 
ENDBRANCH   6   9
ENDBRANCH   3   6
ENDBRANCH   1   3
BRANCH   1  16
ATOM     15  N   UNL     1      34.717 -17.404 -21.920  0.00  0.00    -0.224 NA
ATOM     16  C   UNL     1      34.771 -17.385 -23.218  0.00  0.00    +0.177 C 
BRANCH  15  17
ATOM     17  C   UNL     1      34.524 -18.634 -21.265  0.00  0.00    +0.083 C 
ATOM     18  C   UNL     1      35.625 -19.400 -20.898  0.00  0.00    +0.020 C 
ATOM     19  C   UNL     1      33.233 -19.074 -20.991  0.00  0.00    +0.020 C 
ATOM     20  C   UNL     1      34.142 -21.067 -19.972  0.00  0.00    +0.069 C 
ATOM     21  C   UNL     1      35.434 -20.619 -20.249  0.00  0.00    +0.012 C 
ATOM     22  C   UNL     1      33.041 -20.294 -20.344  0.00  0.00    +0.012 C 
BRANCH  20  24
ATOM     23  N   UNL     1      33.786 -23.334 -18.763  0.00  0.00    -0.191 NA
ATOM     24  C   UNL     1      33.945 -22.316 -19.306  0.00  0.00    +0.100 C 
ENDBRANCH  20  24
ENDBRANCH  15  17
BRANCH  16  25
ATOM     25  S   UNL     1      34.653 -18.926 -24.063  0.00  0.00    -0.106 S 
ATOM     26  H   UNL     1      35.770 -19.116 -24.817  0.00  0.00    +0.110 HD
ENDBRANCH  16  25
ENDBRANCH   1  16
TORSDOF 7
ENDMDL
MODEL 7
REMARK VINA RESULT:      -8.4      4.507      9.490
REMARK  Name = 448514
REMARK  7 active torsions:
REMARK  status: ('A' for Active; 'I' for Inactive)
REMARK    1  A    between atoms: N_1  and  C_3
REMARK    2  A    between atoms: N_1  and  C_7
REMARK    3  A    between atoms: C_3  and  C_18
REMARK    4  A    between atoms: N_6  and  C_8
REMARK    5  A    between atoms: C_7  and  S_16
REMARK    6  A    between atoms: C_11  and  C_15
REMARK    7  A    between atoms: C_18  and  C_21
REMARK                            x       y       z     vdW  Elec       q    Type
REMARK                         _______ _______ _______ _____ _____    ______ ____
ROOT
ATOM      1  N   UNL     1      34.048 -11.987 -23.633  0.00  0.00    -0.176 NA
ENDROOT
BRANCH   1   3
ATOM      2  N   UNL     1      33.483 -12.815 -25.823  0.00  0.00    -0.388 N 
ATOM      3  C   UNL     1      33.427 -12.791 -24.448  0.00  0.00    +0.106 C 
ATOM      4  H   UNL     1      34.033 -12.155 -26.305  0.00  0.00    +0.157 HD
ATOM      5  H   UNL     1      32.976 -13.493 -26.325  0.00  0.00    +0.157 HD
BRANCH   3   6
ATOM      6  C   UNL     1      32.552 -13.853 -23.799  0.00  0.00    +0.088 C 
BRANCH   6   9
ATOM      7 CL   UNL     1      34.253 -16.091 -24.991  0.00  0.00    -0.083 Cl
ATOM      8 CL   UNL     1      32.298 -13.143 -20.840  0.00  0.00    -0.083 Cl
ATOM      9  C   UNL     1      33.346 -14.691 -22.830  0.00  0.00    +0.006 C 
ATOM     10  C   UNL     1      34.143 -15.726 -23.306  0.00  0.00    +0.055 C 
ATOM     11  C   UNL     1      33.276 -14.421 -21.467  0.00  0.00    +0.055 C 
ATOM     12  C   UNL     1      34.878 -16.501 -22.409  0.00  0.00    +0.011 C 
ATOM     13  C   UNL     1      34.011 -15.197 -20.569  0.00  0.00    +0.011 C 
ATOM     14  C   UNL     1      34.811 -16.237 -21.042  0.00  0.00    +0.002 C 
ENDBRANCH   6   9
ENDBRANCH   3   6
ENDBRANCH   1   3
BRANCH   1  16
ATOM     15  N   UNL     1      32.442 -10.382 -22.971  0.00  0.00    -0.224 NA
ATOM     16  C   UNL     1      33.578 -10.701 -23.514  0.00  0.00    +0.177 C 
BRANCH  15  17
ATOM     17  C   UNL     1      32.074  -9.026 -22.910  0.00  0.00    +0.083 C 
ATOM     18  C   UNL     1      32.428  -8.265 -21.800  0.00  0.00    +0.020 C 
ATOM     19  C   UNL     1      31.360  -8.457 -23.959  0.00  0.00    +0.020 C 
ATOM     20  C   UNL     1      31.346  -6.344 -22.788  0.00  0.00    +0.069 C 
ATOM     21  C   UNL     1      32.064  -6.920 -21.739  0.00  0.00    +0.012 C 
ATOM     22  C   UNL     1      30.995  -7.112 -23.898  0.00  0.00    +0.012 C 
BRANCH  20  24
ATOM     23  N   UNL     1      30.670  -3.843 -22.675  0.00  0.00    -0.191 NA
ATOM     24  C   UNL     1      30.974  -4.965 -22.726  0.00  0.00    +0.100 C 
ENDBRANCH  20  24
ENDBRANCH  15  17
BRANCH  16  25
ATOM     25  S   UNL     1      34.554  -9.400 -24.192  0.00  0.00    -0.106 S 
ATOM     26  H   UNL     1      35.758  -9.360 -23.560  0.00  0.00    +0.110 HD
ENDBRANCH  16  25
ENDBRANCH   1  16
TORSDOF 7
ENDMDL
MODEL 8
REMARK VINA RESULT:      -8.4      4.511      9.681
REMARK  Name = 448514
REMARK  7 active torsions:
REMARK  status: ('A' for Active; 'I' for Inactive)
REMARK    1  A    between atoms: N_1  and  C_3
REMARK    2  A    between atoms: N_1  and  C_7
REMARK    3  A    between atoms: C_3  and  C_18
REMARK    4  A    between atoms: N_6  and  C_8
REMARK    5  A    between atoms: C_7  and  S_16
REMARK    6  A    between atoms: C_11  and  C_15
REMARK    7  A    between atoms: C_18  and  C_21
REMARK                            x       y       z     vdW  Elec       q    Type
REMARK                         _______ _______ _______ _____ _____    ______ ____
ROOT
ATOM      1  N   UNL     1      34.047 -11.981 -23.624  0.00  0.00    -0.176 NA
ENDROOT
BRANCH   1   3
ATOM      2  N   UNL     1      33.486 -12.807 -25.815  0.00  0.00    -0.388 N 
ATOM      3  C   UNL     1      33.427 -12.784 -24.440  0.00  0.00    +0.106 C 
ATOM      4  H   UNL     1      34.035 -12.145 -26.295  0.00  0.00    +0.157 HD
ATOM      5  H   UNL     1      32.980 -13.485 -26.319  0.00  0.00    +0.157 HD
BRANCH   3   6
ATOM      6  C   UNL     1      32.553 -13.848 -23.794  0.00  0.00    +0.088 C 
BRANCH   6   9
ATOM      7 CL   UNL     1      32.306 -13.144 -20.833  0.00  0.00    -0.083 Cl
ATOM      8 CL   UNL     1      34.248 -16.085 -24.994  0.00  0.00    -0.083 Cl
ATOM      9  C   UNL     1      33.347 -14.689 -22.828  0.00  0.00    +0.006 C 
ATOM     10  C   UNL     1      33.279 -14.424 -21.465  0.00  0.00    +0.055 C 
ATOM     11  C   UNL     1      34.141 -15.726 -23.308  0.00  0.00    +0.055 C 
ATOM     12  C   UNL     1      34.014 -15.203 -20.571  0.00  0.00    +0.011 C 
ATOM     13  C   UNL     1      34.876 -16.506 -22.415  0.00  0.00    +0.011 C 
ATOM     14  C   UNL     1      34.812 -16.243 -21.046  0.00  0.00    +0.002 C 
ENDBRANCH   6   9
ENDBRANCH   3   6
ENDBRANCH   1   3
BRANCH   1  16
ATOM     15  N   UNL     1      32.443 -10.374 -22.960  0.00  0.00    -0.224 NA
ATOM     16  C   UNL     1      33.577 -10.694 -23.507  0.00  0.00    +0.177 C 
BRANCH  15  17
ATOM     17  C   UNL     1      32.076  -9.017 -22.902  0.00  0.00    +0.083 C 
ATOM     18  C   UNL     1      31.363  -8.450 -23.953  0.00  0.00    +0.020 C 
ATOM     19  C   UNL     1      32.428  -8.253 -21.794  0.00  0.00    +0.020 C 
ATOM     20  C   UNL     1      31.350  -6.334 -22.788  0.00  0.00    +0.069 C 
ATOM     21  C   UNL     1      30.999  -7.105 -23.897  0.00  0.00    +0.012 C 
ATOM     22  C   UNL     1      32.065  -6.908 -21.737  0.00  0.00    +0.012 C 
BRANCH  20  24
ATOM     23  N   UNL     1      30.671  -3.833 -22.681  0.00  0.00    -0.191 NA
ATOM     24  C   UNL     1      30.976  -4.955 -22.729  0.00  0.00    +0.100 C 
ENDBRANCH  20  24
ENDBRANCH  15  17
BRANCH  16  25
ATOM     25  S   UNL     1      34.551  -9.395 -24.192  0.00  0.00    -0.106 S 
ATOM     26  H   UNL     1      35.528  -9.925 -24.975  0.00  0.00    +0.110 HD
ENDBRANCH  16  25
ENDBRANCH   1  16
TORSDOF 7
ENDMDL
MODEL 9
REMARK VINA RESULT:      -8.3      1.348      2.438
REMARK  Name = 448514
REMARK  7 active torsions:
REMARK  status: ('A' for Active; 'I' for Inactive)
REMARK    1  A    between atoms: N_1  and  C_3
REMARK    2  A    between atoms: N_1  and  C_7
REMARK    3  A    between atoms: C_3  and  C_18
REMARK    4  A    between atoms: N_6  and  C_8
REMARK    5  A    between atoms: C_7  and  S_16
REMARK    6  A    between atoms: C_11  and  C_15
REMARK    7  A    between atoms: C_18  and  C_21
REMARK                            x       y       z     vdW  Elec       q    Type
REMARK                         _______ _______ _______ _____ _____    ______ ____
ROOT
ATOM      1  N   UNL     1      34.809 -16.197 -23.583  0.00  0.00    -0.176 NA
ENDROOT
BRANCH   1   3
ATOM      2  N   UNL     1      34.889 -14.400 -21.981  0.00  0.00    -0.388 N 
ATOM      3  C   UNL     1      34.342 -15.120 -23.019  0.00  0.00    +0.106 C 
ATOM      4  H   UNL     1      35.727 -14.700 -21.562  0.00  0.00    +0.157 HD
ATOM      5  H   UNL     1      34.442 -13.584 -21.659  0.00  0.00    +0.157 HD
BRANCH   3   6
ATOM      6  C   UNL     1      33.047 -14.572 -23.600  0.00  0.00    +0.088 C 
BRANCH   6   9
ATOM      7 CL   UNL     1      32.043 -12.850 -21.287  0.00  0.00    -0.083 Cl
ATOM      8 CL   UNL     1      34.191 -13.570 -26.248  0.00  0.00    -0.083 Cl
ATOM      9  C   UNL     1      33.124 -13.078 -23.783  0.00  0.00    +0.006 C 
ATOM     10  C   UNL     1      32.685 -12.235 -22.769  0.00  0.00    +0.055 C 
ATOM     11  C   UNL     1      33.635 -12.554 -24.967  0.00  0.00    +0.055 C 
ATOM     12  C   UNL     1      32.756 -10.852 -22.938  0.00  0.00    +0.011 C 
ATOM     13  C   UNL     1      33.706 -11.171 -25.137  0.00  0.00    +0.011 C 
ATOM     14  C   UNL     1      33.266 -10.321 -24.122  0.00  0.00    +0.002 C 
ENDBRANCH   6   9
ENDBRANCH   3   6
ENDBRANCH   1   3
BRANCH   1  16
ATOM     15  N   UNL     1      34.558 -17.486 -21.616  0.00  0.00    -0.224 NA
ATOM     16  C   UNL     1      34.679 -17.385 -22.905  0.00  0.00    +0.177 C 
BRANCH  15  17
ATOM     17  C   UNL     1      34.432 -18.764 -21.042  0.00  0.00    +0.083 C 
ATOM     18  C   UNL     1      35.572 -19.505 -20.751  0.00  0.00    +0.020 C 
ATOM     19  C   UNL     1      33.167 -19.277 -20.771  0.00  0.00    +0.020 C 
ATOM     20  C   UNL     1      34.182 -21.293 -19.909  0.00  0.00    +0.069 C 
ATOM     21  C   UNL     1      35.448 -20.773 -20.183  0.00  0.00    +0.012 C 
ATOM     22  C   UNL     1      33.042 -20.544 -20.203  0.00  0.00    +0.012 C 
BRANCH  20  24
ATOM     23  N   UNL     1      33.949 -23.648 -18.849  0.00  0.00    -0.191 NA
ATOM     24  C   UNL     1      34.054 -22.591 -19.325  0.00  0.00    +0.100 C 
ENDBRANCH  20  24
ENDBRANCH  15  17
BRANCH  16  25
ATOM     25  S   UNL     1      34.732 -18.878 -23.840  0.00  0.00    -0.106 S 
ATOM     26  H   UNL     1      33.755 -18.856 -24.786  0.00  0.00    +0.110 HD
ENDBRANCH  16  25
ENDBRANCH   1  16
TORSDOF 7
ENDMDL
