MODEL 1
REMARK VINA RESULT:     -11.7      0.000      0.000
REMARK  Name = 25243828
REMARK  6 active torsions:
REMARK  status: ('A' for Active; 'I' for Inactive)
REMARK    1  A    between atoms: C_1  and  C_18
REMARK    2  A    between atoms: C_4  and  O_7
REMARK    3  A    between atoms: O_7  and  C_9
REMARK    4  A    between atoms: C_11  and  C_17
REMARK    5  A    between atoms: C_18  and  C_21
REMARK    6  A    between atoms: C_26  and  O_27
REMARK                            x       y       z     vdW  Elec       q    Type
REMARK                         _______ _______ _______ _____ _____    ______ ____
ROOT
ATOM      1  C   UNL     1      33.933 -23.478 -15.110  0.00  0.00    -0.019 C 
ATOM      2  C   UNL     1      34.134 -23.535 -16.489  0.00  0.00    +0.033 C 
ATOM      3  C   UNL     1      32.670 -23.180 -14.600  0.00  0.00    -0.004 C 
ATOM      4  C   UNL     1      33.070 -23.292 -17.359  0.00  0.00    +0.147 C 
ATOM      5  C   UNL     1      31.606 -22.937 -15.469  0.00  0.00    +0.003 C 
ATOM      6  C   UNL     1      31.806 -22.994 -16.849  0.00  0.00    +0.038 C 
ENDROOT
BRANCH   4   7
ATOM      7  O   UNL     1      33.265 -23.344 -18.705  0.00  0.00    -0.436 OA
BRANCH   7   9
ATOM      8  N   UNL     1      32.762 -21.362 -19.828  0.00  0.00    -0.210 NA
ATOM      9  C   UNL     1      33.708 -22.194 -19.337  0.00  0.00    +0.230 C 
ATOM     10  C   UNL     1      35.070 -21.961 -19.430  0.00  0.00    +0.058 C 
ATOM     11  C   UNL     1      34.546 -19.917 -20.585  0.00  0.00    +0.091 C 
ATOM     12  C   UNL     1      35.489 -20.797 -20.067  0.00  0.00    +0.010 C 
ATOM     13  C   UNL     1      33.207 -20.242 -20.441  0.00  0.00    +0.106 C 
BRANCH  11  17
ATOM     14  F   UNL     1      34.118 -17.611 -21.059  0.00  0.00    -0.166 F 
ATOM     15  F   UNL     1      36.196 -18.214 -20.893  0.00  0.00    -0.166 F 
ATOM     16  F   UNL     1      35.030 -18.805 -22.630  0.00  0.00    -0.166 F 
ATOM     17  C   UNL     1      34.962 -18.666 -21.273  0.00  0.00    +0.420 C 
ENDBRANCH  11  17
ENDBRANCH   7   9
ENDBRANCH   4   7
BRANCH   1  18
ATOM     18  C   UNL     1      35.079 -23.738 -14.171  0.00  0.00    +0.027 C 
BRANCH  18  21
ATOM     19  O   UNL     1      41.187 -24.472 -14.532  0.00  0.00    -0.226 OA
ATOM     20  N   UNL     1      39.029 -25.248 -14.925  0.00  0.00    -0.246 N 
ATOM     21  C   UNL     1      36.262 -24.383 -14.891  0.00  0.00    +0.008 C 
ATOM     22  C   UNL     1      37.423 -23.387 -15.037  0.00  0.00    +0.022 C 
ATOM     23  C   UNL     1      36.728 -25.647 -14.150  0.00  0.00    +0.022 C 
ATOM     24  C   UNL     1      38.644 -24.050 -15.675  0.00  0.00    +0.097 C 
ATOM     25  C   UNL     1      37.962 -26.252 -14.817  0.00  0.00    +0.097 C 
ATOM     26  C   UNL     1      40.324 -25.341 -14.405  0.00  0.00    +0.402 C 
BRANCH  26  27
ATOM     27  O   UNL     1      40.618 -26.477 -13.710  0.00  0.00    -0.466 OA
ATOM     28  H   UNL     1      40.045 -26.770 -13.029  0.00  0.00    +0.297 HD
ENDBRANCH  26  27
ENDBRANCH  18  21
ENDBRANCH   1  18
TORSDOF 6
ENDMDL
MODEL 2
REMARK VINA RESULT:     -11.3      3.686      5.522
REMARK  Name = 25243828
REMARK  6 active torsions:
REMARK  status: ('A' for Active; 'I' for Inactive)
REMARK    1  A    between atoms: C_1  and  C_18
REMARK    2  A    between atoms: C_4  and  O_7
REMARK    3  A    between atoms: O_7  and  C_9
REMARK    4  A    between atoms: C_11  and  C_17
REMARK    5  A    between atoms: C_18  and  C_21
REMARK    6  A    between atoms: C_26  and  O_27
REMARK                            x       y       z     vdW  Elec       q    Type
REMARK                         _______ _______ _______ _____ _____    ______ ____
ROOT
ATOM      1  C   UNL     1      34.713 -20.994 -19.993  0.00  0.00    -0.019 C 
ATOM      2  C   UNL     1      35.473 -20.033 -20.658  0.00  0.00    +0.033 C 
ATOM      3  C   UNL     1      33.326 -20.861 -19.923  0.00  0.00    -0.004 C 
ATOM      4  C   UNL     1      34.847 -18.937 -21.253  0.00  0.00    +0.147 C 
ATOM      5  C   UNL     1      32.699 -19.765 -20.518  0.00  0.00    +0.003 C 
ATOM      6  C   UNL     1      33.460 -18.804 -21.184  0.00  0.00    +0.038 C 
ENDROOT
BRANCH   4   7
ATOM      7  O   UNL     1      35.589 -17.997 -21.900  0.00  0.00    -0.436 OA
BRANCH   7   9
ATOM      8  N   UNL     1      34.504 -16.066 -22.632  0.00  0.00    -0.210 NA
ATOM      9  C   UNL     1      34.983 -17.295 -22.928  0.00  0.00    +0.230 C 
ATOM     10  C   UNL     1      34.903 -17.877 -24.183  0.00  0.00    +0.058 C 
ATOM     11  C   UNL     1      33.788 -15.882 -24.933  0.00  0.00    +0.091 C 
ATOM     12  C   UNL     1      34.293 -17.149 -25.200  0.00  0.00    +0.010 C 
ATOM     13  C   UNL     1      33.917 -15.389 -23.645  0.00  0.00    +0.106 C 
BRANCH  11  17
ATOM     14  F   UNL     1      32.378 -14.041 -25.523  0.00  0.00    -0.166 F 
ATOM     15  F   UNL     1      34.005 -14.508 -26.880  0.00  0.00    -0.166 F 
ATOM     16  F   UNL     1      32.275 -15.821 -26.767  0.00  0.00    -0.166 F 
ATOM     17  C   UNL     1      33.128 -15.080 -25.999  0.00  0.00    +0.420 C 
ENDBRANCH  11  17
ENDBRANCH   7   9
ENDBRANCH   4   7
BRANCH   1  18
ATOM     18  C   UNL     1      35.386 -22.175 -19.349  0.00  0.00    +0.027 C 
BRANCH  18  21
ATOM     19  O   UNL     1      36.167 -24.759 -13.810  0.00  0.00    -0.226 OA
ATOM     20  N   UNL     1      36.410 -22.948 -15.250  0.00  0.00    -0.246 N 
ATOM     21  C   UNL     1      35.553 -21.977 -17.844  0.00  0.00    +0.008 C 
ATOM     22  C   UNL     1      34.746 -23.024 -17.061  0.00  0.00    +0.022 C 
ATOM     23  C   UNL     1      37.037 -22.035 -17.447  0.00  0.00    +0.022 C 
ATOM     24  C   UNL     1      34.978 -22.892 -15.557  0.00  0.00    +0.097 C 
ATOM     25  C   UNL     1      37.207 -21.919 -15.933  0.00  0.00    +0.097 C 
ATOM     26  C   UNL     1      36.880 -23.923 -14.365  0.00  0.00    +0.402 C 
BRANCH  26  27
ATOM     27  O   UNL     1      38.223 -23.929 -14.127  0.00  0.00    -0.466 OA
ATOM     28  H   UNL     1      38.772 -23.286 -14.529  0.00  0.00    +0.297 HD
ENDBRANCH  26  27
ENDBRANCH  18  21
ENDBRANCH   1  18
TORSDOF 6
ENDMDL
MODEL 3
REMARK VINA RESULT:     -11.2      3.423      5.980
REMARK  Name = 25243828
REMARK  6 active torsions:
REMARK  status: ('A' for Active; 'I' for Inactive)
REMARK    1  A    between atoms: C_1  and  C_18
REMARK    2  A    between atoms: C_4  and  O_7
REMARK    3  A    between atoms: O_7  and  C_9
REMARK    4  A    between atoms: C_11  and  C_17
REMARK    5  A    between atoms: C_18  and  C_21
REMARK    6  A    between atoms: C_26  and  O_27
REMARK                            x       y       z     vdW  Elec       q    Type
REMARK                         _______ _______ _______ _____ _____    ______ ____
ROOT
ATOM      1  C   UNL     1      33.477 -24.000 -14.785  0.00  0.00    -0.019 C 
ATOM      2  C   UNL     1      33.150 -24.035 -16.140  0.00  0.00    +0.033 C 
ATOM      3  C   UNL     1      34.627 -23.334 -14.360  0.00  0.00    -0.004 C 
ATOM      4  C   UNL     1      33.975 -23.404 -17.072  0.00  0.00    +0.147 C 
ATOM      5  C   UNL     1      35.451 -22.703 -15.293  0.00  0.00    +0.003 C 
ATOM      6  C   UNL     1      35.125 -22.737 -16.649  0.00  0.00    +0.038 C 
ENDROOT
BRANCH   4   7
ATOM      7  O   UNL     1      33.658 -23.439 -18.396  0.00  0.00    -0.436 OA
BRANCH   7   9
ATOM      8  N   UNL     1      32.815 -21.567 -19.502  0.00  0.00    -0.210 NA
ATOM      9  C   UNL     1      33.894 -22.299 -19.145  0.00  0.00    +0.230 C 
ATOM     10  C   UNL     1      35.198 -21.974 -19.482  0.00  0.00    +0.058 C 
ATOM     11  C   UNL     1      34.323 -20.043 -20.618  0.00  0.00    +0.091 C 
ATOM     12  C   UNL     1      35.408 -20.821 -20.232  0.00  0.00    +0.010 C 
ATOM     13  C   UNL     1      33.058 -20.455 -20.231  0.00  0.00    +0.106 C 
BRANCH  11  17
ATOM     14  F   UNL     1      35.760 -18.255 -21.297  0.00  0.00    -0.166 F 
ATOM     15  F   UNL     1      34.345 -18.993 -22.767  0.00  0.00    -0.166 F 
ATOM     16  F   UNL     1      33.643 -17.812 -21.082  0.00  0.00    -0.166 F 
ATOM     17  C   UNL     1      34.515 -18.806 -21.423  0.00  0.00    +0.420 C 
ENDBRANCH  11  17
ENDBRANCH   7   9
ENDBRANCH   4   7
BRANCH   1  18
ATOM     18  C   UNL     1      32.591 -24.682 -13.779  0.00  0.00    +0.027 C 
BRANCH  18  21
ATOM     19  O   UNL     1      28.293 -21.987 -17.277  0.00  0.00    -0.226 OA
ATOM     20  N   UNL     1      28.890 -23.488 -15.603  0.00  0.00    -0.246 N 
ATOM     21  C   UNL     1      31.132 -24.256 -13.933  0.00  0.00    +0.008 C 
ATOM     22  C   UNL     1      31.034 -22.861 -14.572  0.00  0.00    +0.022 C 
ATOM     23  C   UNL     1      30.348 -25.284 -14.765  0.00  0.00    +0.022 C 
ATOM     24  C   UNL     1      29.578 -22.464 -14.813  0.00  0.00    +0.097 C 
ATOM     25  C   UNL     1      28.909 -24.824 -14.993  0.00  0.00    +0.097 C 
ATOM     26  C   UNL     1      28.289 -23.127 -16.813  0.00  0.00    +0.402 C 
BRANCH  26  27
ATOM     27  O   UNL     1      27.672 -24.127 -17.506  0.00  0.00    -0.466 OA
ATOM     28  H   UNL     1      27.940 -24.323 -18.381  0.00  0.00    +0.297 HD
ENDBRANCH  26  27
ENDBRANCH  18  21
ENDBRANCH   1  18
TORSDOF 6
ENDMDL
MODEL 4
REMARK VINA RESULT:     -11.1      6.005     11.498
REMARK  Name = 25243828
REMARK  6 active torsions:
REMARK  status: ('A' for Active; 'I' for Inactive)
REMARK    1  A    between atoms: C_1  and  C_18
REMARK    2  A    between atoms: C_4  and  O_7
REMARK    3  A    between atoms: O_7  and  C_9
REMARK    4  A    between atoms: C_11  and  C_17
REMARK    5  A    between atoms: C_18  and  C_21
REMARK    6  A    between atoms: C_26  and  O_27
REMARK                            x       y       z     vdW  Elec       q    Type
REMARK                         _______ _______ _______ _____ _____    ______ ____
ROOT
ATOM      1  C   UNL     1      34.170 -16.416 -24.611  0.00  0.00    -0.019 C 
ATOM      2  C   UNL     1      34.686 -16.601 -23.329  0.00  0.00    +0.033 C 
ATOM      3  C   UNL     1      34.076 -17.497 -25.489  0.00  0.00    -0.004 C 
ATOM      4  C   UNL     1      35.112 -17.867 -22.924  0.00  0.00    +0.147 C 
ATOM      5  C   UNL     1      34.501 -18.762 -25.084  0.00  0.00    +0.003 C 
ATOM      6  C   UNL     1      35.019 -18.948 -23.801  0.00  0.00    +0.038 C 
ENDROOT
BRANCH   4   7
ATOM      7  O   UNL     1      35.619 -18.048 -21.674  0.00  0.00    -0.436 OA
BRANCH   7   9
ATOM      8  N   UNL     1      36.125 -19.913 -20.369  0.00  0.00    -0.210 NA
ATOM      9  C   UNL     1      35.179 -19.145 -20.953  0.00  0.00    +0.230 C 
ATOM     10  C   UNL     1      33.818 -19.392 -20.869  0.00  0.00    +0.058 C 
ATOM     11  C   UNL     1      34.346 -21.313 -19.521  0.00  0.00    +0.091 C 
ATOM     12  C   UNL     1      33.402 -20.499 -20.137  0.00  0.00    +0.010 C 
ATOM     13  C   UNL     1      35.683 -20.980 -19.666  0.00  0.00    +0.106 C 
BRANCH  11  17
ATOM     14  F   UNL     1      34.761 -22.785 -17.681  0.00  0.00    -0.166 F 
ATOM     15  F   UNL     1      32.686 -22.394 -18.180  0.00  0.00    -0.166 F 
ATOM     16  F   UNL     1      33.897 -23.648 -19.480  0.00  0.00    -0.166 F 
ATOM     17  C   UNL     1      33.932 -22.505 -18.732  0.00  0.00    +0.420 C 
ENDBRANCH  11  17
ENDBRANCH   7   9
ENDBRANCH   4   7
BRANCH   1  18
ATOM     18  C   UNL     1      33.713 -15.052 -25.050  0.00  0.00    +0.027 C 
BRANCH  18  21
ATOM     19  O   UNL     1      31.240  -9.965 -22.604  0.00  0.00    -0.226 OA
ATOM     20  N   UNL     1      32.308 -12.017 -22.354  0.00  0.00    -0.246 N 
ATOM     21  C   UNL     1      33.673 -14.069 -23.882  0.00  0.00    +0.008 C 
ATOM     22  C   UNL     1      33.554 -12.623 -24.388  0.00  0.00    +0.022 C 
ATOM     23  C   UNL     1      32.515 -14.401 -22.927  0.00  0.00    +0.022 C 
ATOM     24  C   UNL     1      33.423 -11.638 -23.226  0.00  0.00    +0.097 C 
ATOM     25  C   UNL     1      32.418 -13.373 -21.800  0.00  0.00    +0.097 C 
ATOM     26  C   UNL     1      31.281 -11.097 -22.121  0.00  0.00    +0.402 C 
BRANCH  26  27
ATOM     27  O   UNL     1      30.267 -11.512 -21.308  0.00  0.00    -0.466 OA
ATOM     28  H   UNL     1      30.132 -11.097 -20.480  0.00  0.00    +0.297 HD
ENDBRANCH  26  27
ENDBRANCH  18  21
ENDBRANCH   1  18
TORSDOF 6
ENDMDL
MODEL 5
REMARK VINA RESULT:     -11.1      4.913      9.626
REMARK  Name = 25243828
REMARK  6 active torsions:
REMARK  status: ('A' for Active; 'I' for Inactive)
REMARK    1  A    between atoms: C_1  and  C_18
REMARK    2  A    between atoms: C_4  and  O_7
REMARK    3  A    between atoms: O_7  and  C_9
REMARK    4  A    between atoms: C_11  and  C_17
REMARK    5  A    between atoms: C_18  and  C_21
REMARK    6  A    between atoms: C_26  and  O_27
REMARK                            x       y       z     vdW  Elec       q    Type
REMARK                         _______ _______ _______ _____ _____    ______ ____
ROOT
ATOM      1  C   UNL     1      34.549 -20.041 -20.471  0.00  0.00    -0.019 C 
ATOM      2  C   UNL     1      34.040 -21.239 -19.972  0.00  0.00    +0.033 C 
ATOM      3  C   UNL     1      35.906 -19.749 -20.337  0.00  0.00    -0.004 C 
ATOM      4  C   UNL     1      34.888 -22.146 -19.336  0.00  0.00    +0.147 C 
ATOM      5  C   UNL     1      36.755 -20.656 -19.702  0.00  0.00    +0.003 C 
ATOM      6  C   UNL     1      36.246 -21.855 -19.202  0.00  0.00    +0.038 C 
ENDROOT
BRANCH   4   7
ATOM      7  O   UNL     1      34.393 -23.315 -18.846  0.00  0.00    -0.436 OA
BRANCH   7   9
ATOM      8  N   UNL     1      32.298 -23.021 -17.862  0.00  0.00    -0.210 NA
ATOM      9  C   UNL     1      33.619 -23.256 -17.699  0.00  0.00    +0.230 C 
ATOM     10  C   UNL     1      34.229 -23.439 -16.468  0.00  0.00    +0.058 C 
ATOM     11  C   UNL     1      32.066 -23.138 -15.459  0.00  0.00    +0.091 C 
ATOM     12  C   UNL     1      33.429 -23.378 -15.331  0.00  0.00    +0.010 C 
ATOM     13  C   UNL     1      31.553 -22.968 -16.735  0.00  0.00    +0.106 C 
BRANCH  11  17
ATOM     14  F   UNL     1      30.684 -24.276 -13.872  0.00  0.00    -0.166 F 
ATOM     15  F   UNL     1      31.808 -22.566 -13.151  0.00  0.00    -0.166 F 
ATOM     16  F   UNL     1      30.094 -22.267 -14.455  0.00  0.00    -0.166 F 
ATOM     17  C   UNL     1      31.185 -23.065 -14.262  0.00  0.00    +0.420 C 
ENDBRANCH  11  17
ENDBRANCH   7   9
ENDBRANCH   4   7
BRANCH   1  18
ATOM     18  C   UNL     1      33.635 -19.061 -21.155  0.00  0.00    +0.027 C 
BRANCH  18  21
ATOM     19  O   UNL     1      33.735 -15.804 -26.385  0.00  0.00    -0.226 OA
ATOM     20  N   UNL     1      34.461 -16.148 -24.201  0.00  0.00    -0.246 N 
ATOM     21  C   UNL     1      34.407 -18.116 -22.072  0.00  0.00    +0.008 C 
ATOM     22  C   UNL     1      34.218 -18.507 -23.546  0.00  0.00    +0.022 C 
ATOM     23  C   UNL     1      33.975 -16.658 -21.844  0.00  0.00    +0.022 C 
ATOM     24  C   UNL     1      34.913 -17.514 -24.477  0.00  0.00    +0.097 C 
ATOM     25  C   UNL     1      34.683 -15.715 -22.815  0.00  0.00    +0.097 C 
ATOM     26  C   UNL     1      33.891 -15.397 -25.234  0.00  0.00    +0.402 C 
BRANCH  26  27
ATOM     27  O   UNL     1      33.482 -14.136 -24.911  0.00  0.00    -0.466 OA
ATOM     28  H   UNL     1      32.609 -13.863 -25.109  0.00  0.00    +0.297 HD
ENDBRANCH  26  27
ENDBRANCH  18  21
ENDBRANCH   1  18
TORSDOF 6
ENDMDL
MODEL 6
REMARK VINA RESULT:     -11.1      3.579      5.492
REMARK  Name = 25243828
REMARK  6 active torsions:
REMARK  status: ('A' for Active; 'I' for Inactive)
REMARK    1  A    between atoms: C_1  and  C_18
REMARK    2  A    between atoms: C_4  and  O_7
REMARK    3  A    between atoms: O_7  and  C_9
REMARK    4  A    between atoms: C_11  and  C_17
REMARK    5  A    between atoms: C_18  and  C_21
REMARK    6  A    between atoms: C_26  and  O_27
REMARK                            x       y       z     vdW  Elec       q    Type
REMARK                         _______ _______ _______ _____ _____    ______ ____
ROOT
ATOM      1  C   UNL     1      34.651 -21.073 -19.909  0.00  0.00    -0.019 C 
ATOM      2  C   UNL     1      35.480 -20.105 -20.475  0.00  0.00    +0.033 C 
ATOM      3  C   UNL     1      33.265 -20.926 -19.966  0.00  0.00    -0.004 C 
ATOM      4  C   UNL     1      34.923 -18.988 -21.098  0.00  0.00    +0.147 C 
ATOM      5  C   UNL     1      32.708 -19.809 -20.590  0.00  0.00    +0.003 C 
ATOM      6  C   UNL     1      33.537 -18.840 -21.156  0.00  0.00    +0.038 C 
ENDROOT
BRANCH   4   7
ATOM      7  O   UNL     1      35.731 -18.042 -21.649  0.00  0.00    -0.436 OA
BRANCH   7   9
ATOM      8  N   UNL     1      34.938 -16.933 -23.542  0.00  0.00    -0.210 NA
ATOM      9  C   UNL     1      35.129 -16.925 -22.204  0.00  0.00    +0.230 C 
ATOM     10  C   UNL     1      34.761 -15.878 -21.374  0.00  0.00    +0.058 C 
ATOM     11  C   UNL     1      33.942 -14.741 -23.328  0.00  0.00    +0.091 C 
ATOM     12  C   UNL     1      34.156 -14.769 -21.955  0.00  0.00    +0.010 C 
ATOM     13  C   UNL     1      34.347 -15.838 -24.071  0.00  0.00    +0.106 C 
BRANCH  11  17
ATOM     14  F   UNL     1      34.178 -12.579 -24.325  0.00  0.00    -0.166 F 
ATOM     15  F   UNL     1      32.640 -13.875 -25.139  0.00  0.00    -0.166 F 
ATOM     16  F   UNL     1      32.369 -12.964 -23.183  0.00  0.00    -0.166 F 
ATOM     17  C   UNL     1      33.299 -13.568 -23.980  0.00  0.00    +0.420 C 
ENDBRANCH  11  17
ENDBRANCH   7   9
ENDBRANCH   4   7
BRANCH   1  18
ATOM     18  C   UNL     1      35.250 -22.277 -19.234  0.00  0.00    +0.027 C 
BRANCH  18  21
ATOM     19  O   UNL     1      36.191 -24.710 -13.652  0.00  0.00    -0.226 OA
ATOM     20  N   UNL     1      36.397 -22.941 -15.148  0.00  0.00    -0.246 N 
ATOM     21  C   UNL     1      35.464 -22.038 -17.742  0.00  0.00    +0.008 C 
ATOM     22  C   UNL     1      34.678 -23.059 -16.905  0.00  0.00    +0.022 C 
ATOM     23  C   UNL     1      36.960 -22.092 -17.388  0.00  0.00    +0.022 C 
ATOM     24  C   UNL     1      34.957 -22.886 -15.412  0.00  0.00    +0.097 C 
ATOM     25  C   UNL     1      37.176 -21.936 -15.884  0.00  0.00    +0.097 C 
ATOM     26  C   UNL     1      36.890 -23.893 -14.252  0.00  0.00    +0.402 C 
BRANCH  26  27
ATOM     27  O   UNL     1      38.240 -23.900 -14.055  0.00  0.00    -0.466 OA
ATOM     28  H   UNL     1      38.589 -24.103 -13.210  0.00  0.00    +0.297 HD
ENDBRANCH  26  27
ENDBRANCH  18  21
ENDBRANCH   1  18
TORSDOF 6
ENDMDL
MODEL 7
REMARK VINA RESULT:     -11.0      4.980      8.773
REMARK  Name = 25243828
REMARK  6 active torsions:
REMARK  status: ('A' for Active; 'I' for Inactive)
REMARK    1  A    between atoms: C_1  and  C_18
REMARK    2  A    between atoms: C_4  and  O_7
REMARK    3  A    between atoms: O_7  and  C_9
REMARK    4  A    between atoms: C_11  and  C_17
REMARK    5  A    between atoms: C_18  and  C_21
REMARK    6  A    between atoms: C_26  and  O_27
REMARK                            x       y       z     vdW  Elec       q    Type
REMARK                         _______ _______ _______ _____ _____    ______ ____
ROOT
ATOM      1  C   UNL     1      35.024 -17.922 -22.604  0.00  0.00    -0.019 C 
ATOM      2  C   UNL     1      34.958 -16.548 -22.837  0.00  0.00    +0.033 C 
ATOM      3  C   UNL     1      34.739 -18.819 -23.634  0.00  0.00    -0.004 C 
ATOM      4  C   UNL     1      34.605 -16.071 -24.099  0.00  0.00    +0.147 C 
ATOM      5  C   UNL     1      34.386 -18.341 -24.897  0.00  0.00    +0.003 C 
ATOM      6  C   UNL     1      34.320 -16.967 -25.130  0.00  0.00    +0.038 C 
ENDROOT
BRANCH   4   7
ATOM      7  O   UNL     1      34.538 -14.731 -24.327  0.00  0.00    -0.436 OA
BRANCH   7   9
ATOM      8  N   UNL     1      33.627 -12.657 -23.767  0.00  0.00    -0.210 NA
ATOM      9  C   UNL     1      33.748 -13.972 -23.478  0.00  0.00    +0.230 C 
ATOM     10  C   UNL     1      33.135 -14.589 -22.400  0.00  0.00    +0.058 C 
ATOM     11  C   UNL     1      32.197 -12.449 -21.830  0.00  0.00    +0.091 C 
ATOM     12  C   UNL     1      32.345 -13.806 -21.565  0.00  0.00    +0.010 C 
ATOM     13  C   UNL     1      32.852 -11.927 -22.933  0.00  0.00    +0.106 C 
BRANCH  11  17
ATOM     14  F   UNL     1      31.681 -10.257 -21.021  0.00  0.00    -0.166 F 
ATOM     15  F   UNL     1      30.024 -11.639 -21.242  0.00  0.00    -0.166 F 
ATOM     16  F   UNL     1      31.460 -11.915 -19.633  0.00  0.00    -0.166 F 
ATOM     17  C   UNL     1      31.360 -11.584 -20.954  0.00  0.00    +0.420 C 
ENDBRANCH  11  17
ENDBRANCH   7   9
ENDBRANCH   4   7
BRANCH   1  18
ATOM     18  C   UNL     1      35.402 -18.438 -21.243  0.00  0.00    +0.027 C 
BRANCH  18  21
ATOM     19  O   UNL     1      34.485 -23.117 -17.340  0.00  0.00    -0.226 OA
ATOM     20  N   UNL     1      33.989 -22.013 -19.327  0.00  0.00    -0.246 N 
ATOM     21  C   UNL     1      34.950 -19.883 -21.044  0.00  0.00    +0.008 C 
ATOM     22  C   UNL     1      35.877 -20.616 -20.061  0.00  0.00    +0.022 C 
ATOM     23  C   UNL     1      33.494 -19.937 -20.550  0.00  0.00    +0.022 C 
ATOM     24  C   UNL     1      35.381 -22.035 -19.785  0.00  0.00    +0.097 C 
ATOM     25  C   UNL     1      33.061 -21.375 -20.270  0.00  0.00    +0.097 C 
ATOM     26  C   UNL     1      33.669 -22.584 -18.091  0.00  0.00    +0.402 C 
BRANCH  26  27
ATOM     27  O   UNL     1      32.358 -22.524 -17.717  0.00  0.00    -0.466 OA
ATOM     28  H   UNL     1      31.914 -21.700 -17.702  0.00  0.00    +0.297 HD
ENDBRANCH  26  27
ENDBRANCH  18  21
ENDBRANCH   1  18
TORSDOF 6
ENDMDL
MODEL 8
REMARK VINA RESULT:     -10.7      5.056      9.562
REMARK  Name = 25243828
REMARK  6 active torsions:
REMARK  status: ('A' for Active; 'I' for Inactive)
REMARK    1  A    between atoms: C_1  and  C_18
REMARK    2  A    between atoms: C_4  and  O_7
REMARK    3  A    between atoms: O_7  and  C_9
REMARK    4  A    between atoms: C_11  and  C_17
REMARK    5  A    between atoms: C_18  and  C_21
REMARK    6  A    between atoms: C_26  and  O_27
REMARK                            x       y       z     vdW  Elec       q    Type
REMARK                         _______ _______ _______ _____ _____    ______ ____
ROOT
ATOM      1  C   UNL     1      34.619 -20.894 -19.853  0.00  0.00    -0.019 C 
ATOM      2  C   UNL     1      34.001 -21.756 -18.947  0.00  0.00    +0.033 C 
ATOM      3  C   UNL     1      35.998 -20.692 -19.795  0.00  0.00    -0.004 C 
ATOM      4  C   UNL     1      34.762 -22.414 -17.980  0.00  0.00    +0.147 C 
ATOM      5  C   UNL     1      36.759 -21.350 -18.828  0.00  0.00    +0.003 C 
ATOM      6  C   UNL     1      36.142 -22.212 -17.921  0.00  0.00    +0.038 C 
ENDROOT
BRANCH   4   7
ATOM      7  O   UNL     1      34.160 -23.253 -17.094  0.00  0.00    -0.436 OA
BRANCH   7   9
ATOM      8  N   UNL     1      35.247 -24.958 -15.932  0.00  0.00    -0.210 NA
ATOM      9  C   UNL     1      34.892 -23.655 -15.989  0.00  0.00    +0.230 C 
ATOM     10  C   UNL     1      35.215 -22.720 -15.020  0.00  0.00    +0.058 C 
ATOM     11  C   UNL     1      36.338 -24.482 -13.828  0.00  0.00    +0.091 C 
ATOM     12  C   UNL     1      35.954 -23.149 -13.922  0.00  0.00    +0.010 C 
ATOM     13  C   UNL     1      35.963 -25.339 -14.850  0.00  0.00    +0.106 C 
BRANCH  11  17
ATOM     14  F   UNL     1      36.739 -24.430 -11.470  0.00  0.00    -0.166 F 
ATOM     15  F   UNL     1      37.050 -26.325 -12.480  0.00  0.00    -0.166 F 
ATOM     16  F   UNL     1      38.459 -24.695 -12.774  0.00  0.00    -0.166 F 
ATOM     17  C   UNL     1      37.126 -24.972 -12.665  0.00  0.00    +0.420 C 
ENDBRANCH  11  17
ENDBRANCH   7   9
ENDBRANCH   4   7
BRANCH   1  18
ATOM     18  C   UNL     1      33.799 -20.182 -20.894  0.00  0.00    +0.027 C 
BRANCH  18  21
ATOM     19  O   UNL     1      34.313 -16.471 -25.786  0.00  0.00    -0.226 OA
ATOM     20  N   UNL     1      34.814 -16.981 -23.572  0.00  0.00    -0.246 N 
ATOM     21  C   UNL     1      34.622 -19.132 -21.637  0.00  0.00    +0.008 C 
ATOM     22  C   UNL     1      34.611 -19.397 -23.150  0.00  0.00    +0.022 C 
ATOM     23  C   UNL     1      34.101 -17.717 -21.335  0.00  0.00    +0.022 C 
ATOM     24  C   UNL     1      35.355 -18.300 -23.911  0.00  0.00    +0.097 C 
ATOM     25  C   UNL     1      34.866 -16.666 -22.138  0.00  0.00    +0.097 C 
ATOM     26  C   UNL     1      34.325 -16.162 -24.594  0.00  0.00    +0.402 C 
BRANCH  26  27
ATOM     27  O   UNL     1      33.826 -14.951 -24.214  0.00  0.00    -0.466 OA
ATOM     28  H   UNL     1      33.927 -14.661 -23.329  0.00  0.00    +0.297 HD
ENDBRANCH  26  27
ENDBRANCH  18  21
ENDBRANCH   1  18
TORSDOF 6
ENDMDL
MODEL 9
REMARK VINA RESULT:     -10.6      6.678     10.327
REMARK  Name = 25243828
REMARK  6 active torsions:
REMARK  status: ('A' for Active; 'I' for Inactive)
REMARK    1  A    between atoms: C_1  and  C_18
REMARK    2  A    between atoms: C_4  and  O_7
REMARK    3  A    between atoms: O_7  and  C_9
REMARK    4  A    between atoms: C_11  and  C_17
REMARK    5  A    between atoms: C_18  and  C_21
REMARK    6  A    between atoms: C_26  and  O_27
REMARK                            x       y       z     vdW  Elec       q    Type
REMARK                         _______ _______ _______ _____ _____    ______ ____
ROOT
ATOM      1  C   UNL     1      34.306 -16.017 -22.339  0.00  0.00    -0.019 C 
ATOM      2  C   UNL     1      33.498 -14.912 -22.074  0.00  0.00    +0.033 C 
ATOM      3  C   UNL     1      34.554 -16.401 -23.658  0.00  0.00    -0.004 C 
ATOM      4  C   UNL     1      32.936 -14.191 -23.128  0.00  0.00    +0.147 C 
ATOM      5  C   UNL     1      33.991 -15.680 -24.711  0.00  0.00    +0.003 C 
ATOM      6  C   UNL     1      33.183 -14.574 -24.446  0.00  0.00    +0.038 C 
ENDROOT
BRANCH   4   7
ATOM      7  O   UNL     1      32.145 -13.114 -22.870  0.00  0.00    -0.436 OA
BRANCH   7   9
ATOM      8  N   UNL     1      32.110 -10.818 -22.455  0.00  0.00    -0.210 NA
ATOM      9  C   UNL     1      32.668 -11.856 -23.119  0.00  0.00    +0.230 C 
ATOM     10  C   UNL     1      33.716 -11.729 -24.015  0.00  0.00    +0.058 C 
ATOM     11  C   UNL     1      33.678  -9.364 -23.581  0.00  0.00    +0.091 C 
ATOM     12  C   UNL     1      34.226 -10.456 -24.245  0.00  0.00    +0.010 C 
ATOM     13  C   UNL     1      32.632  -9.596 -22.704  0.00  0.00    +0.106 C 
BRANCH  11  17
ATOM     14  F   UNL     1      35.132  -7.595 -22.887  0.00  0.00    -0.166 F 
ATOM     15  F   UNL     1      34.811  -7.825 -25.020  0.00  0.00    -0.166 F 
ATOM     16  F   UNL     1      33.222  -7.037 -23.762  0.00  0.00    -0.166 F 
ATOM     17  C   UNL     1      34.201  -7.989 -23.807  0.00  0.00    +0.420 C 
ENDBRANCH  11  17
ENDBRANCH   7   9
ENDBRANCH   4   7
BRANCH   1  18
ATOM     18  C   UNL     1      34.911 -16.797 -21.205  0.00  0.00    +0.027 C 
BRANCH  18  21
ATOM     19  O   UNL     1      35.013 -22.395 -18.630  0.00  0.00    -0.226 OA
ATOM     20  N   UNL     1      34.191 -20.918 -20.228  0.00  0.00    -0.246 N 
ATOM     21  C   UNL     1      34.686 -18.298 -21.370  0.00  0.00    +0.008 C 
ATOM     22  C   UNL     1      35.791 -19.099 -20.663  0.00  0.00    +0.022 C 
ATOM     23  C   UNL     1      33.303 -18.705 -20.836  0.00  0.00    +0.022 C 
ATOM     24  C   UNL     1      35.525 -20.602 -20.745  0.00  0.00    +0.097 C 
ATOM     25  C   UNL     1      33.102 -20.217 -20.922  0.00  0.00    +0.097 C 
ATOM     26  C   UNL     1      34.066 -21.826 -19.172  0.00  0.00    +0.402 C 
BRANCH  26  27
ATOM     27  O   UNL     1      32.799 -22.071 -18.730  0.00  0.00    -0.466 OA
ATOM     28  H   UNL     1      32.250 -22.671 -19.194  0.00  0.00    +0.297 HD
ENDBRANCH  26  27
ENDBRANCH  18  21
ENDBRANCH   1  18
TORSDOF 6
ENDMDL
