MODEL 1
REMARK VINA RESULT:      -8.7      0.000      0.000
REMARK  Name = 71621331
REMARK  6 active torsions:
REMARK  status: ('A' for Active; 'I' for Inactive)
REMARK    1  A    between atoms: N_1  and  C_12
REMARK    2  A    between atoms: C_7  and  C_22
REMARK    3  A    between atoms: C_16  and  C_17
REMARK    4  A    between atoms: C_23  and  C_24
REMARK    5  A    between atoms: C_27  and  O_30
REMARK    6  A    between atoms: C_28  and  O_32
REMARK                            x       y       z     vdW  Elec       q    Type
REMARK                         _______ _______ _______ _____ _____    ______ ____
ROOT
ATOM      1  N   UNL     1      34.634 -14.920 -22.568  0.00  0.00    -0.198 N 
ATOM      2  N   UNL     1      34.478 -13.596 -22.377  0.00  0.00    -0.172 NA
ATOM      3  N   UNL     1      34.262 -16.599 -24.272  0.00  0.00    -0.231 NA
ATOM      4  N   UNL     1      33.308 -15.633 -26.299  0.00  0.00    -0.234 NA
ATOM      5  C   UNL     1      34.229 -15.343 -23.799  0.00  0.00    +0.137 C 
ATOM      6  C   UNL     1      33.777 -14.216 -24.462  0.00  0.00    +0.158 C 
ATOM      7  C   UNL     1      33.957 -13.174 -23.534  0.00  0.00    +0.131 C 
ATOM      8  C   UNL     1      33.304 -14.391 -25.759  0.00  0.00    +0.112 C 
ATOM      9  C   UNL     1      33.780 -16.646 -25.533  0.00  0.00    +0.252 C 
ATOM     10  N   UNL     1      32.822 -13.305 -26.510  0.00  0.00    -0.346 N 
ATOM     11  H   UNL     1      32.492 -13.449 -27.426  0.00  0.00    +0.143 HD
ATOM     12  H   UNL     1      32.815 -12.401 -26.120  0.00  0.00    +0.143 HD
ENDROOT
BRANCH   1  15
ATOM     13  O   UNL     1      34.790 -19.913 -22.526  0.00  0.00    -0.270 OA
ATOM     14  N   UNL     1      34.259 -17.953 -21.417  0.00  0.00    -0.274 N 
ATOM     15  C   UNL     1      35.212 -15.774 -21.454  0.00  0.00    +0.119 C 
ATOM     16  C   UNL     1      34.244 -15.887 -20.267  0.00  0.00    +0.045 C 
ATOM     17  C   UNL     1      35.481 -17.247 -21.786  0.00  0.00    +0.116 C 
ATOM     18  C   UNL     1      33.393 -17.108 -20.598  0.00  0.00    +0.096 C 
ATOM     19  C   UNL     1      34.019 -19.248 -21.835  0.00  0.00    +0.249 C 
BRANCH  19  20
ATOM     20  C   UNL     1      32.740 -19.853 -21.414  0.00  0.00    +0.058 C 
ATOM     21  C   UNL     1      32.719 -20.622 -20.323  0.00  0.00    +0.005 C 
ENDBRANCH  19  20
ENDBRANCH   1  15
BRANCH   7  22
ATOM     22  C   UNL     1      33.664 -11.787 -23.669  0.00  0.00    -0.042 C 
ATOM     23  C   UNL     1      33.418 -10.617 -23.783  0.00  0.00    -0.058 C 
BRANCH  23  24
ATOM     24  C   UNL     1      33.125  -9.224 -23.918  0.00  0.00    +0.048 C 
ATOM     25  C   UNL     1      34.035  -8.378 -24.552  0.00  0.00    +0.045 C 
ATOM     26  C   UNL     1      31.928  -8.711 -23.418  0.00  0.00    +0.045 C 
ATOM     27  C   UNL     1      31.641  -7.353 -23.552  0.00  0.00    +0.142 C 
ATOM     28  C   UNL     1      33.749  -7.020 -24.684  0.00  0.00    +0.142 C 
ATOM     29  C   UNL     1      32.551  -6.506 -24.185  0.00  0.00    +0.074 C 
BRANCH  27  30
ATOM     30  O   UNL     1      30.473  -6.852 -23.065  0.00  0.00    -0.471 OA
ATOM     31  C   UNL     1      30.556  -5.674 -22.264  0.00  0.00    +0.252 C 
ENDBRANCH  27  30
BRANCH  28  32
ATOM     32  O   UNL     1      34.638  -6.195 -25.304  0.00  0.00    -0.471 OA
ATOM     33  C   UNL     1      34.133  -5.366 -26.350  0.00  0.00    +0.252 C 
ENDBRANCH  28  32
ENDBRANCH  23  24
ENDBRANCH   7  22
TORSDOF 6
ENDMDL
MODEL 2
REMARK VINA RESULT:      -8.7      0.027      2.032
REMARK  Name = 71621331
REMARK  6 active torsions:
REMARK  status: ('A' for Active; 'I' for Inactive)
REMARK    1  A    between atoms: N_1  and  C_12
REMARK    2  A    between atoms: C_7  and  C_22
REMARK    3  A    between atoms: C_16  and  C_17
REMARK    4  A    between atoms: C_23  and  C_24
REMARK    5  A    between atoms: C_27  and  O_30
REMARK    6  A    between atoms: C_28  and  O_32
REMARK                            x       y       z     vdW  Elec       q    Type
REMARK                         _______ _______ _______ _____ _____    ______ ____
ROOT
ATOM      1  N   UNL     1      34.632 -14.906 -22.551  0.00  0.00    -0.198 N 
ATOM      2  N   UNL     1      34.478 -13.582 -22.362  0.00  0.00    -0.172 NA
ATOM      3  N   UNL     1      34.262 -16.586 -24.256  0.00  0.00    -0.231 NA
ATOM      4  N   UNL     1      33.317 -15.619 -26.286  0.00  0.00    -0.234 NA
ATOM      5  C   UNL     1      34.230 -15.330 -23.783  0.00  0.00    +0.137 C 
ATOM      6  C   UNL     1      33.783 -14.202 -24.449  0.00  0.00    +0.158 C 
ATOM      7  C   UNL     1      33.962 -13.160 -23.520  0.00  0.00    +0.131 C 
ATOM      8  C   UNL     1      33.313 -14.377 -25.747  0.00  0.00    +0.112 C 
ATOM      9  C   UNL     1      33.784 -16.633 -25.518  0.00  0.00    +0.252 C 
ATOM     10  N   UNL     1      32.837 -13.290 -26.500  0.00  0.00    -0.346 N 
ATOM     11  H   UNL     1      32.508 -13.434 -27.418  0.00  0.00    +0.143 HD
ATOM     12  H   UNL     1      32.830 -12.386 -26.111  0.00  0.00    +0.143 HD
ENDROOT
BRANCH   1  15
ATOM     13  O   UNL     1      34.777 -19.900 -22.506  0.00  0.00    -0.270 OA
ATOM     14  N   UNL     1      34.247 -17.939 -21.400  0.00  0.00    -0.274 N 
ATOM     15  C   UNL     1      35.205 -15.761 -21.435  0.00  0.00    +0.119 C 
ATOM     16  C   UNL     1      34.233 -15.872 -20.251  0.00  0.00    +0.045 C 
ATOM     17  C   UNL     1      35.471 -17.235 -21.765  0.00  0.00    +0.116 C 
ATOM     18  C   UNL     1      33.380 -17.091 -20.585  0.00  0.00    +0.096 C 
ATOM     19  C   UNL     1      34.006 -19.233 -21.818  0.00  0.00    +0.249 C 
BRANCH  19  20
ATOM     20  C   UNL     1      32.724 -19.835 -21.401  0.00  0.00    +0.058 C 
ATOM     21  C   UNL     1      32.697 -20.603 -20.309  0.00  0.00    +0.005 C 
ENDBRANCH  19  20
ENDBRANCH   1  15
BRANCH   7  22
ATOM     22  C   UNL     1      33.673 -11.773 -23.658  0.00  0.00    -0.042 C 
ATOM     23  C   UNL     1      33.429 -10.602 -23.774  0.00  0.00    -0.058 C 
BRANCH  23  24
ATOM     24  C   UNL     1      33.140  -9.209 -23.912  0.00  0.00    +0.048 C 
ATOM     25  C   UNL     1      31.948  -8.689 -23.404  0.00  0.00    +0.045 C 
ATOM     26  C   UNL     1      34.049  -8.367 -24.553  0.00  0.00    +0.045 C 
ATOM     27  C   UNL     1      33.767  -7.008 -24.687  0.00  0.00    +0.142 C 
ATOM     28  C   UNL     1      31.667  -7.331 -23.538  0.00  0.00    +0.142 C 
ATOM     29  C   UNL     1      32.576  -6.489 -24.179  0.00  0.00    +0.074 C 
BRANCH  27  30
ATOM     30  O   UNL     1      34.655  -6.187 -25.312  0.00  0.00    -0.471 OA
ATOM     31  C   UNL     1      34.143  -5.340 -26.340  0.00  0.00    +0.252 C 
ENDBRANCH  27  30
BRANCH  28  32
ATOM     32  O   UNL     1      30.504  -6.825 -23.041  0.00  0.00    -0.471 OA
ATOM     33  C   UNL     1      30.599  -5.647 -22.242  0.00  0.00    +0.252 C 
ENDBRANCH  28  32
ENDBRANCH  23  24
ENDBRANCH   7  22
TORSDOF 6
ENDMDL
MODEL 3
REMARK VINA RESULT:      -8.7      7.245     11.203
REMARK  Name = 71621331
REMARK  6 active torsions:
REMARK  status: ('A' for Active; 'I' for Inactive)
REMARK    1  A    between atoms: N_1  and  C_12
REMARK    2  A    between atoms: C_7  and  C_22
REMARK    3  A    between atoms: C_16  and  C_17
REMARK    4  A    between atoms: C_23  and  C_24
REMARK    5  A    between atoms: C_27  and  O_30
REMARK    6  A    between atoms: C_28  and  O_32
REMARK                            x       y       z     vdW  Elec       q    Type
REMARK                         _______ _______ _______ _____ _____    ______ ____
ROOT
ATOM      1  N   UNL     1      32.419 -23.707 -16.373  0.00  0.00    -0.198 N 
ATOM      2  N   UNL     1      32.227 -22.865 -17.406  0.00  0.00    -0.172 NA
ATOM      3  N   UNL     1      34.215 -24.561 -14.993  0.00  0.00    -0.231 NA
ATOM      4  N   UNL     1      36.374 -23.630 -15.643  0.00  0.00    -0.234 NA
ATOM      5  C   UNL     1      33.722 -23.805 -15.986  0.00  0.00    +0.137 C 
ATOM      6  C   UNL     1      34.435 -22.967 -16.826  0.00  0.00    +0.158 C 
ATOM      7  C   UNL     1      33.457 -22.418 -17.677  0.00  0.00    +0.131 C 
ATOM      8  C   UNL     1      35.810 -22.892 -16.629  0.00  0.00    +0.112 C 
ATOM      9  C   UNL     1      35.554 -24.408 -14.897  0.00  0.00    +0.252 C 
ATOM     10  N   UNL     1      36.617 -22.070 -17.434  0.00  0.00    -0.346 N 
ATOM     11  H   UNL     1      37.589 -22.031 -17.279  0.00  0.00    +0.143 HD
ATOM     12  H   UNL     1      36.211 -21.534 -18.153  0.00  0.00    +0.143 HD
ENDROOT
BRANCH   1  15
ATOM     13  O   UNL     1      27.728 -23.523 -18.084  0.00  0.00    -0.270 OA
ATOM     14  N   UNL     1      29.173 -23.357 -16.285  0.00  0.00    -0.274 N 
ATOM     15  C   UNL     1      31.230 -24.432 -15.767  0.00  0.00    +0.119 C 
ATOM     16  C   UNL     1      30.704 -23.709 -14.518  0.00  0.00    +0.045 C 
ATOM     17  C   UNL     1      29.969 -24.528 -16.633  0.00  0.00    +0.116 C 
ATOM     18  C   UNL     1      29.674 -22.728 -15.065  0.00  0.00    +0.096 C 
ATOM     19  C   UNL     1      28.106 -22.950 -17.063  0.00  0.00    +0.249 C 
BRANCH  19  20
ATOM     20  C   UNL     1      27.387 -21.740 -16.620  0.00  0.00    +0.058 C 
ATOM     21  C   UNL     1      26.282 -21.371 -17.272  0.00  0.00    +0.005 C 
ENDBRANCH  19  20
ENDBRANCH   1  15
BRANCH   7  22
ATOM     22  C   UNL     1      33.612 -21.487 -18.743  0.00  0.00    -0.042 C 
ATOM     23  C   UNL     1      33.743 -20.701 -19.642  0.00  0.00    -0.058 C 
BRANCH  23  24
ATOM     24  C   UNL     1      33.899 -19.767 -20.712  0.00  0.00    +0.048 C 
ATOM     25  C   UNL     1      33.588 -18.420 -20.515  0.00  0.00    +0.045 C 
ATOM     26  C   UNL     1      34.365 -20.199 -21.954  0.00  0.00    +0.045 C 
ATOM     27  C   UNL     1      34.519 -19.287 -22.998  0.00  0.00    +0.142 C 
ATOM     28  C   UNL     1      33.741 -17.510 -21.559  0.00  0.00    +0.142 C 
ATOM     29  C   UNL     1      34.207 -17.941 -22.801  0.00  0.00    +0.074 C 
BRANCH  27  30
ATOM     30  O   UNL     1      34.974 -19.709 -24.209  0.00  0.00    -0.471 OA
ATOM     31  C   UNL     1      34.578 -18.950 -25.351  0.00  0.00    +0.252 C 
ENDBRANCH  27  30
BRANCH  28  32
ATOM     32  O   UNL     1      33.437 -16.196 -21.365  0.00  0.00    -0.471 OA
ATOM     33  C   UNL     1      34.451 -15.374 -20.788  0.00  0.00    +0.252 C 
ENDBRANCH  28  32
ENDBRANCH  23  24
ENDBRANCH   7  22
TORSDOF 6
ENDMDL
MODEL 4
REMARK VINA RESULT:      -8.6      7.285     11.094
REMARK  Name = 71621331
REMARK  6 active torsions:
REMARK  status: ('A' for Active; 'I' for Inactive)
REMARK    1  A    between atoms: N_1  and  C_12
REMARK    2  A    between atoms: C_7  and  C_22
REMARK    3  A    between atoms: C_16  and  C_17
REMARK    4  A    between atoms: C_23  and  C_24
REMARK    5  A    between atoms: C_27  and  O_30
REMARK    6  A    between atoms: C_28  and  O_32
REMARK                            x       y       z     vdW  Elec       q    Type
REMARK                         _______ _______ _______ _____ _____    ______ ____
ROOT
ATOM      1  N   UNL     1      32.604 -23.733 -16.432  0.00  0.00    -0.198 N 
ATOM      2  N   UNL     1      32.395 -22.900 -17.469  0.00  0.00    -0.172 NA
ATOM      3  N   UNL     1      34.415 -24.529 -15.036  0.00  0.00    -0.231 NA
ATOM      4  N   UNL     1      36.549 -23.535 -15.673  0.00  0.00    -0.234 NA
ATOM      5  C   UNL     1      33.907 -23.790 -16.035  0.00  0.00    +0.137 C 
ATOM      6  C   UNL     1      34.600 -22.934 -16.872  0.00  0.00    +0.158 C 
ATOM      7  C   UNL     1      33.613 -22.417 -17.732  0.00  0.00    +0.131 C 
ATOM      8  C   UNL     1      35.971 -22.817 -16.665  0.00  0.00    +0.112 C 
ATOM      9  C   UNL     1      35.747 -24.335 -14.930  0.00  0.00    +0.252 C 
ATOM     10  N   UNL     1      36.759 -21.973 -17.466  0.00  0.00    -0.346 N 
ATOM     11  H   UNL     1      37.728 -21.904 -17.304  0.00  0.00    +0.143 HD
ATOM     12  H   UNL     1      36.342 -21.451 -18.190  0.00  0.00    +0.143 HD
ENDROOT
BRANCH   1  15
ATOM     13  O   UNL     1      27.868 -23.471 -18.002  0.00  0.00    -0.270 OA
ATOM     14  N   UNL     1      29.361 -23.396 -16.236  0.00  0.00    -0.274 N 
ATOM     15  C   UNL     1      31.433 -24.492 -15.833  0.00  0.00    +0.119 C 
ATOM     16  C   UNL     1      30.941 -23.837 -14.534  0.00  0.00    +0.045 C 
ATOM     17  C   UNL     1      30.148 -24.545 -16.668  0.00  0.00    +0.116 C 
ATOM     18  C   UNL     1      29.895 -22.831 -14.999  0.00  0.00    +0.096 C 
ATOM     19  C   UNL     1      28.273 -22.951 -16.962  0.00  0.00    +0.249 C 
BRANCH  19  20
ATOM     20  C   UNL     1      27.565 -21.768 -16.437  0.00  0.00    +0.058 C 
ATOM     21  C   UNL     1      26.345 -21.924 -15.916  0.00  0.00    +0.005 C 
ENDBRANCH  19  20
ENDBRANCH   1  15
BRANCH   7  22
ATOM     22  C   UNL     1      33.748 -21.485 -18.799  0.00  0.00    -0.042 C 
ATOM     23  C   UNL     1      33.862 -20.698 -19.700  0.00  0.00    -0.058 C 
BRANCH  23  24
ATOM     24  C   UNL     1      33.998 -19.763 -20.773  0.00  0.00    +0.048 C 
ATOM     25  C   UNL     1      34.447 -20.193 -22.022  0.00  0.00    +0.045 C 
ATOM     26  C   UNL     1      33.680 -18.419 -20.572  0.00  0.00    +0.045 C 
ATOM     27  C   UNL     1      33.811 -17.507 -21.618  0.00  0.00    +0.142 C 
ATOM     28  C   UNL     1      34.579 -19.280 -23.067  0.00  0.00    +0.142 C 
ATOM     29  C   UNL     1      34.260 -17.937 -22.867  0.00  0.00    +0.074 C 
BRANCH  27  30
ATOM     30  O   UNL     1      33.501 -16.196 -21.422  0.00  0.00    -0.471 OA
ATOM     31  C   UNL     1      34.375 -15.440 -20.585  0.00  0.00    +0.252 C 
ENDBRANCH  27  30
BRANCH  28  32
ATOM     32  O   UNL     1      35.017 -19.702 -24.286  0.00  0.00    -0.471 OA
ATOM     33  C   UNL     1      34.592 -18.950 -25.423  0.00  0.00    +0.252 C 
ENDBRANCH  28  32
ENDBRANCH  23  24
ENDBRANCH   7  22
TORSDOF 6
ENDMDL
MODEL 5
REMARK VINA RESULT:      -8.2      2.525     10.117
REMARK  Name = 71621331
REMARK  6 active torsions:
REMARK  status: ('A' for Active; 'I' for Inactive)
REMARK    1  A    between atoms: N_1  and  C_12
REMARK    2  A    between atoms: C_7  and  C_22
REMARK    3  A    between atoms: C_16  and  C_17
REMARK    4  A    between atoms: C_23  and  C_24
REMARK    5  A    between atoms: C_27  and  O_30
REMARK    6  A    between atoms: C_28  and  O_32
REMARK                            x       y       z     vdW  Elec       q    Type
REMARK                         _______ _______ _______ _____ _____    ______ ____
ROOT
ATOM      1  N   UNL     1      31.893 -12.674 -21.673  0.00  0.00    -0.198 N 
ATOM      2  N   UNL     1      32.076 -13.865 -21.073  0.00  0.00    -0.172 NA
ATOM      3  N   UNL     1      32.587 -11.478 -23.661  0.00  0.00    -0.231 NA
ATOM      4  N   UNL     1      34.090 -12.815 -25.040  0.00  0.00    -0.234 NA
ATOM      5  C   UNL     1      32.575 -12.545 -22.847  0.00  0.00    +0.137 C 
ATOM      6  C   UNL     1      33.252 -13.738 -23.029  0.00  0.00    +0.158 C 
ATOM      7  C   UNL     1      32.904 -14.508 -21.903  0.00  0.00    +0.131 C 
ATOM      8  C   UNL     1      34.032 -13.855 -24.175  0.00  0.00    +0.112 C 
ATOM      9  C   UNL     1      33.374 -11.706 -24.734  0.00  0.00    +0.252 C 
ATOM     10  N   UNL     1      34.758 -15.029 -24.444  0.00  0.00    -0.346 N 
ATOM     11  H   UNL     1      35.305 -15.092 -25.261  0.00  0.00    +0.143 HD
ATOM     12  H   UNL     1      34.720 -15.786 -23.816  0.00  0.00    +0.143 HD
ENDROOT
BRANCH   1  15
ATOM     13  O   UNL     1      31.082  -8.051 -23.387  0.00  0.00    -0.270 OA
ATOM     14  N   UNL     1      31.628  -9.419 -21.602  0.00  0.00    -0.274 N 
ATOM     15  C   UNL     1      30.995 -11.637 -21.022  0.00  0.00    +0.119 C 
ATOM     16  C   UNL     1      31.679 -10.971 -19.819  0.00  0.00    +0.045 C 
ATOM     17  C   UNL     1      30.610 -10.426 -21.879  0.00  0.00    +0.116 C 
ATOM     18  C   UNL     1      32.413  -9.780 -20.424  0.00  0.00    +0.096 C 
ATOM     19  C   UNL     1      31.777  -8.303 -22.403  0.00  0.00    +0.249 C 
BRANCH  19  20
ATOM     20  C   UNL     1      32.855  -7.364 -22.034  0.00  0.00    +0.058 C 
ATOM     21  C   UNL     1      34.014  -7.422 -22.694  0.00  0.00    +0.005 C 
ENDBRANCH  19  20
ENDBRANCH   1  15
BRANCH   7  22
ATOM     22  C   UNL     1      33.307 -15.828 -21.556  0.00  0.00    -0.042 C 
ATOM     23  C   UNL     1      33.647 -16.943 -21.264  0.00  0.00    -0.058 C 
BRANCH  23  24
ATOM     24  C   UNL     1      34.051 -18.269 -20.915  0.00  0.00    +0.048 C 
ATOM     25  C   UNL     1      33.094 -19.218 -20.553  0.00  0.00    +0.045 C 
ATOM     26  C   UNL     1      35.402 -18.617 -20.939  0.00  0.00    +0.045 C 
ATOM     27  C   UNL     1      35.796 -19.911 -20.600  0.00  0.00    +0.142 C 
ATOM     28  C   UNL     1      33.488 -20.511 -20.214  0.00  0.00    +0.142 C 
ATOM     29  C   UNL     1      34.839 -20.859 -20.238  0.00  0.00    +0.074 C 
BRANCH  27  30
ATOM     30  O   UNL     1      37.114 -20.249 -20.624  0.00  0.00    -0.471 OA
ATOM     31  C   UNL     1      37.482 -21.470 -19.983  0.00  0.00    +0.252 C 
ENDBRANCH  27  30
BRANCH  28  32
ATOM     32  O   UNL     1      32.553 -21.437 -19.861  0.00  0.00    -0.471 OA
ATOM     33  C   UNL     1      32.786 -22.168 -18.658  0.00  0.00    +0.252 C 
ENDBRANCH  28  32
ENDBRANCH  23  24
ENDBRANCH   7  22
TORSDOF 6
ENDMDL
MODEL 6
REMARK VINA RESULT:      -8.2      3.170      5.251
REMARK  Name = 71621331
REMARK  6 active torsions:
REMARK  status: ('A' for Active; 'I' for Inactive)
REMARK    1  A    between atoms: N_1  and  C_12
REMARK    2  A    between atoms: C_7  and  C_22
REMARK    3  A    between atoms: C_16  and  C_17
REMARK    4  A    between atoms: C_23  and  C_24
REMARK    5  A    between atoms: C_27  and  O_30
REMARK    6  A    between atoms: C_28  and  O_32
REMARK                            x       y       z     vdW  Elec       q    Type
REMARK                         _______ _______ _______ _____ _____    ______ ____
ROOT
ATOM      1  N   UNL     1      32.117 -11.212 -22.889  0.00  0.00    -0.198 N 
ATOM      2  N   UNL     1      32.120 -10.088 -23.629  0.00  0.00    -0.172 NA
ATOM      3  N   UNL     1      32.019 -11.898 -20.569  0.00  0.00    -0.231 NA
ATOM      4  N   UNL     1      31.881  -9.981 -19.066  0.00  0.00    -0.234 NA
ATOM      5  C   UNL     1      32.040 -10.980 -21.547  0.00  0.00    +0.137 C 
ATOM      6  C   UNL     1      31.988  -9.605 -21.400  0.00  0.00    +0.158 C 
ATOM      7  C   UNL     1      32.041  -9.114 -22.718  0.00  0.00    +0.131 C 
ATOM      8  C   UNL     1      31.906  -9.110 -20.102  0.00  0.00    +0.112 C 
ATOM      9  C   UNL     1      31.938 -11.303 -19.359  0.00  0.00    +0.252 C 
ATOM     10  N   UNL     1      31.851  -7.727 -19.853  0.00  0.00    -0.346 N 
ATOM     11  H   UNL     1      31.793  -7.396 -18.928  0.00  0.00    +0.143 HD
ATOM     12  H   UNL     1      31.872  -7.091 -20.604  0.00  0.00    +0.143 HD
ENDROOT
BRANCH   1  15
ATOM     13  O   UNL     1      32.272 -15.639 -20.578  0.00  0.00    -0.270 OA
ATOM     14  N   UNL     1      33.165 -14.222 -22.174  0.00  0.00    -0.274 N 
ATOM     15  C   UNL     1      32.196 -12.563 -23.577  0.00  0.00    +0.119 C 
ATOM     16  C   UNL     1      33.622 -12.869 -24.059  0.00  0.00    +0.045 C 
ATOM     17  C   UNL     1      31.882 -13.793 -22.717  0.00  0.00    +0.116 C 
ATOM     18  C   UNL     1      34.272 -13.570 -22.871  0.00  0.00    +0.096 C 
ATOM     19  C   UNL     1      33.243 -15.121 -21.128  0.00  0.00    +0.249 C 
BRANCH  19  20
ATOM     20  C   UNL     1      34.597 -15.466 -20.651  0.00  0.00    +0.058 C 
ATOM     21  C   UNL     1      35.031 -16.720 -20.795  0.00  0.00    +0.005 C 
ENDBRANCH  19  20
ENDBRANCH   1  15
BRANCH   7  22
ATOM     22  C   UNL     1      32.023  -7.767 -23.177  0.00  0.00    -0.042 C 
ATOM     23  C   UNL     1      32.007  -6.630 -23.565  0.00  0.00    -0.058 C 
BRANCH  23  24
ATOM     24  C   UNL     1      31.990  -5.277 -24.027  0.00  0.00    +0.048 C 
ATOM     25  C   UNL     1      32.340  -4.985 -25.346  0.00  0.00    +0.045 C 
ATOM     26  C   UNL     1      31.620  -4.248 -23.161  0.00  0.00    +0.045 C 
ATOM     27  C   UNL     1      31.602  -2.929 -23.612  0.00  0.00    +0.142 C 
ATOM     28  C   UNL     1      32.322  -3.666 -25.796  0.00  0.00    +0.142 C 
ATOM     29  C   UNL     1      31.952  -2.637 -24.930  0.00  0.00    +0.074 C 
BRANCH  27  30
ATOM     30  O   UNL     1      31.241  -1.925 -22.766  0.00  0.00    -0.471 OA
ATOM     31  C   UNL     1      29.850  -1.786 -22.481  0.00  0.00    +0.252 C 
ENDBRANCH  27  30
BRANCH  28  32
ATOM     32  O   UNL     1      32.664  -3.382 -27.084  0.00  0.00    -0.471 OA
ATOM     33  C   UNL     1      33.662  -4.204 -27.686  0.00  0.00    +0.252 C 
ENDBRANCH  28  32
ENDBRANCH  23  24
ENDBRANCH   7  22
TORSDOF 6
ENDMDL
MODEL 7
REMARK VINA RESULT:      -8.2      6.351     13.650
REMARK  Name = 71621331
REMARK  6 active torsions:
REMARK  status: ('A' for Active; 'I' for Inactive)
REMARK    1  A    between atoms: N_1  and  C_12
REMARK    2  A    between atoms: C_7  and  C_22
REMARK    3  A    between atoms: C_16  and  C_17
REMARK    4  A    between atoms: C_23  and  C_24
REMARK    5  A    between atoms: C_27  and  O_30
REMARK    6  A    between atoms: C_28  and  O_32
REMARK                            x       y       z     vdW  Elec       q    Type
REMARK                         _______ _______ _______ _____ _____    ______ ____
ROOT
ATOM      1  N   UNL     1      35.883 -20.277 -20.107  0.00  0.00    -0.198 N 
ATOM      2  N   UNL     1      36.745 -20.734 -19.180  0.00  0.00    -0.172 NA
ATOM      3  N   UNL     1      33.561 -20.515 -20.752  0.00  0.00    -0.231 NA
ATOM      4  N   UNL     1      32.372 -22.061 -19.287  0.00  0.00    -0.234 NA
ATOM      5  C   UNL     1      34.624 -20.785 -19.978  0.00  0.00    +0.137 C 
ATOM      6  C   UNL     1      34.665 -21.636 -18.888  0.00  0.00    +0.158 C 
ATOM      7  C   UNL     1      35.998 -21.561 -18.441  0.00  0.00    +0.131 C 
ATOM      8  C   UNL     1      33.484 -22.287 -18.548  0.00  0.00    +0.112 C 
ATOM      9  C   UNL     1      32.478 -21.201 -20.329  0.00  0.00    +0.252 C 
ATOM     10  N   UNL     1      33.429 -23.173 -17.458  0.00  0.00    -0.346 N 
ATOM     11  H   UNL     1      32.584 -23.624 -17.233  0.00  0.00    +0.143 HD
ATOM     12  H   UNL     1      34.236 -23.342 -16.920  0.00  0.00    +0.143 HD
ENDROOT
BRANCH   1  15
ATOM     13  O   UNL     1      34.944 -15.369 -20.123  0.00  0.00    -0.270 OA
ATOM     14  N   UNL     1      34.966 -17.371 -21.284  0.00  0.00    -0.274 N 
ATOM     15  C   UNL     1      36.365 -19.290 -21.157  0.00  0.00    +0.119 C 
ATOM     16  C   UNL     1      35.515 -19.363 -22.434  0.00  0.00    +0.045 C 
ATOM     17  C   UNL     1      36.271 -17.803 -20.797  0.00  0.00    +0.116 C 
ATOM     18  C   UNL     1      34.389 -18.365 -22.186  0.00  0.00    +0.096 C 
ATOM     19  C   UNL     1      34.408 -16.170 -20.889  0.00  0.00    +0.249 C 
BRANCH  19  20
ATOM     20  C   UNL     1      33.074 -15.849 -21.434  0.00  0.00    +0.058 C 
ATOM     21  C   UNL     1      32.525 -14.668 -21.140  0.00  0.00    +0.005 C 
ENDBRANCH  19  20
ENDBRANCH   1  15
BRANCH   7  22
ATOM     22  C   UNL     1      36.620 -22.228 -17.348  0.00  0.00    -0.042 C 
ATOM     23  C   UNL     1      37.144 -22.791 -16.426  0.00  0.00    -0.058 C 
BRANCH  23  24
ATOM     24  C   UNL     1      37.768 -23.462 -15.328  0.00  0.00    +0.048 C 
ATOM     25  C   UNL     1      38.996 -24.102 -15.508  0.00  0.00    +0.045 C 
ATOM     26  C   UNL     1      37.151 -23.478 -14.077  0.00  0.00    +0.045 C 
ATOM     27  C   UNL     1      37.761 -24.131 -13.007  0.00  0.00    +0.142 C 
ATOM     28  C   UNL     1      39.604 -24.755 -14.437  0.00  0.00    +0.142 C 
ATOM     29  C   UNL     1      38.988 -24.769 -13.186  0.00  0.00    +0.074 C 
BRANCH  27  30
ATOM     30  O   UNL     1      37.159 -24.145 -11.786  0.00  0.00    -0.471 OA
ATOM     31  C   UNL     1      35.753 -23.901 -11.753  0.00  0.00    +0.252 C 
ENDBRANCH  27  30
BRANCH  28  32
ATOM     32  O   UNL     1      40.802 -25.378 -14.613  0.00  0.00    -0.471 OA
ATOM     33  C   UNL     1      40.895 -26.737 -14.190  0.00  0.00    +0.252 C 
ENDBRANCH  28  32
ENDBRANCH  23  24
ENDBRANCH   7  22
TORSDOF 6
ENDMDL
MODEL 8
REMARK VINA RESULT:      -8.2      6.421     13.880
REMARK  Name = 71621331
REMARK  6 active torsions:
REMARK  status: ('A' for Active; 'I' for Inactive)
REMARK    1  A    between atoms: N_1  and  C_12
REMARK    2  A    between atoms: C_7  and  C_22
REMARK    3  A    between atoms: C_16  and  C_17
REMARK    4  A    between atoms: C_23  and  C_24
REMARK    5  A    between atoms: C_27  and  O_30
REMARK    6  A    between atoms: C_28  and  O_32
REMARK                            x       y       z     vdW  Elec       q    Type
REMARK                         _______ _______ _______ _____ _____    ______ ____
ROOT
ATOM      1  N   UNL     1      35.910 -20.318 -20.047  0.00  0.00    -0.198 N 
ATOM      2  N   UNL     1      36.778 -20.781 -19.127  0.00  0.00    -0.172 NA
ATOM      3  N   UNL     1      33.582 -20.545 -20.673  0.00  0.00    -0.231 NA
ATOM      4  N   UNL     1      32.398 -22.087 -19.200  0.00  0.00    -0.234 NA
ATOM      5  C   UNL     1      34.651 -20.820 -19.908  0.00  0.00    +0.137 C 
ATOM      6  C   UNL     1      34.696 -21.673 -18.819  0.00  0.00    +0.158 C 
ATOM      7  C   UNL     1      36.033 -21.605 -18.383  0.00  0.00    +0.131 C 
ATOM      8  C   UNL     1      33.515 -22.319 -18.470  0.00  0.00    +0.112 C 
ATOM      9  C   UNL     1      32.499 -21.226 -20.241  0.00  0.00    +0.252 C 
ATOM     10  N   UNL     1      33.465 -23.205 -17.380  0.00  0.00    -0.346 N 
ATOM     11  H   UNL     1      32.619 -23.653 -17.149  0.00  0.00    +0.143 HD
ATOM     12  H   UNL     1      34.275 -23.379 -16.849  0.00  0.00    +0.143 HD
ENDROOT
BRANCH   1  15
ATOM     13  O   UNL     1      34.965 -15.412 -20.070  0.00  0.00    -0.270 OA
ATOM     14  N   UNL     1      34.986 -17.416 -21.227  0.00  0.00    -0.274 N 
ATOM     15  C   UNL     1      36.389 -19.333 -21.099  0.00  0.00    +0.119 C 
ATOM     16  C   UNL     1      35.536 -19.409 -22.374  0.00  0.00    +0.045 C 
ATOM     17  C   UNL     1      36.293 -17.845 -20.742  0.00  0.00    +0.116 C 
ATOM     18  C   UNL     1      34.409 -18.413 -22.125  0.00  0.00    +0.096 C 
ATOM     19  C   UNL     1      34.428 -16.215 -20.833  0.00  0.00    +0.249 C 
BRANCH  19  20
ATOM     20  C   UNL     1      33.092 -15.897 -21.375  0.00  0.00    +0.058 C 
ATOM     21  C   UNL     1      32.686 -14.625 -21.383  0.00  0.00    +0.005 C 
ENDBRANCH  19  20
ENDBRANCH   1  15
BRANCH   7  22
ATOM     22  C   UNL     1      36.660 -22.276 -17.296  0.00  0.00    -0.042 C 
ATOM     23  C   UNL     1      37.189 -22.842 -16.378  0.00  0.00    -0.058 C 
BRANCH  23  24
ATOM     24  C   UNL     1      37.818 -23.515 -15.285  0.00  0.00    +0.048 C 
ATOM     25  C   UNL     1      37.209 -23.528 -14.029  0.00  0.00    +0.045 C 
ATOM     26  C   UNL     1      39.040 -24.162 -15.473  0.00  0.00    +0.045 C 
ATOM     27  C   UNL     1      39.653 -24.820 -14.407  0.00  0.00    +0.142 C 
ATOM     28  C   UNL     1      37.823 -24.186 -12.964  0.00  0.00    +0.142 C 
ATOM     29  C   UNL     1      39.044 -24.833 -13.152  0.00  0.00    +0.074 C 
BRANCH  27  30
ATOM     30  O   UNL     1      40.845 -25.451 -14.592  0.00  0.00    -0.471 OA
ATOM     31  C   UNL     1      40.942 -26.800 -14.138  0.00  0.00    +0.252 C 
ENDBRANCH  27  30
BRANCH  28  32
ATOM     32  O   UNL     1      37.228 -24.199 -11.739  0.00  0.00    -0.471 OA
ATOM     33  C   UNL     1      35.860 -24.602 -11.687  0.00  0.00    +0.252 C 
ENDBRANCH  28  32
ENDBRANCH  23  24
ENDBRANCH   7  22
TORSDOF 6
ENDMDL
MODEL 9
REMARK VINA RESULT:      -8.1      2.668      9.819
REMARK  Name = 71621331
REMARK  6 active torsions:
REMARK  status: ('A' for Active; 'I' for Inactive)
REMARK    1  A    between atoms: N_1  and  C_12
REMARK    2  A    between atoms: C_7  and  C_22
REMARK    3  A    between atoms: C_16  and  C_17
REMARK    4  A    between atoms: C_23  and  C_24
REMARK    5  A    between atoms: C_27  and  O_30
REMARK    6  A    between atoms: C_28  and  O_32
REMARK                            x       y       z     vdW  Elec       q    Type
REMARK                         _______ _______ _______ _____ _____    ______ ____
ROOT
ATOM      1  N   UNL     1      31.788 -12.508 -21.434  0.00  0.00    -0.198 N 
ATOM      2  N   UNL     1      32.022 -13.718 -20.893  0.00  0.00    -0.172 NA
ATOM      3  N   UNL     1      32.403 -11.200 -23.376  0.00  0.00    -0.231 NA
ATOM      4  N   UNL     1      33.923 -12.421 -24.842  0.00  0.00    -0.234 NA
ATOM      5  C   UNL     1      32.441 -12.303 -22.612  0.00  0.00    +0.137 C 
ATOM      6  C   UNL     1      33.155 -13.463 -22.861  0.00  0.00    +0.158 C 
ATOM      7  C   UNL     1      32.854 -14.294 -21.766  0.00  0.00    +0.131 C 
ATOM      8  C   UNL     1      33.916 -13.501 -24.025  0.00  0.00    +0.112 C 
ATOM      9  C   UNL     1      33.176 -11.353 -24.473  0.00  0.00    +0.252 C 
ATOM     10  N   UNL     1      34.675 -14.636 -24.360  0.00  0.00    -0.346 N 
ATOM     11  H   UNL     1      35.208 -14.643 -25.189  0.00  0.00    +0.143 HD
ATOM     12  H   UNL     1      34.675 -15.421 -23.767  0.00  0.00    +0.143 HD
ENDROOT
BRANCH   1  15
ATOM     13  O   UNL     1      31.420  -7.622 -22.409  0.00  0.00    -0.270 OA
ATOM     14  N   UNL     1      31.675  -9.299 -20.836  0.00  0.00    -0.274 N 
ATOM     15  C   UNL     1      30.867 -11.534 -20.720  0.00  0.00    +0.119 C 
ATOM     16  C   UNL     1      31.431 -11.123 -19.351  0.00  0.00    +0.045 C 
ATOM     17  C   UNL     1      30.650 -10.174 -21.394  0.00  0.00    +0.116 C 
ATOM     18  C   UNL     1      32.291  -9.902 -19.656  0.00  0.00    +0.096 C 
ATOM     19  C   UNL     1      31.975  -8.079 -21.411  0.00  0.00    +0.249 C 
BRANCH  19  20
ATOM     20  C   UNL     1      33.044  -7.290 -20.767  0.00  0.00    +0.058 C 
ATOM     21  C   UNL     1      32.704  -6.315 -19.921  0.00  0.00    +0.005 C 
ENDBRANCH  19  20
ENDBRANCH   1  15
BRANCH   7  22
ATOM     22  C   UNL     1      33.308 -15.615 -21.488  0.00  0.00    -0.042 C 
ATOM     23  C   UNL     1      33.690 -16.729 -21.253  0.00  0.00    -0.058 C 
BRANCH  23  24
ATOM     24  C   UNL     1      34.146 -18.055 -20.974  0.00  0.00    +0.048 C 
ATOM     25  C   UNL     1      35.505 -18.360 -21.068  0.00  0.00    +0.045 C 
ATOM     26  C   UNL     1      33.233 -19.044 -20.607  0.00  0.00    +0.045 C 
ATOM     27  C   UNL     1      33.678 -20.337 -20.334  0.00  0.00    +0.142 C 
ATOM     28  C   UNL     1      35.948 -19.654 -20.795  0.00  0.00    +0.142 C 
ATOM     29  C   UNL     1      35.036 -20.643 -20.427  0.00  0.00    +0.074 C 
BRANCH  27  30
ATOM     30  O   UNL     1      32.788 -21.302 -19.975  0.00  0.00    -0.471 OA
ATOM     31  C   UNL     1      33.175 -22.183 -18.921  0.00  0.00    +0.252 C 
ENDBRANCH  27  30
BRANCH  28  32
ATOM     32  O   UNL     1      37.274 -19.951 -20.887  0.00  0.00    -0.471 OA
ATOM     33  C   UNL     1      38.084 -19.071 -21.665  0.00  0.00    +0.252 C 
ENDBRANCH  28  32
ENDBRANCH  23  24
ENDBRANCH   7  22
TORSDOF 6
ENDMDL
