MODEL 1
REMARK VINA RESULT:     -11.6      0.000      0.000
REMARK  Name = 6852140
REMARK  4 active torsions:
REMARK  status: ('A' for Active; 'I' for Inactive)
REMARK    1  A    between atoms: C_2  and  N_18
REMARK    2  A    between atoms: C_5  and  C_13
REMARK    3  A    between atoms: C_19  and  C_21
REMARK    4  A    between atoms: C_24  and  O_28
REMARK                            x       y       z     vdW  Elec       q    Type
REMARK                         _______ _______ _______ _____ _____    ______ ____
ROOT
ATOM      1  C   UNL     1      31.576 -23.618 -15.669  0.00  0.00    +0.014 C 
ATOM      2  C   UNL     1      32.880 -23.256 -16.046  0.00  0.00    +0.050 C 
ATOM      3  C   UNL     1      31.390 -24.488 -14.569  0.00  0.00    +0.001 C 
ATOM      4  C   UNL     1      30.452 -23.137 -16.362  0.00  0.00    +0.004 C 
ATOM      5  C   UNL     1      29.165 -23.507 -15.974  0.00  0.00    +0.031 C 
ATOM      6  C   UNL     1      30.086 -24.850 -14.192  0.00  0.00    +0.000 C 
ATOM      7  C   UNL     1      33.984 -23.744 -15.347  0.00  0.00    +0.015 C 
ATOM      8  C   UNL     1      32.514 -24.969 -13.876  0.00  0.00    +0.000 C 
ATOM      9  C   UNL     1      28.982 -24.362 -14.891  0.00  0.00    +0.003 C 
ATOM     10  C   UNL     1      33.801 -24.599 -14.265  0.00  0.00    +0.001 C 
ENDROOT
BRANCH   5  13
ATOM     11  N   UNL     1      27.079 -22.165 -16.087  0.00  0.00    -0.343 N 
ATOM     12  N   UNL     1      27.830 -23.335 -17.964  0.00  0.00    -0.285 NA
ATOM     13  C   UNL     1      28.011 -23.000 -16.700  0.00  0.00    +0.117 C 
ATOM     14  H   UNL     1      26.305 -21.833 -16.597  0.00  0.00    +0.144 HD
ATOM     15  H   UNL     1      27.195 -21.905 -15.144  0.00  0.00    +0.144 HD
ATOM     16  H   UNL     1      27.050 -22.993 -18.458  0.00  0.00    +0.188 HD
ENDBRANCH   5  13
BRANCH   2  18
ATOM     17  O   UNL     1      33.806 -23.931 -18.745  0.00  0.00    -0.270 OA
ATOM     18  N   UNL     1      33.125 -22.399 -17.127  0.00  0.00    -0.280 N 
ATOM     19  C   UNL     1      33.566 -22.778 -18.394  0.00  0.00    +0.249 C 
ATOM     20  H   UNL     1      32.971 -21.438 -16.978  0.00  0.00    +0.155 HD
BRANCH  19  21
ATOM     21  C   UNL     1      33.784 -21.649 -19.317  0.00  0.00    +0.053 C 
ATOM     22  C   UNL     1      35.057 -21.139 -19.520  0.00  0.00    +0.016 C 
ATOM     23  C   UNL     1      32.683 -21.118 -19.971  0.00  0.00    +0.004 C 
ATOM     24  C   UNL     1      35.233 -20.071 -20.399  0.00  0.00    +0.130 C 
ATOM     25  C   UNL     1      36.240 -21.717 -18.812  0.00  0.00    +0.034 C 
ATOM     26  C   UNL     1      32.859 -20.049 -20.849  0.00  0.00    +0.003 C 
ATOM     27  C   UNL     1      34.134 -19.525 -21.064  0.00  0.00    +0.036 C 
BRANCH  24  28
ATOM     28  O   UNL     1      36.471 -19.545 -20.621  0.00  0.00    -0.506 OA
ATOM     29  H   UNL     1      37.228 -19.965 -20.264  0.00  0.00    +0.292 HD
ENDBRANCH  24  28
ENDBRANCH  19  21
ENDBRANCH   2  18
TORSDOF 4
ENDMDL
MODEL 2
REMARK VINA RESULT:     -10.8      1.902      4.367
REMARK  Name = 6852140
REMARK  4 active torsions:
REMARK  status: ('A' for Active; 'I' for Inactive)
REMARK    1  A    between atoms: C_2  and  N_18
REMARK    2  A    between atoms: C_5  and  C_13
REMARK    3  A    between atoms: C_19  and  C_21
REMARK    4  A    between atoms: C_24  and  O_28
REMARK                            x       y       z     vdW  Elec       q    Type
REMARK                         _______ _______ _______ _____ _____    ______ ____
ROOT
ATOM      1  C   UNL     1      33.315 -23.440 -15.562  0.00  0.00    +0.014 C 
ATOM      2  C   UNL     1      32.445 -22.940 -16.545  0.00  0.00    +0.050 C 
ATOM      3  C   UNL     1      32.800 -24.274 -14.541  0.00  0.00    +0.001 C 
ATOM      4  C   UNL     1      34.685 -23.127 -15.568  0.00  0.00    +0.004 C 
ATOM      5  C   UNL     1      35.534 -23.631 -14.583  0.00  0.00    +0.031 C 
ATOM      6  C   UNL     1      33.670 -24.773 -13.558  0.00  0.00    +0.000 C 
ATOM      7  C   UNL     1      31.087 -23.260 -16.523  0.00  0.00    +0.015 C 
ATOM      8  C   UNL     1      31.430 -24.587 -14.535  0.00  0.00    +0.000 C 
ATOM      9  C   UNL     1      35.028 -24.454 -13.581  0.00  0.00    +0.003 C 
ATOM     10  C   UNL     1      30.581 -24.081 -15.520  0.00  0.00    +0.001 C 
ENDROOT
BRANCH   5  13
ATOM     11  N   UNL     1      37.652 -23.194 -15.802  0.00  0.00    -0.343 N 
ATOM     12  N   UNL     1      37.595 -23.099 -13.468  0.00  0.00    -0.285 NA
ATOM     13  C   UNL     1      36.950 -23.300 -14.603  0.00  0.00    +0.117 C 
ATOM     14  H   UNL     1      38.610 -22.969 -15.793  0.00  0.00    +0.144 HD
ATOM     15  H   UNL     1      37.190 -23.343 -16.659  0.00  0.00    +0.144 HD
ATOM     16  H   UNL     1      38.553 -22.874 -13.480  0.00  0.00    +0.188 HD
ENDBRANCH   5  13
BRANCH   2  18
ATOM     17  O   UNL     1      33.813 -23.685 -19.029  0.00  0.00    -0.270 OA
ATOM     18  N   UNL     1      32.897 -22.109 -17.578  0.00  0.00    -0.280 N 
ATOM     19  C   UNL     1      33.544 -22.521 -18.742  0.00  0.00    +0.249 C 
ATOM     20  H   UNL     1      32.743 -21.142 -17.472  0.00  0.00    +0.155 HD
BRANCH  19  21
ATOM     21  C   UNL     1      33.949 -21.414 -19.628  0.00  0.00    +0.053 C 
ATOM     22  C   UNL     1      35.276 -21.020 -19.705  0.00  0.00    +0.016 C 
ATOM     23  C   UNL     1      32.966 -20.784 -20.377  0.00  0.00    +0.004 C 
ATOM     24  C   UNL     1      35.629 -19.970 -20.552  0.00  0.00    +0.130 C 
ATOM     25  C   UNL     1      36.330 -21.705 -18.896  0.00  0.00    +0.034 C 
ATOM     26  C   UNL     1      33.320 -19.733 -21.223  0.00  0.00    +0.003 C 
ATOM     27  C   UNL     1      34.652 -19.326 -21.311  0.00  0.00    +0.036 C 
BRANCH  24  28
ATOM     28  O   UNL     1      36.925 -19.557 -20.651  0.00  0.00    -0.506 OA
ATOM     29  H   UNL     1      37.530 -20.041 -21.178  0.00  0.00    +0.292 HD
ENDBRANCH  24  28
ENDBRANCH  19  21
ENDBRANCH   2  18
TORSDOF 4
ENDMDL
MODEL 3
REMARK VINA RESULT:      -9.9      2.171      4.634
REMARK  Name = 6852140
REMARK  4 active torsions:
REMARK  status: ('A' for Active; 'I' for Inactive)
REMARK    1  A    between atoms: C_2  and  N_18
REMARK    2  A    between atoms: C_5  and  C_13
REMARK    3  A    between atoms: C_19  and  C_21
REMARK    4  A    between atoms: C_24  and  O_28
REMARK                            x       y       z     vdW  Elec       q    Type
REMARK                         _______ _______ _______ _____ _____    ______ ____
ROOT
ATOM      1  C   UNL     1      33.458 -23.425 -15.388  0.00  0.00    +0.014 C 
ATOM      2  C   UNL     1      32.857 -22.925 -16.556  0.00  0.00    +0.050 C 
ATOM      3  C   UNL     1      32.686 -24.201 -14.491  0.00  0.00    +0.001 C 
ATOM      4  C   UNL     1      34.807 -23.170 -15.091  0.00  0.00    +0.004 C 
ATOM      5  C   UNL     1      35.386 -23.675 -13.927  0.00  0.00    +0.031 C 
ATOM      6  C   UNL     1      33.287 -24.701 -13.324  0.00  0.00    +0.000 C 
ATOM      7  C   UNL     1      31.515 -23.188 -16.834  0.00  0.00    +0.015 C 
ATOM      8  C   UNL     1      31.337 -24.456 -14.788  0.00  0.00    +0.000 C 
ATOM      9  C   UNL     1      34.629 -24.439 -13.046  0.00  0.00    +0.003 C 
ATOM     10  C   UNL     1      30.757 -23.951 -15.952  0.00  0.00    +0.001 C 
ENDROOT
BRANCH   5  13
ATOM     11  N   UNL     1      37.309 -23.598 -12.357  0.00  0.00    -0.343 N 
ATOM     12  N   UNL     1      37.582 -22.957 -14.587  0.00  0.00    -0.285 NA
ATOM     13  C   UNL     1      36.785 -23.403 -13.634  0.00  0.00    +0.117 C 
ATOM     14  H   UNL     1      38.258 -23.408 -12.181  0.00  0.00    +0.144 HD
ATOM     15  H   UNL     1      36.730 -23.928 -11.632  0.00  0.00    +0.144 HD
ATOM     16  H   UNL     1      38.530 -22.773 -14.391  0.00  0.00    +0.188 HD
ENDBRANCH   5  13
BRANCH   2  18
ATOM     17  O   UNL     1      33.883 -23.701 -19.191  0.00  0.00    -0.270 OA
ATOM     18  N   UNL     1      33.570 -22.151 -17.480  0.00  0.00    -0.280 N 
ATOM     19  C   UNL     1      34.035 -22.574 -18.724  0.00  0.00    +0.249 C 
ATOM     20  H   UNL     1      33.761 -21.218 -17.226  0.00  0.00    +0.155 HD
BRANCH  19  21
ATOM     21  C   UNL     1      34.799 -21.550 -19.460  0.00  0.00    +0.053 C 
ATOM     22  C   UNL     1      34.145 -20.591 -20.217  0.00  0.00    +0.016 C 
ATOM     23  C   UNL     1      36.182 -21.576 -19.370  0.00  0.00    +0.004 C 
ATOM     24  C   UNL     1      34.894 -19.634 -20.902  0.00  0.00    +0.130 C 
ATOM     25  C   UNL     1      32.653 -20.567 -20.309  0.00  0.00    +0.034 C 
ATOM     26  C   UNL     1      36.931 -20.620 -20.055  0.00  0.00    +0.003 C 
ATOM     27  C   UNL     1      36.287 -19.648 -20.822  0.00  0.00    +0.036 C 
BRANCH  24  28
ATOM     28  O   UNL     1      34.283 -18.677 -21.657  0.00  0.00    -0.506 OA
ATOM     29  H   UNL     1      33.359 -18.540 -21.580  0.00  0.00    +0.292 HD
ENDBRANCH  24  28
ENDBRANCH  19  21
ENDBRANCH   2  18
TORSDOF 4
ENDMDL
MODEL 4
REMARK VINA RESULT:      -9.9      3.251      6.080
REMARK  Name = 6852140
REMARK  4 active torsions:
REMARK  status: ('A' for Active; 'I' for Inactive)
REMARK    1  A    between atoms: C_2  and  N_18
REMARK    2  A    between atoms: C_5  and  C_13
REMARK    3  A    between atoms: C_19  and  C_21
REMARK    4  A    between atoms: C_24  and  O_28
REMARK                            x       y       z     vdW  Elec       q    Type
REMARK                         _______ _______ _______ _____ _____    ______ ____
ROOT
ATOM      1  C   UNL     1      32.344 -23.814 -15.372  0.00  0.00    +0.014 C 
ATOM      2  C   UNL     1      32.867 -24.493 -14.259  0.00  0.00    +0.050 C 
ATOM      3  C   UNL     1      30.954 -23.553 -15.433  0.00  0.00    +0.001 C 
ATOM      4  C   UNL     1      33.170 -23.391 -16.427  0.00  0.00    +0.004 C 
ATOM      5  C   UNL     1      32.634 -22.719 -17.524  0.00  0.00    +0.031 C 
ATOM      6  C   UNL     1      30.432 -22.874 -16.547  0.00  0.00    +0.000 C 
ATOM      7  C   UNL     1      32.031 -24.908 -13.221  0.00  0.00    +0.015 C 
ATOM      8  C   UNL     1      30.129 -23.976 -14.379  0.00  0.00    +0.000 C 
ATOM      9  C   UNL     1      31.268 -22.459 -17.584  0.00  0.00    +0.003 C 
ATOM     10  C   UNL     1      30.665 -24.649 -13.282  0.00  0.00    +0.001 C 
ENDROOT
BRANCH   5  13
ATOM     11  N   UNL     1      32.982 -21.724 -19.773  0.00  0.00    -0.343 N 
ATOM     12  N   UNL     1      34.810 -22.427 -18.499  0.00  0.00    -0.285 NA
ATOM     13  C   UNL     1      33.502 -22.285 -18.608  0.00  0.00    +0.117 C 
ATOM     14  H   UNL     1      33.588 -21.438 -20.494  0.00  0.00    +0.144 HD
ATOM     15  H   UNL     1      32.009 -21.612 -19.875  0.00  0.00    +0.144 HD
ATOM     16  H   UNL     1      35.400 -22.134 -19.232  0.00  0.00    +0.188 HD
ENDBRANCH   5  13
BRANCH   2  18
ATOM     17  O   UNL     1      34.783 -23.515 -12.267  0.00  0.00    -0.270 OA
ATOM     18  N   UNL     1      34.233 -24.781 -14.144  0.00  0.00    -0.280 N 
ATOM     19  C   UNL     1      35.099 -24.284 -13.171  0.00  0.00    +0.249 C 
ATOM     20  H   UNL     1      34.617 -25.392 -14.813  0.00  0.00    +0.155 HD
BRANCH  19  21
ATOM     21  C   UNL     1      36.498 -24.725 -13.332  0.00  0.00    +0.053 C 
ATOM     22  C   UNL     1      37.272 -24.248 -14.378  0.00  0.00    +0.016 C 
ATOM     23  C   UNL     1      37.010 -25.624 -12.409  0.00  0.00    +0.004 C 
ATOM     24  C   UNL     1      38.591 -24.682 -14.505  0.00  0.00    +0.130 C 
ATOM     25  C   UNL     1      36.713 -23.278 -15.370  0.00  0.00    +0.034 C 
ATOM     26  C   UNL     1      38.329 -26.058 -12.536  0.00  0.00    +0.003 C 
ATOM     27  C   UNL     1      39.120 -25.587 -13.585  0.00  0.00    +0.036 C 
BRANCH  24  28
ATOM     28  O   UNL     1      39.380 -24.233 -15.523  0.00  0.00    -0.506 OA
ATOM     29  H   UNL     1      40.092 -24.759 -15.829  0.00  0.00    +0.292 HD
ENDBRANCH  24  28
ENDBRANCH  19  21
ENDBRANCH   2  18
TORSDOF 4
ENDMDL
MODEL 5
REMARK VINA RESULT:      -9.8      2.699      6.769
REMARK  Name = 6852140
REMARK  4 active torsions:
REMARK  status: ('A' for Active; 'I' for Inactive)
REMARK    1  A    between atoms: C_2  and  N_18
REMARK    2  A    between atoms: C_5  and  C_13
REMARK    3  A    between atoms: C_19  and  C_21
REMARK    4  A    between atoms: C_24  and  O_28
REMARK                            x       y       z     vdW  Elec       q    Type
REMARK                         _______ _______ _______ _____ _____    ______ ____
ROOT
ATOM      1  C   UNL     1      34.932 -22.228 -17.754  0.00  0.00    +0.014 C 
ATOM      2  C   UNL     1      34.397 -22.986 -16.698  0.00  0.00    +0.050 C 
ATOM      3  C   UNL     1      36.327 -21.994 -17.799  0.00  0.00    +0.001 C 
ATOM      4  C   UNL     1      34.113 -21.696 -18.763  0.00  0.00    +0.004 C 
ATOM      5  C   UNL     1      34.661 -20.946 -19.802  0.00  0.00    +0.031 C 
ATOM      6  C   UNL     1      36.862 -21.236 -18.854  0.00  0.00    +0.000 C 
ATOM      7  C   UNL     1      35.226 -23.505 -15.703  0.00  0.00    +0.015 C 
ATOM      8  C   UNL     1      37.146 -22.526 -16.790  0.00  0.00    +0.000 C 
ATOM      9  C   UNL     1      36.033 -20.717 -19.849  0.00  0.00    +0.003 C 
ATOM     10  C   UNL     1      36.597 -23.276 -15.749  0.00  0.00    +0.001 C 
ENDROOT
BRANCH   5  13
ATOM     11  N   UNL     1      34.327 -19.722 -21.938  0.00  0.00    -0.343 N 
ATOM     12  N   UNL     1      32.490 -20.545 -20.751  0.00  0.00    -0.285 NA
ATOM     13  C   UNL     1      33.800 -20.402 -20.841  0.00  0.00    +0.117 C 
ATOM     14  H   UNL     1      33.726 -19.362 -22.629  0.00  0.00    +0.144 HD
ATOM     15  H   UNL     1      35.301 -19.603 -22.022  0.00  0.00    +0.144 HD
ATOM     16  H   UNL     1      31.906 -20.178 -21.454  0.00  0.00    +0.188 HD
ENDBRANCH   5  13
BRANCH   2  18
ATOM     17  O   UNL     1      32.623 -22.621 -14.392  0.00  0.00    -0.270 OA
ATOM     18  N   UNL     1      33.024 -23.249 -16.600  0.00  0.00    -0.280 N 
ATOM     19  C   UNL     1      32.228 -23.054 -15.472  0.00  0.00    +0.249 C 
ATOM     20  H   UNL     1      32.580 -23.604 -17.403  0.00  0.00    +0.155 HD
BRANCH  19  21
ATOM     21  C   UNL     1      30.824 -23.468 -15.650  0.00  0.00    +0.053 C 
ATOM     22  C   UNL     1      30.275 -24.463 -14.858  0.00  0.00    +0.016 C 
ATOM     23  C   UNL     1      30.075 -22.832 -16.628  0.00  0.00    +0.004 C 
ATOM     24  C   UNL     1      28.944 -24.834 -15.049  0.00  0.00    +0.130 C 
ATOM     25  C   UNL     1      31.088 -25.145 -13.804  0.00  0.00    +0.034 C 
ATOM     26  C   UNL     1      28.744 -23.202 -16.820  0.00  0.00    +0.003 C 
ATOM     27  C   UNL     1      28.178 -24.203 -16.030  0.00  0.00    +0.036 C 
BRANCH  24  28
ATOM     28  O   UNL     1      28.374 -25.810 -14.287  0.00  0.00    -0.506 OA
ATOM     29  H   UNL     1      28.915 -26.398 -13.799  0.00  0.00    +0.292 HD
ENDBRANCH  24  28
ENDBRANCH  19  21
ENDBRANCH   2  18
TORSDOF 4
ENDMDL
MODEL 6
REMARK VINA RESULT:      -9.8      1.595      2.591
REMARK  Name = 6852140
REMARK  4 active torsions:
REMARK  status: ('A' for Active; 'I' for Inactive)
REMARK    1  A    between atoms: C_2  and  N_18
REMARK    2  A    between atoms: C_5  and  C_13
REMARK    3  A    between atoms: C_19  and  C_21
REMARK    4  A    between atoms: C_24  and  O_28
REMARK                            x       y       z     vdW  Elec       q    Type
REMARK                         _______ _______ _______ _____ _____    ______ ____
ROOT
ATOM      1  C   UNL     1      34.113 -23.448 -15.537  0.00  0.00    +0.014 C 
ATOM      2  C   UNL     1      35.335 -23.083 -16.126  0.00  0.00    +0.050 C 
ATOM      3  C   UNL     1      34.112 -24.367 -14.460  0.00  0.00    +0.001 C 
ATOM      4  C   UNL     1      32.893 -22.924 -15.994  0.00  0.00    +0.004 C 
ATOM      5  C   UNL     1      31.689 -23.299 -15.397  0.00  0.00    +0.031 C 
ATOM      6  C   UNL     1      32.890 -24.733 -13.871  0.00  0.00    +0.000 C 
ATOM      7  C   UNL     1      36.538 -23.615 -15.660  0.00  0.00    +0.015 C 
ATOM      8  C   UNL     1      35.332 -24.891 -14.003  0.00  0.00    +0.000 C 
ATOM      9  C   UNL     1      31.688 -24.200 -14.337  0.00  0.00    +0.003 C 
ATOM     10  C   UNL     1      36.536 -24.517 -14.601  0.00  0.00    +0.001 C 
ENDROOT
BRANCH   5  13
ATOM     11  N   UNL     1      29.330 -22.610 -15.040  0.00  0.00    -0.343 N 
ATOM     12  N   UNL     1      30.324 -22.367 -17.141  0.00  0.00    -0.285 NA
ATOM     13  C   UNL     1      30.434 -22.746 -15.880  0.00  0.00    +0.117 C 
ATOM     14  H   UNL     1      28.490 -22.234 -15.388  0.00  0.00    +0.144 HD
ATOM     15  H   UNL     1      29.391 -22.890 -14.098  0.00  0.00    +0.144 HD
ATOM     16  H   UNL     1      29.475 -21.992 -17.470  0.00  0.00    +0.188 HD
ENDBRANCH   5  13
BRANCH   2  18
ATOM     17  O   UNL     1      34.423 -23.448 -18.888  0.00  0.00    -0.270 OA
ATOM     18  N   UNL     1      35.398 -22.179 -17.195  0.00  0.00    -0.280 N 
ATOM     19  C   UNL     1      34.946 -22.409 -18.494  0.00  0.00    +0.249 C 
ATOM     20  H   UNL     1      35.800 -21.299 -17.012  0.00  0.00    +0.155 HD
BRANCH  19  21
ATOM     21  C   UNL     1      35.191 -21.288 -19.421  0.00  0.00    +0.053 C 
ATOM     22  C   UNL     1      34.132 -20.574 -19.960  0.00  0.00    +0.016 C 
ATOM     23  C   UNL     1      36.505 -20.973 -19.733  0.00  0.00    +0.004 C 
ATOM     24  C   UNL     1      34.393 -19.520 -20.834  0.00  0.00    +0.130 C 
ATOM     25  C   UNL     1      32.718 -20.919 -19.619  0.00  0.00    +0.034 C 
ATOM     26  C   UNL     1      36.766 -19.919 -20.607  0.00  0.00    +0.003 C 
ATOM     27  C   UNL     1      35.710 -19.192 -21.158  0.00  0.00    +0.036 C 
BRANCH  24  28
ATOM     28  O   UNL     1      33.376 -18.797 -21.383  0.00  0.00    -0.506 OA
ATOM     29  H   UNL     1      33.547 -18.217 -22.098  0.00  0.00    +0.292 HD
ENDBRANCH  24  28
ENDBRANCH  19  21
ENDBRANCH   2  18
TORSDOF 4
ENDMDL
MODEL 7
REMARK VINA RESULT:      -9.7     11.711     14.937
REMARK  Name = 6852140
REMARK  4 active torsions:
REMARK  status: ('A' for Active; 'I' for Inactive)
REMARK    1  A    between atoms: C_2  and  N_18
REMARK    2  A    between atoms: C_5  and  C_13
REMARK    3  A    between atoms: C_19  and  C_21
REMARK    4  A    between atoms: C_24  and  O_28
REMARK                            x       y       z     vdW  Elec       q    Type
REMARK                         _______ _______ _______ _____ _____    ______ ____
ROOT
ATOM      1  C   UNL     1      32.160 -11.149 -21.782  0.00  0.00    +0.014 C 
ATOM      2  C   UNL     1      31.892  -9.812 -21.443  0.00  0.00    +0.050 C 
ATOM      3  C   UNL     1      32.023 -12.154 -20.795  0.00  0.00    +0.001 C 
ATOM      4  C   UNL     1      32.565 -11.510 -23.078  0.00  0.00    +0.004 C 
ATOM      5  C   UNL     1      32.828 -12.842 -23.396  0.00  0.00    +0.031 C 
ATOM      6  C   UNL     1      32.291 -13.491 -21.134  0.00  0.00    +0.000 C 
ATOM      7  C   UNL     1      31.492  -9.472 -20.150  0.00  0.00    +0.015 C 
ATOM      8  C   UNL     1      31.618 -11.793 -19.499  0.00  0.00    +0.000 C 
ATOM      9  C   UNL     1      32.691 -13.831 -22.427  0.00  0.00    +0.003 C 
ATOM     10  C   UNL     1      31.356 -10.461 -19.181  0.00  0.00    +0.001 C 
ENDROOT
BRANCH   5  13
ATOM     11  N   UNL     1      33.768 -12.249 -25.617  0.00  0.00    -0.343 N 
ATOM     12  N   UNL     1      33.123 -14.448 -25.159  0.00  0.00    -0.285 NA
ATOM     13  C   UNL     1      33.245 -13.200 -24.743  0.00  0.00    +0.117 C 
ATOM     14  H   UNL     1      34.043 -12.513 -26.524  0.00  0.00    +0.144 HD
ATOM     15  H   UNL     1      33.864 -11.313 -25.326  0.00  0.00    +0.144 HD
ATOM     16  H   UNL     1      33.405 -14.692 -26.070  0.00  0.00    +0.188 HD
ENDBRANCH   5  13
BRANCH   2  18
ATOM     17  O   UNL     1      33.558  -7.404 -21.301  0.00  0.00    -0.270 OA
ATOM     18  N   UNL     1      32.012  -8.776 -22.377  0.00  0.00    -0.280 N 
ATOM     19  C   UNL     1      32.825  -7.649 -22.256  0.00  0.00    +0.249 C 
ATOM     20  H   UNL     1      31.472  -8.849 -23.197  0.00  0.00    +0.155 HD
BRANCH  19  21
ATOM     21  C   UNL     1      32.707  -6.700 -23.379  0.00  0.00    +0.053 C 
ATOM     22  C   UNL     1      31.668  -5.784 -23.422  0.00  0.00    +0.016 C 
ATOM     23  C   UNL     1      33.662  -6.753 -24.382  0.00  0.00    +0.004 C 
ATOM     24  C   UNL     1      31.582  -4.899 -24.496  0.00  0.00    +0.130 C 
ATOM     25  C   UNL     1      30.641  -5.732 -22.337  0.00  0.00    +0.034 C 
ATOM     26  C   UNL     1      33.576  -5.868 -25.456  0.00  0.00    +0.003 C 
ATOM     27  C   UNL     1      32.536  -4.941 -25.514  0.00  0.00    +0.036 C 
BRANCH  24  28
ATOM     28  O   UNL     1      30.573  -3.985 -24.570  0.00  0.00    -0.506 OA
ATOM     29  H   UNL     1      29.731  -4.188 -24.212  0.00  0.00    +0.292 HD
ENDBRANCH  24  28
ENDBRANCH  19  21
ENDBRANCH   2  18
TORSDOF 4
ENDMDL
MODEL 8
REMARK VINA RESULT:      -9.7     11.487     14.688
REMARK  Name = 6852140
REMARK  4 active torsions:
REMARK  status: ('A' for Active; 'I' for Inactive)
REMARK    1  A    between atoms: C_2  and  N_18
REMARK    2  A    between atoms: C_5  and  C_13
REMARK    3  A    between atoms: C_19  and  C_21
REMARK    4  A    between atoms: C_24  and  O_28
REMARK                            x       y       z     vdW  Elec       q    Type
REMARK                         _______ _______ _______ _____ _____    ______ ____
ROOT
ATOM      1  C   UNL     1      32.126 -11.244 -21.747  0.00  0.00    +0.014 C 
ATOM      2  C   UNL     1      31.807  -9.924 -21.383  0.00  0.00    +0.050 C 
ATOM      3  C   UNL     1      32.049 -12.267 -20.772  0.00  0.00    +0.001 C 
ATOM      4  C   UNL     1      32.520 -11.569 -23.055  0.00  0.00    +0.004 C 
ATOM      5  C   UNL     1      32.833 -12.884 -23.397  0.00  0.00    +0.031 C 
ATOM      6  C   UNL     1      32.368 -13.587 -21.136  0.00  0.00    +0.000 C 
ATOM      7  C   UNL     1      31.419  -9.620 -20.078  0.00  0.00    +0.015 C 
ATOM      8  C   UNL     1      31.655 -11.942 -19.464  0.00  0.00    +0.000 C 
ATOM      9  C   UNL     1      32.756 -13.891 -22.441  0.00  0.00    +0.003 C 
ATOM     10  C   UNL     1      31.343 -10.627 -19.121  0.00  0.00    +0.001 C 
ENDROOT
BRANCH   5  13
ATOM     11  N   UNL     1      33.756 -12.230 -25.608  0.00  0.00    -0.343 N 
ATOM     12  N   UNL     1      33.114 -14.441 -25.206  0.00  0.00    -0.285 NA
ATOM     13  C   UNL     1      33.239 -13.205 -24.757  0.00  0.00    +0.117 C 
ATOM     14  H   UNL     1      34.024 -12.470 -26.525  0.00  0.00    +0.144 HD
ATOM     15  H   UNL     1      33.855 -11.302 -25.293  0.00  0.00    +0.144 HD
ATOM     16  H   UNL     1      33.389 -14.660 -26.126  0.00  0.00    +0.188 HD
ENDBRANCH   5  13
BRANCH   2  18
ATOM     17  O   UNL     1      33.311  -7.414 -21.198  0.00  0.00    -0.270 OA
ATOM     18  N   UNL     1      31.867  -8.870 -22.304  0.00  0.00    -0.280 N 
ATOM     19  C   UNL     1      32.602  -7.695 -22.162  0.00  0.00    +0.249 C 
ATOM     20  H   UNL     1      31.338  -8.969 -23.129  0.00  0.00    +0.155 HD
BRANCH  19  21
ATOM     21  C   UNL     1      32.431  -6.742 -23.274  0.00  0.00    +0.053 C 
ATOM     22  C   UNL     1      33.410  -6.607 -24.246  0.00  0.00    +0.016 C 
ATOM     23  C   UNL     1      31.266  -5.990 -23.317  0.00  0.00    +0.004 C 
ATOM     24  C   UNL     1      33.221  -5.698 -25.286  0.00  0.00    +0.130 C 
ATOM     25  C   UNL     1      34.663  -7.421 -24.194  0.00  0.00    +0.034 C 
ATOM     26  C   UNL     1      31.077  -5.081 -24.358  0.00  0.00    +0.003 C 
ATOM     27  C   UNL     1      32.055  -4.935 -25.343  0.00  0.00    +0.036 C 
BRANCH  24  28
ATOM     28  O   UNL     1      34.164  -5.541 -26.258  0.00  0.00    -0.506 OA
ATOM     29  H   UNL     1      34.214  -4.737 -26.736  0.00  0.00    +0.292 HD
ENDBRANCH  24  28
ENDBRANCH  19  21
ENDBRANCH   2  18
TORSDOF 4
ENDMDL
MODEL 9
REMARK VINA RESULT:      -9.7      2.766      7.277
REMARK  Name = 6852140
REMARK  4 active torsions:
REMARK  status: ('A' for Active; 'I' for Inactive)
REMARK    1  A    between atoms: C_2  and  N_18
REMARK    2  A    between atoms: C_5  and  C_13
REMARK    3  A    between atoms: C_19  and  C_21
REMARK    4  A    between atoms: C_24  and  O_28
REMARK                            x       y       z     vdW  Elec       q    Type
REMARK                         _______ _______ _______ _____ _____    ______ ____
ROOT
ATOM      1  C   UNL     1      35.083 -22.612 -17.103  0.00  0.00    +0.014 C 
ATOM      2  C   UNL     1      33.799 -22.773 -17.652  0.00  0.00    +0.050 C 
ATOM      3  C   UNL     1      36.094 -21.998 -17.881  0.00  0.00    +0.001 C 
ATOM      4  C   UNL     1      35.384 -23.048 -15.803  0.00  0.00    +0.004 C 
ATOM      5  C   UNL     1      36.664 -22.880 -15.276  0.00  0.00    +0.031 C 
ATOM      6  C   UNL     1      37.378 -21.837 -17.332  0.00  0.00    +0.000 C 
ATOM      7  C   UNL     1      33.518 -22.334 -18.946  0.00  0.00    +0.015 C 
ATOM      8  C   UNL     1      35.793 -21.562 -19.181  0.00  0.00    +0.000 C 
ATOM      9  C   UNL     1      37.659 -22.275 -16.038  0.00  0.00    +0.003 C 
ATOM     10  C   UNL     1      34.513 -21.731 -19.709  0.00  0.00    +0.001 C 
ENDROOT
BRANCH   5  13
ATOM     11  N   UNL     1      36.030 -23.210 -12.897  0.00  0.00    -0.343 N 
ATOM     12  N   UNL     1      38.136 -23.876 -13.658  0.00  0.00    -0.285 NA
ATOM     13  C   UNL     1      36.961 -23.336 -13.927  0.00  0.00    +0.117 C 
ATOM     14  H   UNL     1      36.252 -23.525 -11.992  0.00  0.00    +0.144 HD
ATOM     15  H   UNL     1      35.149 -22.807 -13.076  0.00  0.00    +0.144 HD
ATOM     16  H   UNL     1      38.339 -24.185 -12.745  0.00  0.00    +0.188 HD
ENDBRANCH   5  13
BRANCH   2  18
ATOM     17  O   UNL     1      31.028 -21.866 -17.336  0.00  0.00    -0.270 OA
ATOM     18  N   UNL     1      32.759 -23.373 -16.931  0.00  0.00    -0.280 N 
ATOM     19  C   UNL     1      31.454 -22.895 -16.816  0.00  0.00    +0.249 C 
ATOM     20  H   UNL     1      32.968 -24.213 -16.462  0.00  0.00    +0.155 HD
BRANCH  19  21
ATOM     21  C   UNL     1      30.588 -23.716 -15.949  0.00  0.00    +0.053 C 
ATOM     22  C   UNL     1      30.910 -23.916 -14.616  0.00  0.00    +0.016 C 
ATOM     23  C   UNL     1      29.449 -24.276 -16.507  0.00  0.00    +0.004 C 
ATOM     24  C   UNL     1      30.073 -24.697 -13.820  0.00  0.00    +0.130 C 
ATOM     25  C   UNL     1      32.140 -23.308 -14.022  0.00  0.00    +0.034 C 
ATOM     26  C   UNL     1      28.612 -25.057 -15.711  0.00  0.00    +0.003 C 
ATOM     27  C   UNL     1      28.923 -25.268 -14.367  0.00  0.00    +0.036 C 
BRANCH  24  28
ATOM     28  O   UNL     1      30.360 -24.914 -12.505  0.00  0.00    -0.506 OA
ATOM     29  H   UNL     1      29.766 -24.622 -11.843  0.00  0.00    +0.292 HD
ENDBRANCH  24  28
ENDBRANCH  19  21
ENDBRANCH   2  18
TORSDOF 4
ENDMDL
