MODEL 1
REMARK VINA RESULT:      -8.4      0.000      0.000
REMARK  Name = 2138
REMARK  5 active torsions:
REMARK  status: ('A' for Active; 'I' for Inactive)
REMARK    1  A    between atoms: C_1  and  C_13
REMARK    2  A    between atoms: C_4  and  C_9
REMARK    3  A    between atoms: C_13  and  C_15
REMARK    4  A    between atoms: C_15  and  C_17
REMARK    5  A    between atoms: C_17  and  O_18
REMARK                            x       y       z     vdW  Elec       q    Type
REMARK                         _______ _______ _______ _____ _____    ______ ____
ROOT
ATOM      1  C   UNL     1      34.785 -19.284 -21.222  0.00  0.00    -0.014 C 
ATOM      2  C   UNL     1      33.414 -19.447 -21.026  0.00  0.00    -0.004 C 
ATOM      3  C   UNL     1      35.685 -20.170 -20.629  0.00  0.00    -0.004 C 
ATOM      4  C   UNL     1      33.842 -21.381 -19.643  0.00  0.00    +0.031 C 
ATOM      5  C   UNL     1      32.942 -20.495 -20.236  0.00  0.00    +0.002 C 
ATOM      6  C   UNL     1      35.213 -21.218 -19.840  0.00  0.00    +0.002 C 
ENDROOT
BRANCH   4   9
ATOM      7  N   UNL     1      32.251 -22.312 -17.980  0.00  0.00    -0.343 N 
ATOM      8  N   UNL     1      33.953 -23.650 -18.859  0.00  0.00    -0.285 NA
ATOM      9  C   UNL     1      33.351 -22.474 -18.820  0.00  0.00    +0.117 C 
ATOM     10  H   UNL     1      31.934 -23.066 -17.431  0.00  0.00    +0.144 HD
ATOM     11  H   UNL     1      31.790 -21.443 -17.934  0.00  0.00    +0.144 HD
ATOM     12  H   UNL     1      33.621 -24.392 -18.303  0.00  0.00    +0.188 HD
ENDBRANCH   4   9
BRANCH   1  13
ATOM     13  C   UNL     1      35.290 -18.162 -22.066  0.00  0.00    +0.102 C 
BRANCH  13  15
ATOM     14  O   UNL     1      34.959 -19.468 -24.102  0.00  0.00    -0.284 OA
ATOM     15  C   UNL     1      35.074 -18.383 -23.550  0.00  0.00    +0.252 C 
BRANCH  15  17
ATOM     16  O   UNL     1      34.496 -17.194 -25.529  0.00  0.00    -0.242 OA
ATOM     17  C   UNL     1      34.984 -17.161 -24.418  0.00  0.00    +0.374 C 
BRANCH  17  18
ATOM     18  O   UNL     1      35.554 -16.120 -23.800  0.00  0.00    -0.475 OA
ATOM     19  H   UNL     1      35.024 -15.496 -23.345  0.00  0.00    +0.295 HD
ENDBRANCH  17  18
ENDBRANCH  15  17
ENDBRANCH  13  15
ENDBRANCH   1  13
TORSDOF 5
ENDMDL
MODEL 2
REMARK VINA RESULT:      -8.4      1.351      1.784
REMARK  Name = 2138
REMARK  5 active torsions:
REMARK  status: ('A' for Active; 'I' for Inactive)
REMARK    1  A    between atoms: C_1  and  C_13
REMARK    2  A    between atoms: C_4  and  C_9
REMARK    3  A    between atoms: C_13  and  C_15
REMARK    4  A    between atoms: C_15  and  C_17
REMARK    5  A    between atoms: C_17  and  O_18
REMARK                            x       y       z     vdW  Elec       q    Type
REMARK                         _______ _______ _______ _____ _____    ______ ____
ROOT
ATOM      1  C   UNL     1      35.153 -19.355 -21.038  0.00  0.00    -0.014 C 
ATOM      2  C   UNL     1      33.766 -19.492 -21.008  0.00  0.00    -0.004 C 
ATOM      3  C   UNL     1      35.958 -20.260 -20.346  0.00  0.00    -0.004 C 
ATOM      4  C   UNL     1      33.988 -21.439 -19.594  0.00  0.00    +0.031 C 
ATOM      5  C   UNL     1      33.183 -20.534 -20.286  0.00  0.00    +0.002 C 
ATOM      6  C   UNL     1      35.376 -21.302 -19.625  0.00  0.00    +0.002 C 
ENDROOT
BRANCH   4   9
ATOM      7  N   UNL     1      32.264 -22.314 -18.037  0.00  0.00    -0.343 N 
ATOM      8  N   UNL     1      33.892 -23.742 -18.914  0.00  0.00    -0.285 NA
ATOM      9  C   UNL     1      33.381 -22.525 -18.843  0.00  0.00    +0.117 C 
ATOM     10  H   UNL     1      31.868 -23.064 -17.536  0.00  0.00    +0.144 HD
ATOM     11  H   UNL     1      31.869 -21.414 -17.968  0.00  0.00    +0.144 HD
ATOM     12  H   UNL     1      33.482 -24.478 -18.406  0.00  0.00    +0.188 HD
ENDBRANCH   4   9
BRANCH   1  13
ATOM     13  C   UNL     1      35.776 -18.241 -21.809  0.00  0.00    +0.102 C 
BRANCH  13  15
ATOM     14  O   UNL     1      35.095 -16.401 -20.357  0.00  0.00    -0.284 OA
ATOM     15  C   UNL     1      35.194 -16.882 -21.476  0.00  0.00    +0.252 C 
BRANCH  15  17
ATOM     16  O   UNL     1      33.622 -15.499 -22.608  0.00  0.00    -0.242 OA
ATOM     17  C   UNL     1      34.705 -16.047 -22.625  0.00  0.00    +0.374 C 
BRANCH  17  18
ATOM     18  O   UNL     1      35.600 -16.071 -23.620  0.00  0.00    -0.475 OA
ATOM     19  H   UNL     1      36.515 -16.006 -23.430  0.00  0.00    +0.295 HD
ENDBRANCH  17  18
ENDBRANCH  15  17
ENDBRANCH  13  15
ENDBRANCH   1  13
TORSDOF 5
ENDMDL
MODEL 3
REMARK VINA RESULT:      -8.4      0.040      1.248
REMARK  Name = 2138
REMARK  5 active torsions:
REMARK  status: ('A' for Active; 'I' for Inactive)
REMARK    1  A    between atoms: C_1  and  C_13
REMARK    2  A    between atoms: C_4  and  C_9
REMARK    3  A    between atoms: C_13  and  C_15
REMARK    4  A    between atoms: C_15  and  C_17
REMARK    5  A    between atoms: C_17  and  O_18
REMARK                            x       y       z     vdW  Elec       q    Type
REMARK                         _______ _______ _______ _____ _____    ______ ____
ROOT
ATOM      1  C   UNL     1      34.766 -19.248 -21.213  0.00  0.00    -0.014 C 
ATOM      2  C   UNL     1      35.671 -20.132 -20.625  0.00  0.00    -0.004 C 
ATOM      3  C   UNL     1      33.396 -19.421 -21.018  0.00  0.00    -0.004 C 
ATOM      4  C   UNL     1      33.835 -21.361 -19.648  0.00  0.00    +0.031 C 
ATOM      5  C   UNL     1      35.205 -21.189 -19.843  0.00  0.00    +0.002 C 
ATOM      6  C   UNL     1      32.931 -20.477 -20.236  0.00  0.00    +0.002 C 
ENDROOT
BRANCH   4   9
ATOM      7  N   UNL     1      32.258 -22.306 -17.979  0.00  0.00    -0.343 N 
ATOM      8  N   UNL     1      33.948 -23.639 -18.889  0.00  0.00    -0.285 NA
ATOM      9  C   UNL     1      33.349 -22.462 -18.832  0.00  0.00    +0.117 C 
ATOM     10  H   UNL     1      31.946 -23.065 -17.434  0.00  0.00    +0.144 HD
ATOM     11  H   UNL     1      31.800 -21.436 -17.919  0.00  0.00    +0.144 HD
ATOM     12  H   UNL     1      33.620 -24.385 -18.338  0.00  0.00    +0.188 HD
ENDBRANCH   4   9
BRANCH   1  13
ATOM     13  C   UNL     1      35.264 -18.118 -22.050  0.00  0.00    +0.102 C 
BRANCH  13  15
ATOM     14  O   UNL     1      34.980 -19.438 -24.084  0.00  0.00    -0.284 OA
ATOM     15  C   UNL     1      35.087 -18.350 -23.538  0.00  0.00    +0.252 C 
BRANCH  15  17
ATOM     16  O   UNL     1      34.561 -17.170 -25.537  0.00  0.00    -0.242 OA
ATOM     17  C   UNL     1      35.027 -17.134 -24.417  0.00  0.00    +0.374 C 
BRANCH  17  18
ATOM     18  O   UNL     1      35.597 -16.093 -23.796  0.00  0.00    -0.475 OA
ATOM     19  H   UNL     1      35.094 -15.324 -23.613  0.00  0.00    +0.295 HD
ENDBRANCH  17  18
ENDBRANCH  15  17
ENDBRANCH  13  15
ENDBRANCH   1  13
TORSDOF 5
ENDMDL
MODEL 4
REMARK VINA RESULT:      -7.8      8.190      9.142
REMARK  Name = 2138
REMARK  5 active torsions:
REMARK  status: ('A' for Active; 'I' for Inactive)
REMARK    1  A    between atoms: C_1  and  C_13
REMARK    2  A    between atoms: C_4  and  C_9
REMARK    3  A    between atoms: C_13  and  C_15
REMARK    4  A    between atoms: C_15  and  C_17
REMARK    5  A    between atoms: C_17  and  O_18
REMARK                            x       y       z     vdW  Elec       q    Type
REMARK                         _______ _______ _______ _____ _____    ______ ____
ROOT
ATOM      1  C   UNL     1      30.106 -24.136 -15.252  0.00  0.00    -0.014 C 
ATOM      2  C   UNL     1      31.121 -23.388 -15.849  0.00  0.00    -0.004 C 
ATOM      3  C   UNL     1      30.387 -24.930 -14.140  0.00  0.00    -0.004 C 
ATOM      4  C   UNL     1      32.697 -24.228 -14.222  0.00  0.00    +0.031 C 
ATOM      5  C   UNL     1      32.416 -23.434 -15.334  0.00  0.00    +0.002 C 
ATOM      6  C   UNL     1      31.682 -24.976 -13.626  0.00  0.00    +0.002 C 
ENDROOT
BRANCH   4   9
ATOM      7  N   UNL     1      35.071 -24.943 -14.354  0.00  0.00    -0.343 N 
ATOM      8  N   UNL     1      34.321 -23.680 -12.537  0.00  0.00    -0.285 NA
ATOM      9  C   UNL     1      34.047 -24.275 -13.685  0.00  0.00    +0.117 C 
ATOM     10  H   UNL     1      35.978 -24.964 -13.972  0.00  0.00    +0.144 HD
ATOM     11  H   UNL     1      34.887 -25.396 -15.209  0.00  0.00    +0.144 HD
ATOM     12  H   UNL     1      35.234 -23.711 -12.172  0.00  0.00    +0.188 HD
ENDBRANCH   4   9
BRANCH   1  13
ATOM     13  C   UNL     1      28.721 -24.087 -15.803  0.00  0.00    +0.102 C 
BRANCH  13  15
ATOM     14  O   UNL     1      28.256 -21.799 -15.092  0.00  0.00    -0.284 OA
ATOM     15  C   UNL     1      28.176 -22.679 -15.936  0.00  0.00    +0.252 C 
BRANCH  15  17
ATOM     16  O   UNL     1      26.903 -21.278 -17.378  0.00  0.00    -0.242 OA
ATOM     17  C   UNL     1      27.486 -22.331 -17.224  0.00  0.00    +0.374 C 
BRANCH  17  18
ATOM     18  O   UNL     1      27.581 -23.353 -18.083  0.00  0.00    -0.475 OA
ATOM     19  H   UNL     1      27.412 -23.217 -18.994  0.00  0.00    +0.295 HD
ENDBRANCH  17  18
ENDBRANCH  15  17
ENDBRANCH  13  15
ENDBRANCH   1  13
TORSDOF 5
ENDMDL
MODEL 5
REMARK VINA RESULT:      -7.6      4.974      6.766
REMARK  Name = 2138
REMARK  5 active torsions:
REMARK  status: ('A' for Active; 'I' for Inactive)
REMARK    1  A    between atoms: C_1  and  C_13
REMARK    2  A    between atoms: C_4  and  C_9
REMARK    3  A    between atoms: C_13  and  C_15
REMARK    4  A    between atoms: C_15  and  C_17
REMARK    5  A    between atoms: C_17  and  O_18
REMARK                            x       y       z     vdW  Elec       q    Type
REMARK                         _______ _______ _______ _____ _____    ______ ____
ROOT
ATOM      1  C   UNL     1      34.262 -21.825 -19.633  0.00  0.00    -0.014 C 
ATOM      2  C   UNL     1      35.621 -21.518 -19.689  0.00  0.00    -0.004 C 
ATOM      3  C   UNL     1      33.323 -20.928 -20.144  0.00  0.00    -0.004 C 
ATOM      4  C   UNL     1      35.103 -19.418 -20.766  0.00  0.00    +0.031 C 
ATOM      5  C   UNL     1      36.042 -20.315 -20.255  0.00  0.00    +0.002 C 
ATOM      6  C   UNL     1      33.744 -19.725 -20.710  0.00  0.00    +0.002 C 
ENDROOT
BRANCH   4   9
ATOM      7  N   UNL     1      36.226 -18.135 -22.570  0.00  0.00    -0.343 N 
ATOM      8  N   UNL     1      35.295 -17.022 -20.738  0.00  0.00    -0.285 NA
ATOM      9  C   UNL     1      35.541 -18.164 -21.357  0.00  0.00    +0.117 C 
ATOM     10  H   UNL     1      36.514 -17.274 -22.953  0.00  0.00    +0.144 HD
ATOM     11  H   UNL     1      36.422 -18.975 -23.046  0.00  0.00    +0.144 HD
ATOM     12  H   UNL     1      35.591 -16.173 -21.137  0.00  0.00    +0.188 HD
ENDBRANCH   4   9
BRANCH   1  13
ATOM     13  C   UNL     1      33.811 -23.111 -19.027  0.00  0.00    +0.102 C 
BRANCH  13  15
ATOM     14  O   UNL     1      32.009 -22.606 -17.460  0.00  0.00    -0.284 OA
ATOM     15  C   UNL     1      33.167 -22.941 -17.666  0.00  0.00    +0.252 C 
BRANCH  15  17
ATOM     16  O   UNL     1      35.201 -23.493 -16.562  0.00  0.00    -0.242 OA
ATOM     17  C   UNL     1      34.024 -23.216 -16.464  0.00  0.00    +0.374 C 
BRANCH  17  18
ATOM     18  O   UNL     1      33.282 -23.157 -15.351  0.00  0.00    -0.475 OA
ATOM     19  H   UNL     1      33.696 -23.086 -14.514  0.00  0.00    +0.295 HD
ENDBRANCH  17  18
ENDBRANCH  15  17
ENDBRANCH  13  15
ENDBRANCH   1  13
TORSDOF 5
ENDMDL
MODEL 6
REMARK VINA RESULT:      -7.6      7.607      8.745
REMARK  Name = 2138
REMARK  5 active torsions:
REMARK  status: ('A' for Active; 'I' for Inactive)
REMARK    1  A    between atoms: C_1  and  C_13
REMARK    2  A    between atoms: C_4  and  C_9
REMARK    3  A    between atoms: C_13  and  C_15
REMARK    4  A    between atoms: C_15  and  C_17
REMARK    5  A    between atoms: C_17  and  O_18
REMARK                            x       y       z     vdW  Elec       q    Type
REMARK                         _______ _______ _______ _____ _____    ______ ____
ROOT
ATOM      1  C   UNL     1      30.524 -23.901 -15.305  0.00  0.00    -0.014 C 
ATOM      2  C   UNL     1      31.273 -23.360 -16.350  0.00  0.00    -0.004 C 
ATOM      3  C   UNL     1      31.160 -24.326 -14.139  0.00  0.00    -0.004 C 
ATOM      4  C   UNL     1      33.293 -23.669 -15.062  0.00  0.00    +0.031 C 
ATOM      5  C   UNL     1      32.657 -23.244 -16.229  0.00  0.00    +0.002 C 
ATOM      6  C   UNL     1      32.544 -24.210 -14.018  0.00  0.00    +0.002 C 
ENDROOT
BRANCH   4   9
ATOM      7  N   UNL     1      35.329 -23.164 -13.734  0.00  0.00    -0.343 N 
ATOM      8  N   UNL     1      35.513 -23.801 -15.975  0.00  0.00    -0.285 NA
ATOM      9  C   UNL     1      34.736 -23.548 -14.936  0.00  0.00    +0.117 C 
ATOM     10  H   UNL     1      36.309 -23.088 -13.670  0.00  0.00    +0.144 HD
ATOM     11  H   UNL     1      34.768 -22.969 -12.948  0.00  0.00    +0.144 HD
ATOM     12  H   UNL     1      36.490 -23.719 -15.890  0.00  0.00    +0.188 HD
ENDBRANCH   4   9
BRANCH   1  13
ATOM     13  C   UNL     1      29.043 -24.026 -15.435  0.00  0.00    +0.102 C 
BRANCH  13  15
ATOM     14  O   UNL     1      28.297 -21.733 -15.056  0.00  0.00    -0.284 OA
ATOM     15  C   UNL     1      28.358 -22.718 -15.777  0.00  0.00    +0.252 C 
BRANCH  15  17
ATOM     16  O   UNL     1      27.770 -23.518 -17.940  0.00  0.00    -0.242 OA
ATOM     17  C   UNL     1      27.704 -22.621 -17.126  0.00  0.00    +0.374 C 
BRANCH  17  18
ATOM     18  O   UNL     1      27.128 -21.421 -17.268  0.00  0.00    -0.475 OA
ATOM     19  H   UNL     1      27.050 -21.036 -18.118  0.00  0.00    +0.295 HD
ENDBRANCH  17  18
ENDBRANCH  15  17
ENDBRANCH  13  15
ENDBRANCH   1  13
TORSDOF 5
ENDMDL
MODEL 7
REMARK VINA RESULT:      -7.5      4.734      6.413
REMARK  Name = 2138
REMARK  5 active torsions:
REMARK  status: ('A' for Active; 'I' for Inactive)
REMARK    1  A    between atoms: C_1  and  C_13
REMARK    2  A    between atoms: C_4  and  C_9
REMARK    3  A    between atoms: C_13  and  C_15
REMARK    4  A    between atoms: C_15  and  C_17
REMARK    5  A    between atoms: C_17  and  O_18
REMARK                            x       y       z     vdW  Elec       q    Type
REMARK                         _______ _______ _______ _____ _____    ______ ____
ROOT
ATOM      1  C   UNL     1      34.690 -21.188 -20.030  0.00  0.00    -0.014 C 
ATOM      2  C   UNL     1      33.575 -20.455 -20.435  0.00  0.00    -0.004 C 
ATOM      3  C   UNL     1      35.969 -20.652 -20.181  0.00  0.00    -0.004 C 
ATOM      4  C   UNL     1      35.017 -18.650 -21.140  0.00  0.00    +0.031 C 
ATOM      5  C   UNL     1      33.738 -19.186 -20.990  0.00  0.00    +0.002 C 
ATOM      6  C   UNL     1      36.132 -19.383 -20.735  0.00  0.00    +0.002 C 
ENDROOT
BRANCH   4   9
ATOM      7  N   UNL     1      34.889 -16.174 -20.992  0.00  0.00    -0.343 N 
ATOM      8  N   UNL     1      35.629 -17.200 -22.957  0.00  0.00    -0.285 NA
ATOM      9  C   UNL     1      35.187 -17.327 -21.718  0.00  0.00    +0.117 C 
ATOM     10  H   UNL     1      35.011 -15.288 -21.402  0.00  0.00    +0.144 HD
ATOM     11  H   UNL     1      34.556 -16.247 -20.068  0.00  0.00    +0.144 HD
ATOM     12  H   UNL     1      35.745 -16.305 -23.349  0.00  0.00    +0.188 HD
ENDBRANCH   4   9
BRANCH   1  13
ATOM     13  C   UNL     1      34.516 -22.546 -19.437  0.00  0.00    +0.102 C 
BRANCH  13  15
ATOM     14  O   UNL     1      32.332 -22.243 -18.390  0.00  0.00    -0.284 OA
ATOM     15  C   UNL     1      33.504 -22.584 -18.310  0.00  0.00    +0.252 C 
BRANCH  15  17
ATOM     16  O   UNL     1      33.208 -23.423 -16.103  0.00  0.00    -0.242 OA
ATOM     17  C   UNL     1      33.979 -23.093 -16.980  0.00  0.00    +0.374 C 
BRANCH  17  18
ATOM     18  O   UNL     1      35.316 -23.062 -16.931  0.00  0.00    -0.475 OA
ATOM     19  H   UNL     1      35.794 -23.824 -16.671  0.00  0.00    +0.295 HD
ENDBRANCH  17  18
ENDBRANCH  15  17
ENDBRANCH  13  15
ENDBRANCH   1  13
TORSDOF 5
ENDMDL
MODEL 8
REMARK VINA RESULT:      -7.5      4.546      6.379
REMARK  Name = 2138
REMARK  5 active torsions:
REMARK  status: ('A' for Active; 'I' for Inactive)
REMARK    1  A    between atoms: C_1  and  C_13
REMARK    2  A    between atoms: C_4  and  C_9
REMARK    3  A    between atoms: C_13  and  C_15
REMARK    4  A    between atoms: C_15  and  C_17
REMARK    5  A    between atoms: C_17  and  O_18
REMARK                            x       y       z     vdW  Elec       q    Type
REMARK                         _______ _______ _______ _____ _____    ______ ____
ROOT
ATOM      1  C   UNL     1      34.857 -19.022 -21.502  0.00  0.00    -0.014 C 
ATOM      2  C   UNL     1      34.659 -17.779 -20.902  0.00  0.00    -0.004 C 
ATOM      3  C   UNL     1      34.886 -19.128 -22.892  0.00  0.00    -0.004 C 
ATOM      4  C   UNL     1      34.518 -16.748 -23.082  0.00  0.00    +0.031 C 
ATOM      5  C   UNL     1      34.489 -16.642 -21.691  0.00  0.00    +0.002 C 
ATOM      6  C   UNL     1      34.716 -17.992 -23.682  0.00  0.00    +0.002 C 
ENDROOT
BRANCH   4   9
ATOM      7  N   UNL     1      33.788 -15.644 -25.183  0.00  0.00    -0.343 N 
ATOM      8  N   UNL     1      34.713 -14.381 -23.447  0.00  0.00    -0.285 NA
ATOM      9  C   UNL     1      34.342 -15.564 -23.906  0.00  0.00    +0.117 C 
ATOM     10  H   UNL     1      33.678 -14.829 -25.724  0.00  0.00    +0.144 HD
ATOM     11  H   UNL     1      33.508 -16.516 -25.544  0.00  0.00    +0.144 HD
ATOM     12  H   UNL     1      34.593 -13.578 -24.004  0.00  0.00    +0.188 HD
ENDBRANCH   4   9
BRANCH   1  13
ATOM     13  C   UNL     1      35.038 -20.238 -20.657  0.00  0.00    +0.102 C 
BRANCH  13  15
ATOM     14  O   UNL     1      32.613 -20.436 -20.467  0.00  0.00    -0.284 OA
ATOM     15  C   UNL     1      33.731 -20.835 -20.176  0.00  0.00    +0.252 C 
BRANCH  15  17
ATOM     16  O   UNL     1      34.816 -22.714 -19.197  0.00  0.00    -0.242 OA
ATOM     17  C   UNL     1      33.817 -22.029 -19.269  0.00  0.00    +0.374 C 
BRANCH  17  18
ATOM     18  O   UNL     1      32.647 -22.212 -18.644  0.00  0.00    -0.475 OA
ATOM     19  H   UNL     1      32.233 -21.496 -18.204  0.00  0.00    +0.295 HD
ENDBRANCH  17  18
ENDBRANCH  15  17
ENDBRANCH  13  15
ENDBRANCH   1  13
TORSDOF 5
ENDMDL
MODEL 9
REMARK VINA RESULT:      -7.3      4.846      6.389
REMARK  Name = 2138
REMARK  5 active torsions:
REMARK  status: ('A' for Active; 'I' for Inactive)
REMARK    1  A    between atoms: C_1  and  C_13
REMARK    2  A    between atoms: C_4  and  C_9
REMARK    3  A    between atoms: C_13  and  C_15
REMARK    4  A    between atoms: C_15  and  C_17
REMARK    5  A    between atoms: C_17  and  O_18
REMARK                            x       y       z     vdW  Elec       q    Type
REMARK                         _______ _______ _______ _____ _____    ______ ____
ROOT
ATOM      1  C   UNL     1      35.040 -20.740 -20.375  0.00  0.00    -0.014 C 
ATOM      2  C   UNL     1      36.230 -20.032 -20.539  0.00  0.00    -0.004 C 
ATOM      3  C   UNL     1      33.816 -20.110 -20.599  0.00  0.00    -0.004 C 
ATOM      4  C   UNL     1      34.972 -18.062 -21.151  0.00  0.00    +0.031 C 
ATOM      5  C   UNL     1      36.196 -18.692 -20.927  0.00  0.00    +0.002 C 
ATOM      6  C   UNL     1      33.783 -18.770 -20.987  0.00  0.00    +0.002 C 
ENDROOT
BRANCH   4   9
ATOM      7  N   UNL     1      35.010 -16.298 -22.898  0.00  0.00    -0.343 N 
ATOM      8  N   UNL     1      34.837 -15.717 -20.641  0.00  0.00    -0.285 NA
ATOM      9  C   UNL     1      34.937 -16.666 -21.556  0.00  0.00    +0.117 C 
ATOM     10  H   UNL     1      34.985 -15.346 -23.150  0.00  0.00    +0.144 HD
ATOM     11  H   UNL     1      35.087 -16.990 -23.595  0.00  0.00    +0.144 HD
ATOM     12  H   UNL     1      34.813 -14.771 -20.914  0.00  0.00    +0.188 HD
ENDBRANCH   4   9
BRANCH   1  13
ATOM     13  C   UNL     1      35.076 -22.173 -19.960  0.00  0.00    +0.102 C 
BRANCH  13  15
ATOM     14  O   UNL     1      35.870 -22.127 -17.652  0.00  0.00    -0.284 OA
ATOM     15  C   UNL     1      34.984 -22.365 -18.459  0.00  0.00    +0.252 C 
BRANCH  15  17
ATOM     16  O   UNL     1      32.611 -22.484 -18.314  0.00  0.00    -0.242 OA
ATOM     17  C   UNL     1      33.685 -22.886 -17.915  0.00  0.00    +0.374 C 
BRANCH  17  18
ATOM     18  O   UNL     1      33.921 -23.770 -16.938  0.00  0.00    -0.475 OA
ATOM     19  H   UNL     1      34.750 -24.203 -16.887  0.00  0.00    +0.295 HD
ENDBRANCH  17  18
ENDBRANCH  15  17
ENDBRANCH  13  15
ENDBRANCH   1  13
TORSDOF 5
ENDMDL
