MODEL 1
REMARK VINA RESULT:      -7.2      0.000      0.000
REMARK  Name = 23649181
REMARK  7 active torsions:
REMARK  status: ('A' for Active; 'I' for Inactive)
REMARK    1  A    between atoms: C_2  and  C_12
REMARK    2  A    between atoms: C_5  and  C_32
REMARK    3  A    between atoms: C_7  and  N_25
REMARK    4  A    between atoms: C_8  and  N_22
REMARK    5  A    between atoms: C_9  and  N_28
REMARK    6  A    between atoms: C_15  and  O_18
REMARK    7  A    between atoms: C_17  and  O_20
REMARK                            x       y       z     vdW  Elec       q    Type
REMARK                         _______ _______ _______ _____ _____    ______ ____
ROOT
ATOM      1  O   UNL     1      32.428 -23.862 -17.386  0.00  0.00    -0.439 OA
ATOM      2  C   UNL     1      34.368 -22.743 -15.550  0.00  0.00    +0.013 C 
ATOM      3  C   UNL     1      33.009 -23.245 -15.109  0.00  0.00    +0.019 C 
ATOM      4  C   UNL     1      32.128 -23.786 -16.048  0.00  0.00    +0.157 C 
ATOM      5  C   UNL     1      34.486 -22.663 -17.064  0.00  0.00    +0.117 C 
ATOM      6  C   UNL     1      32.615 -23.182 -13.765  0.00  0.00    +0.057 C 
ATOM      7  C   UNL     1      30.884 -24.282 -15.655  0.00  0.00    +0.089 C 
ATOM      8  C   UNL     1      33.554 -23.206 -17.881  0.00  0.00    +0.202 C 
ATOM      9  C   UNL     1      30.504 -24.224 -14.314  0.00  0.00    +0.054 C 
ATOM     10  C   UNL     1      31.368 -23.671 -13.371  0.00  0.00    -0.006 C 
ENDROOT
BRANCH   2  12
ATOM     11 BR   UNL     1      36.911 -27.441 -15.649  0.00  0.00    -0.046 Br
ATOM     12  C   UNL     1      35.460 -23.604 -14.985  0.00  0.00    +0.004 C 
ATOM     13  C   UNL     1      36.274 -23.116 -13.963  0.00  0.00    +0.040 C 
ATOM     14  C   UNL     1      35.659 -24.894 -15.479  0.00  0.00    +0.010 C 
ATOM     15  C   UNL     1      37.287 -23.917 -13.436  0.00  0.00    +0.173 C 
ATOM     16  C   UNL     1      36.672 -25.694 -14.951  0.00  0.00    +0.072 C 
ATOM     17  C   UNL     1      37.486 -25.205 -13.930  0.00  0.00    +0.178 C 
BRANCH  15  18
ATOM     18  O   UNL     1      38.075 -23.426 -12.438  0.00  0.00    -0.468 OA
ATOM     19  C   UNL     1      37.420 -22.735 -11.376  0.00  0.00    +0.253 C 
ENDBRANCH  15  18
BRANCH  17  20
ATOM     20  O   UNL     1      38.483 -25.973 -13.402  0.00  0.00    -0.468 OA
ATOM     21  C   UNL     1      39.793 -25.784 -13.930  0.00  0.00    +0.253 C 
ENDBRANCH  17  20
ENDBRANCH   2  12
BRANCH   8  22
ATOM     22  N   UNL     1      33.605 -23.179 -19.248  0.00  0.00    -0.328 N 
ATOM     23  H   UNL     1      33.935 -22.376 -19.713  0.00  0.00    +0.145 HD
ATOM     24  H   UNL     1      33.312 -23.963 -19.767  0.00  0.00    +0.145 HD
ENDBRANCH   8  22
BRANCH   7  25
ATOM     25  N   UNL     1      30.005 -24.837 -16.616  0.00  0.00    -0.354 N 
ATOM     26  H   UNL     1      29.084 -25.074 -16.360  0.00  0.00    +0.142 HD
ATOM     27  H   UNL     1      30.314 -24.987 -17.538  0.00  0.00    +0.142 HD
ENDBRANCH   7  25
BRANCH   9  28
ATOM     28  N   UNL     1      29.250 -24.714 -13.891  0.00  0.00    -0.356 N 
ATOM     29  H   UNL     1      28.700 -24.188 -13.267  0.00  0.00    +0.142 HD
ATOM     30  H   UNL     1      28.925 -25.584 -14.221  0.00  0.00    +0.142 HD
ENDBRANCH   9  28
BRANCH   5  32
ATOM     31  N   UNL     1      36.522 -21.403 -18.058  0.00  0.00    -0.191 NA
ATOM     32  C   UNL     1      35.611 -21.966 -17.613  0.00  0.00    +0.105 C 
ENDBRANCH   5  32
TORSDOF 7
ENDMDL
MODEL 2
REMARK VINA RESULT:      -7.0     16.194     18.931
REMARK  Name = 23649181
REMARK  7 active torsions:
REMARK  status: ('A' for Active; 'I' for Inactive)
REMARK    1  A    between atoms: C_2  and  C_12
REMARK    2  A    between atoms: C_5  and  C_32
REMARK    3  A    between atoms: C_7  and  N_25
REMARK    4  A    between atoms: C_8  and  N_22
REMARK    5  A    between atoms: C_9  and  N_28
REMARK    6  A    between atoms: C_15  and  O_18
REMARK    7  A    between atoms: C_17  and  O_20
REMARK                            x       y       z     vdW  Elec       q    Type
REMARK                         _______ _______ _______ _____ _____    ______ ____
ROOT
ATOM      1  O   UNL     1      31.995 -10.624 -21.978  0.00  0.00    -0.439 OA
ATOM      2  C   UNL     1      33.643  -8.299 -22.491  0.00  0.00    +0.013 C 
ATOM      3  C   UNL     1      33.712  -9.559 -23.327  0.00  0.00    +0.019 C 
ATOM      4  C   UNL     1      32.876 -10.638 -23.031  0.00  0.00    +0.157 C 
ATOM      5  C   UNL     1      32.815  -8.492 -21.230  0.00  0.00    +0.117 C 
ATOM      6  C   UNL     1      34.601  -9.664 -24.406  0.00  0.00    +0.057 C 
ATOM      7  C   UNL     1      32.904 -11.795 -23.811  0.00  0.00    +0.089 C 
ATOM      8  C   UNL     1      32.057  -9.596 -21.039  0.00  0.00    +0.202 C 
ATOM      9  C   UNL     1      33.785 -11.887 -24.888  0.00  0.00    +0.054 C 
ATOM     10  C   UNL     1      34.635 -10.824 -25.183  0.00  0.00    -0.006 C 
ENDROOT
BRANCH   2  12
ATOM     11 BR   UNL     1      34.177  -5.185 -26.798  0.00  0.00    -0.046 Br
ATOM     12  C   UNL     1      33.107  -7.154 -23.299  0.00  0.00    +0.004 C 
ATOM     13  C   UNL     1      31.958  -6.482 -22.881  0.00  0.00    +0.040 C 
ATOM     14  C   UNL     1      33.759  -6.758 -24.468  0.00  0.00    +0.010 C 
ATOM     15  C   UNL     1      31.462  -5.416 -23.631  0.00  0.00    +0.173 C 
ATOM     16  C   UNL     1      33.262  -5.692 -25.217  0.00  0.00    +0.072 C 
ATOM     17  C   UNL     1      32.113  -5.021 -24.798  0.00  0.00    +0.178 C 
BRANCH  15  18
ATOM     18  O   UNL     1      30.339  -4.770 -23.209  0.00  0.00    -0.468 OA
ATOM     19  C   UNL     1      30.084  -4.760 -21.805  0.00  0.00    +0.253 C 
ENDBRANCH  15  18
BRANCH  17  20
ATOM     20  O   UNL     1      31.612  -3.976 -25.518  0.00  0.00    -0.468 OA
ATOM     21  C   UNL     1      32.005  -2.666 -25.117  0.00  0.00    +0.253 C 
ENDBRANCH  17  20
ENDBRANCH   2  12
BRANCH   8  22
ATOM     22  N   UNL     1      31.281  -9.826 -19.936  0.00  0.00    -0.328 N 
ATOM     23  H   UNL     1      30.966 -10.737 -19.735  0.00  0.00    +0.145 HD
ATOM     24  H   UNL     1      31.035  -9.080 -19.342  0.00  0.00    +0.145 HD
ENDBRANCH   8  22
BRANCH   7  25
ATOM     25  N   UNL     1      32.044 -12.878 -23.506  0.00  0.00    -0.354 N 
ATOM     26  H   UNL     1      32.104 -13.320 -22.628  0.00  0.00    +0.142 HD
ATOM     27  H   UNL     1      31.386 -13.187 -24.169  0.00  0.00    +0.142 HD
ENDBRANCH   7  25
BRANCH   9  28
ATOM     28  N   UNL     1      33.835 -13.048 -25.690  0.00  0.00    -0.356 N 
ATOM     29  H   UNL     1      33.766 -13.938 -25.274  0.00  0.00    +0.142 HD
ATOM     30  H   UNL     1      33.939 -12.968 -26.666  0.00  0.00    +0.142 HD
ENDBRANCH   9  28
BRANCH   5  32
ATOM     31  N   UNL     1      32.928  -6.649 -19.410  0.00  0.00    -0.191 NA
ATOM     32  C   UNL     1      32.878  -7.474 -20.224  0.00  0.00    +0.105 C 
ENDBRANCH   5  32
TORSDOF 7
ENDMDL
MODEL 3
REMARK VINA RESULT:      -6.7     14.834     17.383
REMARK  Name = 23649181
REMARK  7 active torsions:
REMARK  status: ('A' for Active; 'I' for Inactive)
REMARK    1  A    between atoms: C_2  and  C_12
REMARK    2  A    between atoms: C_5  and  C_32
REMARK    3  A    between atoms: C_7  and  N_25
REMARK    4  A    between atoms: C_8  and  N_22
REMARK    5  A    between atoms: C_9  and  N_28
REMARK    6  A    between atoms: C_15  and  O_18
REMARK    7  A    between atoms: C_17  and  O_20
REMARK                            x       y       z     vdW  Elec       q    Type
REMARK                         _______ _______ _______ _____ _____    ______ ____
ROOT
ATOM      1  O   UNL     1      32.508  -6.656 -21.232  0.00  0.00    -0.439 OA
ATOM      2  C   UNL     1      31.261  -9.165 -21.964  0.00  0.00    +0.013 C 
ATOM      3  C   UNL     1      31.178  -7.921 -22.823  0.00  0.00    +0.019 C 
ATOM      4  C   UNL     1      31.816  -6.748 -22.415  0.00  0.00    +0.157 C 
ATOM      5  C   UNL     1      31.842  -8.875 -20.590  0.00  0.00    +0.117 C 
ATOM      6  C   UNL     1      30.471  -7.923 -24.034  0.00  0.00    +0.057 C 
ATOM      7  C   UNL     1      31.776  -5.601 -23.209  0.00  0.00    +0.089 C 
ATOM      8  C   UNL     1      32.419  -7.686 -20.297  0.00  0.00    +0.202 C 
ATOM      9  C   UNL     1      31.078  -5.615 -24.416  0.00  0.00    +0.054 C 
ATOM     10  C   UNL     1      30.424  -6.775 -24.827  0.00  0.00    -0.006 C 
ENDROOT
BRANCH   2  12
ATOM     11 BR   UNL     1      35.172 -10.358 -25.403  0.00  0.00    -0.046 Br
ATOM     12  C   UNL     1      32.058 -10.233 -22.654  0.00  0.00    +0.004 C 
ATOM     13  C   UNL     1      31.787 -11.578 -22.402  0.00  0.00    +0.040 C 
ATOM     14  C   UNL     1      33.069  -9.882 -23.550  0.00  0.00    +0.010 C 
ATOM     15  C   UNL     1      32.525 -12.571 -23.046  0.00  0.00    +0.173 C 
ATOM     16  C   UNL     1      33.807 -10.876 -24.193  0.00  0.00    +0.072 C 
ATOM     17  C   UNL     1      33.535 -12.220 -23.941  0.00  0.00    +0.178 C 
BRANCH  15  18
ATOM     18  O   UNL     1      32.248 -13.880 -22.790  0.00  0.00    -0.468 OA
ATOM     19  C   UNL     1      32.639 -14.389 -21.516  0.00  0.00    +0.253 C 
ENDBRANCH  15  18
BRANCH  17  20
ATOM     20  O   UNL     1      34.247 -13.206 -24.560  0.00  0.00    -0.468 OA
ATOM     21  C   UNL     1      33.614 -13.874 -25.649  0.00  0.00    +0.253 C 
ENDBRANCH  17  20
ENDBRANCH   2  12
BRANCH   8  22
ATOM     22  N   UNL     1      32.970  -7.364 -19.086  0.00  0.00    -0.328 N 
ATOM     23  H   UNL     1      32.404  -7.003 -18.367  0.00  0.00    +0.145 HD
ATOM     24  H   UNL     1      33.934  -7.494 -18.934  0.00  0.00    +0.145 HD
ENDBRANCH   8  22
BRANCH   7  25
ATOM     25  N   UNL     1      32.436  -4.422 -22.787  0.00  0.00    -0.354 N 
ATOM     26  H   UNL     1      32.125  -3.544 -23.107  0.00  0.00    +0.142 HD
ATOM     27  H   UNL     1      33.204  -4.479 -22.175  0.00  0.00    +0.142 HD
ENDBRANCH   7  25
BRANCH   9  28
ATOM     28  N   UNL     1      31.019  -4.467 -25.237  0.00  0.00    -0.356 N 
ATOM     29  H   UNL     1      31.643  -4.368 -25.991  0.00  0.00    +0.142 HD
ATOM     30  H   UNL     1      30.352  -3.766 -25.054  0.00  0.00    +0.142 HD
ENDBRANCH   9  28
BRANCH   5  32
ATOM     31  N   UNL     1      31.657 -10.719 -18.777  0.00  0.00    -0.191 NA
ATOM     32  C   UNL     1      31.740  -9.894 -19.589  0.00  0.00    +0.105 C 
ENDBRANCH   5  32
TORSDOF 7
ENDMDL
MODEL 4
REMARK VINA RESULT:      -6.7      1.356      2.231
REMARK  Name = 23649181
REMARK  7 active torsions:
REMARK  status: ('A' for Active; 'I' for Inactive)
REMARK    1  A    between atoms: C_2  and  C_12
REMARK    2  A    between atoms: C_5  and  C_32
REMARK    3  A    between atoms: C_7  and  N_25
REMARK    4  A    between atoms: C_8  and  N_22
REMARK    5  A    between atoms: C_9  and  N_28
REMARK    6  A    between atoms: C_15  and  O_18
REMARK    7  A    between atoms: C_17  and  O_20
REMARK                            x       y       z     vdW  Elec       q    Type
REMARK                         _______ _______ _______ _____ _____    ______ ____
ROOT
ATOM      1  O   UNL     1      32.362 -23.916 -17.376  0.00  0.00    -0.439 OA
ATOM      2  C   UNL     1      34.255 -22.855 -15.460  0.00  0.00    +0.013 C 
ATOM      3  C   UNL     1      32.863 -23.309 -15.078  0.00  0.00    +0.019 C 
ATOM      4  C   UNL     1      32.007 -23.826 -16.053  0.00  0.00    +0.157 C 
ATOM      5  C   UNL     1      34.442 -22.784 -16.967  0.00  0.00    +0.117 C 
ATOM      6  C   UNL     1      32.412 -23.229 -13.752  0.00  0.00    +0.057 C 
ATOM      7  C   UNL     1      30.731 -24.279 -15.713  0.00  0.00    +0.089 C 
ATOM      8  C   UNL     1      33.529 -23.299 -17.822  0.00  0.00    +0.202 C 
ATOM      9  C   UNL     1      30.295 -24.202 -14.391  0.00  0.00    +0.054 C 
ATOM     10  C   UNL     1      31.134 -23.675 -13.412  0.00  0.00    -0.006 C 
ENDROOT
BRANCH   2  12
ATOM     11 BR   UNL     1      38.278 -23.361 -11.980  0.00  0.00    -0.046 Br
ATOM     12  C   UNL     1      35.293 -23.749 -14.845  0.00  0.00    +0.004 C 
ATOM     13  C   UNL     1      35.396 -25.079 -15.250  0.00  0.00    +0.040 C 
ATOM     14  C   UNL     1      36.157 -23.248 -13.870  0.00  0.00    +0.010 C 
ATOM     15  C   UNL     1      36.362 -25.909 -14.681  0.00  0.00    +0.173 C 
ATOM     16  C   UNL     1      37.123 -24.078 -13.302  0.00  0.00    +0.072 C 
ATOM     17  C   UNL     1      37.225 -25.409 -13.707  0.00  0.00    +0.178 C 
BRANCH  15  18
ATOM     18  O   UNL     1      36.451 -27.206 -15.088  0.00  0.00    -0.468 OA
ATOM     19  C   UNL     1      36.760 -27.436 -16.461  0.00  0.00    +0.253 C 
ENDBRANCH  15  18
BRANCH  17  20
ATOM     20  O   UNL     1      38.163 -26.236 -13.162  0.00  0.00    -0.468 OA
ATOM     21  C   UNL     1      39.475 -26.180 -13.716  0.00  0.00    +0.253 C 
ENDBRANCH  17  20
ENDBRANCH   2  12
BRANCH   8  22
ATOM     22  N   UNL     1      33.642 -23.280 -19.186  0.00  0.00    -0.328 N 
ATOM     23  H   UNL     1      32.917 -23.642 -19.746  0.00  0.00    +0.145 HD
ATOM     24  H   UNL     1      34.448 -22.904 -19.608  0.00  0.00    +0.145 HD
ENDBRANCH   8  22
BRANCH   7  25
ATOM     25  N   UNL     1      29.877 -24.808 -16.711  0.00  0.00    -0.354 N 
ATOM     26  H   UNL     1      30.187 -24.865 -17.644  0.00  0.00    +0.142 HD
ATOM     27  H   UNL     1      28.975 -25.120 -16.472  0.00  0.00    +0.142 HD
ENDBRANCH   7  25
BRANCH   9  28
ATOM     28  N   UNL     1      29.007 -24.650 -14.022  0.00  0.00    -0.356 N 
ATOM     29  H   UNL     1      28.446 -25.127 -14.674  0.00  0.00    +0.142 HD
ATOM     30  H   UNL     1      28.671 -24.486 -13.110  0.00  0.00    +0.142 HD
ENDBRANCH   9  28
BRANCH   5  32
ATOM     31  N   UNL     1      36.559 -21.594 -17.874  0.00  0.00    -0.191 NA
ATOM     32  C   UNL     1      35.612 -22.127 -17.468  0.00  0.00    +0.105 C 
ENDBRANCH   5  32
TORSDOF 7
ENDMDL
MODEL 5
REMARK VINA RESULT:      -6.1     16.416     19.179
REMARK  Name = 23649181
REMARK  7 active torsions:
REMARK  status: ('A' for Active; 'I' for Inactive)
REMARK    1  A    between atoms: C_2  and  C_12
REMARK    2  A    between atoms: C_5  and  C_32
REMARK    3  A    between atoms: C_7  and  N_25
REMARK    4  A    between atoms: C_8  and  N_22
REMARK    5  A    between atoms: C_9  and  N_28
REMARK    6  A    between atoms: C_15  and  O_18
REMARK    7  A    between atoms: C_17  and  O_20
REMARK                            x       y       z     vdW  Elec       q    Type
REMARK                         _______ _______ _______ _____ _____    ______ ____
ROOT
ATOM      1  O   UNL     1      31.956 -10.358 -21.738  0.00  0.00    -0.439 OA
ATOM      2  C   UNL     1      33.551  -8.003 -22.282  0.00  0.00    +0.013 C 
ATOM      3  C   UNL     1      33.638  -9.267 -23.110  0.00  0.00    +0.019 C 
ATOM      4  C   UNL     1      32.827 -10.361 -22.800  0.00  0.00    +0.157 C 
ATOM      5  C   UNL     1      32.738  -8.204 -21.013  0.00  0.00    +0.117 C 
ATOM      6  C   UNL     1      34.520  -9.362 -24.197  0.00  0.00    +0.057 C 
ATOM      7  C   UNL     1      32.872 -11.523 -23.572  0.00  0.00    +0.089 C 
ATOM      8  C   UNL     1      32.004  -9.323 -20.807  0.00  0.00    +0.202 C 
ATOM      9  C   UNL     1      33.746 -11.604 -24.656  0.00  0.00    +0.054 C 
ATOM     10  C   UNL     1      34.571 -10.525 -24.966  0.00  0.00    -0.006 C 
ENDROOT
BRANCH   2  12
ATOM     11 BR   UNL     1      30.271  -3.790 -22.467  0.00  0.00    -0.046 Br
ATOM     12  C   UNL     1      32.984  -6.875 -23.093  0.00  0.00    +0.004 C 
ATOM     13  C   UNL     1      33.380  -6.701 -24.419  0.00  0.00    +0.040 C 
ATOM     14  C   UNL     1      32.057  -6.001 -22.522  0.00  0.00    +0.010 C 
ATOM     15  C   UNL     1      32.850  -5.654 -25.174  0.00  0.00    +0.173 C 
ATOM     16  C   UNL     1      31.528  -4.955 -23.278  0.00  0.00    +0.072 C 
ATOM     17  C   UNL     1      31.925  -4.782 -24.604  0.00  0.00    +0.178 C 
BRANCH  15  18
ATOM     18  O   UNL     1      33.247  -5.498 -26.468  0.00  0.00    -0.468 OA
ATOM     19  C   UNL     1      34.626  -5.209 -26.693  0.00  0.00    +0.253 C 
ENDBRANCH  15  18
BRANCH  17  20
ATOM     20  O   UNL     1      31.419  -3.763 -25.358  0.00  0.00    -0.468 OA
ATOM     21  C   UNL     1      32.135  -2.531 -25.344  0.00  0.00    +0.253 C 
ENDBRANCH  17  20
ENDBRANCH   2  12
BRANCH   8  22
ATOM     22  N   UNL     1      31.243  -9.561 -19.695  0.00  0.00    -0.328 N 
ATOM     23  H   UNL     1      30.628  -8.868 -19.361  0.00  0.00    +0.145 HD
ATOM     24  H   UNL     1      31.310 -10.425 -19.228  0.00  0.00    +0.145 HD
ENDBRANCH   8  22
BRANCH   7  25
ATOM     25  N   UNL     1      32.038 -12.621 -23.251  0.00  0.00    -0.354 N 
ATOM     26  H   UNL     1      31.470 -13.026 -23.947  0.00  0.00    +0.142 HD
ATOM     27  H   UNL     1      32.025 -12.979 -22.335  0.00  0.00    +0.142 HD
ENDBRANCH   7  25
BRANCH   9  28
ATOM     28  N   UNL     1      33.814 -12.770 -25.450  0.00  0.00    -0.356 N 
ATOM     29  H   UNL     1      34.616 -12.952 -25.991  0.00  0.00    +0.142 HD
ATOM     30  H   UNL     1      33.058 -13.401 -25.463  0.00  0.00    +0.142 HD
ENDBRANCH   9  28
BRANCH   5  32
ATOM     31  N   UNL     1      32.828  -6.349 -19.204  0.00  0.00    -0.191 NA
ATOM     32  C   UNL     1      32.788  -7.178 -20.014  0.00  0.00    +0.105 C 
ENDBRANCH   5  32
TORSDOF 7
ENDMDL
MODEL 6
REMARK VINA RESULT:      -6.1     14.663     17.241
REMARK  Name = 23649181
REMARK  7 active torsions:
REMARK  status: ('A' for Active; 'I' for Inactive)
REMARK    1  A    between atoms: C_2  and  C_12
REMARK    2  A    between atoms: C_5  and  C_32
REMARK    3  A    between atoms: C_7  and  N_25
REMARK    4  A    between atoms: C_8  and  N_22
REMARK    5  A    between atoms: C_9  and  N_28
REMARK    6  A    between atoms: C_15  and  O_18
REMARK    7  A    between atoms: C_17  and  O_20
REMARK                            x       y       z     vdW  Elec       q    Type
REMARK                         _______ _______ _______ _____ _____    ______ ____
ROOT
ATOM      1  O   UNL     1      32.525  -6.880 -21.237  0.00  0.00    -0.439 OA
ATOM      2  C   UNL     1      31.236  -9.390 -21.887  0.00  0.00    +0.013 C 
ATOM      3  C   UNL     1      31.194  -8.181 -22.798  0.00  0.00    +0.019 C 
ATOM      4  C   UNL     1      31.851  -7.006 -22.427  0.00  0.00    +0.157 C 
ATOM      5  C   UNL     1      31.800  -9.055 -20.516  0.00  0.00    +0.117 C 
ATOM      6  C   UNL     1      30.508  -8.218 -24.020  0.00  0.00    +0.057 C 
ATOM      7  C   UNL     1      31.849  -5.892 -23.268  0.00  0.00    +0.089 C 
ATOM      8  C   UNL     1      32.398  -7.868 -20.262  0.00  0.00    +0.202 C 
ATOM      9  C   UNL     1      31.171  -5.942 -24.486  0.00  0.00    +0.054 C 
ATOM     10  C   UNL     1      30.499  -7.103 -24.860  0.00  0.00    -0.006 C 
ENDROOT
BRANCH   2  12
ATOM     11 BR   UNL     1      32.516 -14.577 -21.866  0.00  0.00    -0.046 Br
ATOM     12  C   UNL     1      32.020 -10.503 -22.519  0.00  0.00    +0.004 C 
ATOM     13  C   UNL     1      32.841 -10.243 -23.616  0.00  0.00    +0.040 C 
ATOM     14  C   UNL     1      31.932 -11.798 -22.006  0.00  0.00    +0.010 C 
ATOM     15  C   UNL     1      33.572 -11.277 -24.201  0.00  0.00    +0.173 C 
ATOM     16  C   UNL     1      32.663 -12.831 -22.591  0.00  0.00    +0.072 C 
ATOM     17  C   UNL     1      33.483 -12.570 -23.689  0.00  0.00    +0.178 C 
BRANCH  15  18
ATOM     18  O   UNL     1      34.369 -11.007 -25.272  0.00  0.00    -0.468 OA
ATOM     19  C   UNL     1      35.370 -10.005 -25.100  0.00  0.00    +0.253 C 
ENDBRANCH  15  18
BRANCH  17  20
ATOM     20  O   UNL     1      34.206 -13.568 -24.275  0.00  0.00    -0.468 OA
ATOM     21  C   UNL     1      33.522 -14.396 -25.212  0.00  0.00    +0.253 C 
ENDBRANCH  17  20
ENDBRANCH   2  12
BRANCH   8  22
ATOM     22  N   UNL     1      32.937  -7.509 -19.057  0.00  0.00    -0.328 N 
ATOM     23  H   UNL     1      32.477  -7.749 -18.220  0.00  0.00    +0.145 HD
ATOM     24  H   UNL     1      33.784  -7.008 -19.025  0.00  0.00    +0.145 HD
ENDBRANCH   8  22
BRANCH   7  25
ATOM     25  N   UNL     1      32.528  -4.711 -22.883  0.00  0.00    -0.354 N 
ATOM     26  H   UNL     1      32.052  -4.014 -22.376  0.00  0.00    +0.142 HD
ATOM     27  H   UNL     1      33.474  -4.586 -23.123  0.00  0.00    +0.142 HD
ENDBRANCH   7  25
BRANCH   9  28
ATOM     28  N   UNL     1      31.151  -4.828 -25.353  0.00  0.00    -0.356 N 
ATOM     29  H   UNL     1      31.522  -3.966 -25.057  0.00  0.00    +0.142 HD
ATOM     30  H   UNL     1      30.765  -4.913 -26.255  0.00  0.00    +0.142 HD
ENDBRANCH   9  28
BRANCH   5  32
ATOM     31  N   UNL     1      31.545 -10.820 -18.634  0.00  0.00    -0.191 NA
ATOM     32  C   UNL     1      31.660 -10.030 -19.476  0.00  0.00    +0.105 C 
ENDBRANCH   5  32
TORSDOF 7
ENDMDL
MODEL 7
REMARK VINA RESULT:      -5.0     12.324     15.094
REMARK  Name = 23649181
REMARK  7 active torsions:
REMARK  status: ('A' for Active; 'I' for Inactive)
REMARK    1  A    between atoms: C_2  and  C_12
REMARK    2  A    between atoms: C_5  and  C_32
REMARK    3  A    between atoms: C_7  and  N_25
REMARK    4  A    between atoms: C_8  and  N_22
REMARK    5  A    between atoms: C_9  and  N_28
REMARK    6  A    between atoms: C_15  and  O_18
REMARK    7  A    between atoms: C_17  and  O_20
REMARK                            x       y       z     vdW  Elec       q    Type
REMARK                         _______ _______ _______ _____ _____    ______ ____
ROOT
ATOM      1  O   UNL     1      34.428 -15.545 -24.656  0.00  0.00    -0.439 OA
ATOM      2  C   UNL     1      32.603 -13.388 -24.020  0.00  0.00    +0.013 C 
ATOM      3  C   UNL     1      33.220 -14.283 -22.967  0.00  0.00    +0.019 C 
ATOM      4  C   UNL     1      34.105 -15.296 -23.345  0.00  0.00    +0.157 C 
ATOM      5  C   UNL     1      32.847 -13.907 -25.428  0.00  0.00    +0.117 C 
ATOM      6  C   UNL     1      32.926 -14.112 -21.607  0.00  0.00    +0.057 C 
ATOM      7  C   UNL     1      34.708 -16.110 -22.385  0.00  0.00    +0.089 C 
ATOM      8  C   UNL     1      33.714 -14.916 -25.675  0.00  0.00    +0.202 C 
ATOM      9  C   UNL     1      34.416 -15.926 -21.034  0.00  0.00    +0.054 C 
ATOM     10  C   UNL     1      33.523 -14.930 -20.646  0.00  0.00    -0.006 C 
ENDROOT
BRANCH   2  12
ATOM     11 BR   UNL     1      32.095  -8.622 -21.660  0.00  0.00    -0.046 Br
ATOM     12  C   UNL     1      33.110 -11.982 -23.885  0.00  0.00    +0.004 C 
ATOM     13  C   UNL     1      34.196 -11.556 -24.648  0.00  0.00    +0.040 C 
ATOM     14  C   UNL     1      32.492 -11.100 -22.998  0.00  0.00    +0.010 C 
ATOM     15  C   UNL     1      34.665 -10.248 -24.525  0.00  0.00    +0.173 C 
ATOM     16  C   UNL     1      32.961  -9.791 -22.875  0.00  0.00    +0.072 C 
ATOM     17  C   UNL     1      34.048  -9.366 -23.639  0.00  0.00    +0.178 C 
BRANCH  15  18
ATOM     18  O   UNL     1      35.727  -9.846 -25.278  0.00  0.00    -0.468 OA
ATOM     19  C   UNL     1      35.829 -10.384 -26.595  0.00  0.00    +0.253 C 
ENDBRANCH  15  18
BRANCH  17  20
ATOM     20  O   UNL     1      34.521  -8.091 -23.532  0.00  0.00    -0.468 OA
ATOM     21  C   UNL     1      33.910  -7.103 -24.358  0.00  0.00    +0.253 C 
ENDBRANCH  17  20
ENDBRANCH   2  12
BRANCH   8  22
ATOM     22  N   UNL     1      33.988 -15.421 -26.916  0.00  0.00    -0.328 N 
ATOM     23  H   UNL     1      34.898 -15.727 -27.135  0.00  0.00    +0.145 HD
ATOM     24  H   UNL     1      33.275 -15.478 -27.593  0.00  0.00    +0.145 HD
ENDBRANCH   8  22
BRANCH   7  25
ATOM     25  N   UNL     1      35.611 -17.126 -22.781  0.00  0.00    -0.354 N 
ATOM     26  H   UNL     1      36.580 -16.950 -22.780  0.00  0.00    +0.142 HD
ATOM     27  H   UNL     1      35.270 -18.007 -23.058  0.00  0.00    +0.142 HD
ENDBRANCH   7  25
BRANCH   9  28
ATOM     28  N   UNL     1      35.009 -16.739 -20.043  0.00  0.00    -0.356 N 
ATOM     29  H   UNL     1      34.459 -17.114 -19.318  0.00  0.00    +0.142 HD
ATOM     30  H   UNL     1      35.974 -16.931 -20.077  0.00  0.00    +0.142 HD
ENDBRANCH   9  28
BRANCH   5  32
ATOM     31  N   UNL     1      31.509 -12.829 -27.369  0.00  0.00    -0.191 NA
ATOM     32  C   UNL     1      32.107 -13.311 -26.500  0.00  0.00    +0.105 C 
ENDBRANCH   5  32
TORSDOF 7
ENDMDL
MODEL 8
REMARK VINA RESULT:      -4.8     12.256     14.940
REMARK  Name = 23649181
REMARK  7 active torsions:
REMARK  status: ('A' for Active; 'I' for Inactive)
REMARK    1  A    between atoms: C_2  and  C_12
REMARK    2  A    between atoms: C_5  and  C_32
REMARK    3  A    between atoms: C_7  and  N_25
REMARK    4  A    between atoms: C_8  and  N_22
REMARK    5  A    between atoms: C_9  and  N_28
REMARK    6  A    between atoms: C_15  and  O_18
REMARK    7  A    between atoms: C_17  and  O_20
REMARK                            x       y       z     vdW  Elec       q    Type
REMARK                         _______ _______ _______ _____ _____    ______ ____
ROOT
ATOM      1  O   UNL     1      34.320 -15.674 -24.270  0.00  0.00    -0.439 OA
ATOM      2  C   UNL     1      32.618 -13.344 -24.024  0.00  0.00    +0.013 C 
ATOM      3  C   UNL     1      33.123 -14.126 -22.830  0.00  0.00    +0.019 C 
ATOM      4  C   UNL     1      33.953 -15.232 -23.023  0.00  0.00    +0.157 C 
ATOM      5  C   UNL     1      32.892 -14.060 -25.337  0.00  0.00    +0.117 C 
ATOM      6  C   UNL     1      32.776 -13.756 -21.523  0.00  0.00    +0.057 C 
ATOM      7  C   UNL     1      34.453 -15.946 -21.933  0.00  0.00    +0.089 C 
ATOM      8  C   UNL     1      33.699 -15.144 -25.401  0.00  0.00    +0.202 C 
ATOM      9  C   UNL     1      34.110 -15.566 -20.636  0.00  0.00    +0.054 C 
ATOM     10  C   UNL     1      33.270 -14.473 -20.431  0.00  0.00    -0.006 C 
ENDROOT
BRANCH   2  12
ATOM     11 BR   UNL     1      36.087  -9.968 -26.285  0.00  0.00    -0.046 Br
ATOM     12  C   UNL     1      33.212 -11.966 -24.046  0.00  0.00    +0.004 C 
ATOM     13  C   UNL     1      32.784 -11.006 -23.129  0.00  0.00    +0.040 C 
ATOM     14  C   UNL     1      34.197 -11.645 -24.981  0.00  0.00    +0.010 C 
ATOM     15  C   UNL     1      33.339  -9.727 -23.147  0.00  0.00    +0.173 C 
ATOM     16  C   UNL     1      34.752 -10.365 -24.999  0.00  0.00    +0.072 C 
ATOM     17  C   UNL     1      34.322  -9.406 -24.081  0.00  0.00    +0.178 C 
BRANCH  15  18
ATOM     18  O   UNL     1      32.909  -8.801 -22.244  0.00  0.00    -0.468 OA
ATOM     19  C   UNL     1      32.026  -9.254 -21.220  0.00  0.00    +0.253 C 
ENDBRANCH  15  18
BRANCH  17  20
ATOM     20  O   UNL     1      34.852  -8.149 -24.084  0.00  0.00    -0.468 OA
ATOM     21  C   UNL     1      34.062  -7.116 -24.666  0.00  0.00    +0.253 C 
ENDBRANCH  17  20
ENDBRANCH   2  12
BRANCH   8  22
ATOM     22  N   UNL     1      33.997 -15.827 -26.549  0.00  0.00    -0.328 N 
ATOM     23  H   UNL     1      34.282 -16.768 -26.503  0.00  0.00    +0.145 HD
ATOM     24  H   UNL     1      33.926 -15.377 -27.422  0.00  0.00    +0.145 HD
ENDBRANCH   8  22
BRANCH   7  25
ATOM     25  N   UNL     1      35.302 -17.060 -22.142  0.00  0.00    -0.354 N 
ATOM     26  H   UNL     1      35.648 -17.250 -23.044  0.00  0.00    +0.142 HD
ATOM     27  H   UNL     1      35.546 -17.642 -21.388  0.00  0.00    +0.142 HD
ENDBRANCH   7  25
BRANCH   9  28
ATOM     28  N   UNL     1      34.599 -16.273 -19.516  0.00  0.00    -0.356 N 
ATOM     29  H   UNL     1      35.565 -16.439 -19.421  0.00  0.00    +0.142 HD
ATOM     30  H   UNL     1      33.974 -16.600 -18.829  0.00  0.00    +0.142 HD
ENDBRANCH   9  28
BRANCH   5  32
ATOM     31  N   UNL     1      31.724 -13.171 -27.474  0.00  0.00    -0.191 NA
ATOM     32  C   UNL     1      32.246 -13.569 -26.517  0.00  0.00    +0.105 C 
ENDBRANCH   5  32
TORSDOF 7
ENDMDL
MODEL 9
REMARK VINA RESULT:      -4.7      3.139      6.282
REMARK  Name = 23649181
REMARK  7 active torsions:
REMARK  status: ('A' for Active; 'I' for Inactive)
REMARK    1  A    between atoms: C_2  and  C_12
REMARK    2  A    between atoms: C_5  and  C_32
REMARK    3  A    between atoms: C_7  and  N_25
REMARK    4  A    between atoms: C_8  and  N_22
REMARK    5  A    between atoms: C_9  and  N_28
REMARK    6  A    between atoms: C_15  and  O_18
REMARK    7  A    between atoms: C_17  and  O_20
REMARK                            x       y       z     vdW  Elec       q    Type
REMARK                         _______ _______ _______ _____ _____    ______ ____
ROOT
ATOM      1  O   UNL     1      37.714 -22.603 -14.722  0.00  0.00    -0.439 OA
ATOM      2  C   UNL     1      35.821 -23.768 -16.578  0.00  0.00    +0.013 C 
ATOM      3  C   UNL     1      36.337 -24.501 -15.358  0.00  0.00    +0.019 C 
ATOM      4  C   UNL     1      37.239 -23.871 -14.497  0.00  0.00    +0.157 C 
ATOM      5  C   UNL     1      36.590 -22.484 -16.843  0.00  0.00    +0.117 C 
ATOM      6  C   UNL     1      35.920 -25.808 -15.067  0.00  0.00    +0.057 C 
ATOM      7  C   UNL     1      37.701 -24.520 -13.350  0.00  0.00    +0.089 C 
ATOM      8  C   UNL     1      37.463 -21.977 -15.941  0.00  0.00    +0.202 C 
ATOM      9  C   UNL     1      37.274 -25.817 -13.066  0.00  0.00    +0.054 C 
ATOM     10  C   UNL     1      36.386 -26.461 -13.925  0.00  0.00    -0.006 C 
ENDROOT
BRANCH   2  12
ATOM     11 BR   UNL     1      31.406 -24.168 -13.597  0.00  0.00    -0.046 Br
ATOM     12  C   UNL     1      34.354 -23.481 -16.443  0.00  0.00    +0.004 C 
ATOM     13  C   UNL     1      33.676 -22.820 -17.467  0.00  0.00    +0.040 C 
ATOM     14  C   UNL     1      33.668 -23.878 -15.295  0.00  0.00    +0.010 C 
ATOM     15  C   UNL     1      32.312 -22.556 -17.343  0.00  0.00    +0.173 C 
ATOM     16  C   UNL     1      32.303 -23.613 -15.172  0.00  0.00    +0.072 C 
ATOM     17  C   UNL     1      31.626 -22.952 -16.196  0.00  0.00    +0.178 C 
BRANCH  15  18
ATOM     18  O   UNL     1      31.663 -21.910 -18.353  0.00  0.00    -0.468 OA
ATOM     19  C   UNL     1      32.470 -21.221 -19.306  0.00  0.00    +0.253 C 
ENDBRANCH  15  18
BRANCH  17  20
ATOM     20  O   UNL     1      30.292 -22.684 -16.093  0.00  0.00    -0.468 OA
ATOM     21  C   UNL     1      29.393 -23.704 -16.521  0.00  0.00    +0.253 C 
ENDBRANCH  17  20
ENDBRANCH   2  12
BRANCH   8  22
ATOM     22  N   UNL     1      38.177 -20.822 -16.112  0.00  0.00    -0.328 N 
ATOM     23  H   UNL     1      39.075 -20.735 -15.718  0.00  0.00    +0.145 HD
ATOM     24  H   UNL     1      37.793 -20.078 -16.629  0.00  0.00    +0.145 HD
ENDBRANCH   8  22
BRANCH   7  25
ATOM     25  N   UNL     1      38.607 -23.867 -12.481  0.00  0.00    -0.354 N 
ATOM     26  H   UNL     1      39.383 -24.356 -12.123  0.00  0.00    +0.142 HD
ATOM     27  H   UNL     1      38.463 -22.925 -12.236  0.00  0.00    +0.142 HD
ENDBRANCH   7  25
BRANCH   9  28
ATOM     28  N   UNL     1      37.729 -26.497 -11.915  0.00  0.00    -0.356 N 
ATOM     29  H   UNL     1      37.091 -26.986 -11.346  0.00  0.00    +0.142 HD
ATOM     30  H   UNL     1      38.686 -26.484 -11.681  0.00  0.00    +0.142 HD
ENDBRANCH   9  28
BRANCH   5  32
ATOM     31  N   UNL     1      36.223 -21.295 -19.117  0.00  0.00    -0.191 NA
ATOM     32  C   UNL     1      36.387 -21.827 -18.100  0.00  0.00    +0.105 C 
ENDBRANCH   5  32
TORSDOF 7
ENDMDL
