MODEL 1
REMARK VINA RESULT:     -10.5      0.000      0.000
REMARK  Name = 10249180
REMARK  4 active torsions:
REMARK  status: ('A' for Active; 'I' for Inactive)
REMARK    1  A    between atoms: C_5  and  N_17
REMARK    2  A    between atoms: C_7  and  C_11
REMARK    3  A    between atoms: N_17  and  C_19
REMARK    4  A    between atoms: C_19  and  C_21
REMARK                            x       y       z     vdW  Elec       q    Type
REMARK                         _______ _______ _______ _____ _____    ______ ____
ROOT
ATOM      1 BR   UNL     1      36.146 -23.610 -12.699  0.00  0.00    -0.066 Br
ATOM      2  N   UNL     1      35.165 -22.863 -16.564  0.00  0.00    -0.152 N 
ATOM      3  N   UNL     1      33.499 -23.544 -14.964  0.00  0.00    -0.388 NA
ATOM      4  N   UNL     1      36.503 -22.610 -16.626  0.00  0.00    -0.173 NA
ATOM      5  C   UNL     1      34.226 -22.777 -17.603  0.00  0.00    +0.126 C 
ATOM      6  C   UNL     1      34.788 -23.238 -15.274  0.00  0.00    +0.200 C 
ATOM      7  C   UNL     1      32.629 -23.478 -15.930  0.00  0.00    +0.135 C 
ATOM      8  C   UNL     1      32.942 -23.071 -17.337  0.00  0.00    +0.064 C 
ATOM      9  C   UNL     1      35.931 -23.217 -14.508  0.00  0.00    +0.168 C 
ATOM     10  C   UNL     1      36.946 -22.826 -15.389  0.00  0.00    +0.112 C 
ENDROOT
BRANCH   7  11
ATOM     11  C   UNL     1      31.209 -23.808 -15.639  0.00  0.00    +0.030 C 
ATOM     12  C   UNL     1      30.192 -22.993 -16.130  0.00  0.00    +0.003 C 
ATOM     13  C   UNL     1      30.901 -24.931 -14.874  0.00  0.00    +0.003 C 
ATOM     14  C   UNL     1      28.860 -23.302 -15.857  0.00  0.00    +0.000 C 
ATOM     15  C   UNL     1      29.568 -25.241 -14.601  0.00  0.00    +0.000 C 
ATOM     16  C   UNL     1      28.548 -24.426 -15.092  0.00  0.00    +0.000 C 
ENDBRANCH   7  11
BRANCH   5  17
ATOM     17  N   UNL     1      34.678 -22.387 -18.832  0.00  0.00    -0.316 N 
ATOM     18  H   UNL     1      35.612 -22.579 -19.076  0.00  0.00    +0.148 HD
BRANCH  17  19
ATOM     19  C   UNL     1      33.843 -21.707 -19.777  0.00  0.00    +0.117 C 
BRANCH  19  21
ATOM     20  N   UNL     1      36.524 -19.220 -20.689  0.00  0.00    -0.243 NA
ATOM     21  C   UNL     1      34.505 -20.477 -20.330  0.00  0.00    +0.017 C 
ATOM     22  C   UNL     1      33.756 -19.500 -20.960  0.00  0.00    +0.001 C 
ATOM     23  C   UNL     1      35.867 -20.303 -20.215  0.00  0.00    +0.096 C 
ATOM     24  C   UNL     1      34.396 -18.372 -21.461  0.00  0.00    +0.020 C 
ATOM     25  C   UNL     1      35.769 -18.280 -21.301  0.00  0.00    +0.099 C 
ENDBRANCH  19  21
ENDBRANCH  17  19
ENDBRANCH   5  17
TORSDOF 4
ENDMDL
MODEL 2
REMARK VINA RESULT:     -10.4      2.283      6.456
REMARK  Name = 10249180
REMARK  4 active torsions:
REMARK  status: ('A' for Active; 'I' for Inactive)
REMARK    1  A    between atoms: C_5  and  N_17
REMARK    2  A    between atoms: C_7  and  C_11
REMARK    3  A    between atoms: N_17  and  C_19
REMARK    4  A    between atoms: C_19  and  C_21
REMARK                            x       y       z     vdW  Elec       q    Type
REMARK                         _______ _______ _______ _____ _____    ______ ____
ROOT
ATOM      1 BR   UNL     1      39.241 -25.182 -14.341  0.00  0.00    -0.066 Br
ATOM      2  N   UNL     1      35.290 -24.392 -13.867  0.00  0.00    -0.152 N 
ATOM      3  N   UNL     1      36.479 -23.665 -15.831  0.00  0.00    -0.388 NA
ATOM      4  N   UNL     1      35.519 -25.067 -12.705  0.00  0.00    -0.173 NA
ATOM      5  C   UNL     1      34.079 -23.843 -14.317  0.00  0.00    +0.126 C 
ATOM      6  C   UNL     1      36.457 -24.298 -14.626  0.00  0.00    +0.200 C 
ATOM      7  C   UNL     1      35.361 -23.143 -16.243  0.00  0.00    +0.135 C 
ATOM      8  C   UNL     1      34.061 -23.209 -15.502  0.00  0.00    +0.064 C 
ATOM      9  C   UNL     1      37.444 -24.937 -13.912  0.00  0.00    +0.168 C 
ATOM     10  C   UNL     1      36.811 -25.385 -12.747  0.00  0.00    +0.112 C 
ENDROOT
BRANCH   7  11
ATOM     11  C   UNL     1      35.340 -22.437 -17.551  0.00  0.00    +0.030 C 
ATOM     12  C   UNL     1      34.174 -22.423 -18.314  0.00  0.00    +0.003 C 
ATOM     13  C   UNL     1      36.486 -21.792 -18.010  0.00  0.00    +0.003 C 
ATOM     14  C   UNL     1      34.154 -21.761 -19.541  0.00  0.00    +0.000 C 
ATOM     15  C   UNL     1      36.466 -21.129 -19.238  0.00  0.00    +0.000 C 
ATOM     16  C   UNL     1      35.300 -21.114 -20.003  0.00  0.00    +0.000 C 
ENDBRANCH   7  11
BRANCH   5  17
ATOM     17  N   UNL     1      32.982 -23.995 -13.518  0.00  0.00    -0.316 N 
ATOM     18  H   UNL     1      32.880 -23.407 -12.735  0.00  0.00    +0.148 HD
BRANCH  17  19
ATOM     19  C   UNL     1      31.973 -24.979 -13.778  0.00  0.00    +0.117 C 
BRANCH  19  21
ATOM     20  N   UNL     1      28.971 -24.752 -16.045  0.00  0.00    -0.243 NA
ATOM     21  C   UNL     1      30.809 -24.404 -14.533  0.00  0.00    +0.017 C 
ATOM     22  C   UNL     1      30.502 -23.059 -14.432  0.00  0.00    +0.001 C 
ATOM     23  C   UNL     1      30.030 -25.206 -15.339  0.00  0.00    +0.096 C 
ATOM     24  C   UNL     1      29.420 -22.554 -15.143  0.00  0.00    +0.020 C 
ATOM     25  C   UNL     1      28.692 -23.434 -15.928  0.00  0.00    +0.099 C 
ENDBRANCH  19  21
ENDBRANCH  17  19
ENDBRANCH   5  17
TORSDOF 4
ENDMDL
MODEL 3
REMARK VINA RESULT:     -10.4      2.782      6.995
REMARK  Name = 10249180
REMARK  4 active torsions:
REMARK  status: ('A' for Active; 'I' for Inactive)
REMARK    1  A    between atoms: C_5  and  N_17
REMARK    2  A    between atoms: C_7  and  C_11
REMARK    3  A    between atoms: N_17  and  C_19
REMARK    4  A    between atoms: C_19  and  C_21
REMARK                            x       y       z     vdW  Elec       q    Type
REMARK                         _______ _______ _______ _____ _____    ______ ____
ROOT
ATOM      1 BR   UNL     1      28.502 -23.268 -16.861  0.00  0.00    -0.066 Br
ATOM      2  N   UNL     1      32.171 -24.115 -15.350  0.00  0.00    -0.152 N 
ATOM      3  N   UNL     1      31.921 -22.818 -17.364  0.00  0.00    -0.388 NA
ATOM      4  N   UNL     1      31.401 -24.748 -14.420  0.00  0.00    -0.173 NA
ATOM      5  C   UNL     1      33.571 -24.029 -15.391  0.00  0.00    +0.126 C 
ATOM      6  C   UNL     1      31.378 -23.510 -16.326  0.00  0.00    +0.200 C 
ATOM      7  C   UNL     1      33.220 -22.750 -17.411  0.00  0.00    +0.135 C 
ATOM      8  C   UNL     1      34.146 -23.354 -16.401  0.00  0.00    +0.064 C 
ATOM      9  C   UNL     1      30.070 -23.775 -15.990  0.00  0.00    +0.168 C 
ATOM     10  C   UNL     1      30.148 -24.535 -14.817  0.00  0.00    +0.112 C 
ENDROOT
BRANCH   7  11
ATOM     11  C   UNL     1      33.858 -22.007 -18.531  0.00  0.00    +0.030 C 
ATOM     12  C   UNL     1      33.069 -21.285 -19.423  0.00  0.00    +0.003 C 
ATOM     13  C   UNL     1      35.242 -22.037 -18.684  0.00  0.00    +0.003 C 
ATOM     14  C   UNL     1      33.667 -20.589 -20.473  0.00  0.00    +0.000 C 
ATOM     15  C   UNL     1      35.841 -21.341 -19.733  0.00  0.00    +0.000 C 
ATOM     16  C   UNL     1      35.053 -20.617 -20.629  0.00  0.00    +0.000 C 
ENDBRANCH   7  11
BRANCH   5  17
ATOM     17  N   UNL     1      34.270 -24.637 -14.387  0.00  0.00    -0.316 N 
ATOM     18  H   UNL     1      34.179 -25.610 -14.267  0.00  0.00    +0.148 HD
BRANCH  17  19
ATOM     19  C   UNL     1      35.132 -23.911 -13.503  0.00  0.00    +0.117 C 
BRANCH  19  21
ATOM     20  N   UNL     1      38.700 -24.330 -14.642  0.00  0.00    -0.243 NA
ATOM     21  C   UNL     1      36.549 -24.404 -13.568  0.00  0.00    +0.017 C 
ATOM     22  C   UNL     1      37.006 -25.347 -12.665  0.00  0.00    +0.001 C 
ATOM     23  C   UNL     1      37.414 -23.928 -14.528  0.00  0.00    +0.096 C 
ATOM     24  C   UNL     1      38.322 -25.786 -12.750  0.00  0.00    +0.020 C 
ATOM     25  C   UNL     1      39.122 -25.252 -13.747  0.00  0.00    +0.099 C 
ENDBRANCH  19  21
ENDBRANCH  17  19
ENDBRANCH   5  17
TORSDOF 4
ENDMDL
MODEL 4
REMARK VINA RESULT:     -10.1      6.018     10.643
REMARK  Name = 10249180
REMARK  4 active torsions:
REMARK  status: ('A' for Active; 'I' for Inactive)
REMARK    1  A    between atoms: C_5  and  N_17
REMARK    2  A    between atoms: C_7  and  C_11
REMARK    3  A    between atoms: N_17  and  C_19
REMARK    4  A    between atoms: C_19  and  C_21
REMARK                            x       y       z     vdW  Elec       q    Type
REMARK                         _______ _______ _______ _____ _____    ______ ____
ROOT
ATOM      1 BR   UNL     1      33.076 -14.160 -26.937  0.00  0.00    -0.066 Br
ATOM      2  N   UNL     1      33.900 -15.934 -23.382  0.00  0.00    -0.152 N 
ATOM      3  N   UNL     1      32.821 -13.784 -23.481  0.00  0.00    -0.388 NA
ATOM      4  N   UNL     1      34.396 -16.887 -24.222  0.00  0.00    -0.173 NA
ATOM      5  C   UNL     1      33.875 -15.955 -21.979  0.00  0.00    +0.126 C 
ATOM      6  C   UNL     1      33.374 -14.861 -24.102  0.00  0.00    +0.200 C 
ATOM      7  C   UNL     1      32.810 -13.795 -22.180  0.00  0.00    +0.135 C 
ATOM      8  C   UNL     1      33.337 -14.908 -21.329  0.00  0.00    +0.064 C 
ATOM      9  C   UNL     1      33.548 -15.157 -25.434  0.00  0.00    +0.168 C 
ATOM     10  C   UNL     1      34.178 -16.407 -25.445  0.00  0.00    +0.112 C 
ENDROOT
BRANCH   7  11
ATOM     11  C   UNL     1      32.220 -12.636 -21.459  0.00  0.00    +0.030 C 
ATOM     12  C   UNL     1      32.100 -12.670 -20.071  0.00  0.00    +0.003 C 
ATOM     13  C   UNL     1      31.789 -11.521 -22.173  0.00  0.00    +0.003 C 
ATOM     14  C   UNL     1      31.547 -11.583 -19.395  0.00  0.00    +0.000 C 
ATOM     15  C   UNL     1      31.236 -10.433 -21.497  0.00  0.00    +0.000 C 
ATOM     16  C   UNL     1      31.114 -10.465 -20.108  0.00  0.00    +0.000 C 
ENDBRANCH   7  11
BRANCH   5  17
ATOM     17  N   UNL     1      34.398 -17.052 -21.355  0.00  0.00    -0.316 N 
ATOM     18  H   UNL     1      34.697 -16.968 -20.421  0.00  0.00    +0.148 HD
BRANCH  17  19
ATOM     19  C   UNL     1      34.527 -18.319 -22.010  0.00  0.00    +0.117 C 
BRANCH  19  21
ATOM     20  N   UNL     1      32.690 -20.795 -19.842  0.00  0.00    -0.243 NA
ATOM     21  C   UNL     1      34.272 -19.465 -21.073  0.00  0.00    +0.017 C 
ATOM     22  C   UNL     1      35.323 -20.220 -20.584  0.00  0.00    +0.001 C 
ATOM     23  C   UNL     1      32.988 -19.779 -20.683  0.00  0.00    +0.096 C 
ATOM     24  C   UNL     1      35.057 -21.274 -19.718  0.00  0.00    +0.020 C 
ATOM     25  C   UNL     1      33.735 -21.518 -19.380  0.00  0.00    +0.099 C 
ENDBRANCH  19  21
ENDBRANCH  17  19
ENDBRANCH   5  17
TORSDOF 4
ENDMDL
MODEL 5
REMARK VINA RESULT:     -10.1      3.262      6.016
REMARK  Name = 10249180
REMARK  4 active torsions:
REMARK  status: ('A' for Active; 'I' for Inactive)
REMARK    1  A    between atoms: C_5  and  N_17
REMARK    2  A    between atoms: C_7  and  C_11
REMARK    3  A    between atoms: N_17  and  C_19
REMARK    4  A    between atoms: C_19  and  C_21
REMARK                            x       y       z     vdW  Elec       q    Type
REMARK                         _______ _______ _______ _____ _____    ______ ____
ROOT
ATOM      1 BR   UNL     1      35.706 -21.816 -18.814  0.00  0.00    -0.066 Br
ATOM      2  N   UNL     1      35.730 -23.090 -14.962  0.00  0.00    -0.152 N 
ATOM      3  N   UNL     1      33.705 -23.100 -16.266  0.00  0.00    -0.388 NA
ATOM      4  N   UNL     1      37.046 -22.757 -15.090  0.00  0.00    -0.173 NA
ATOM      5  C   UNL     1      35.082 -23.614 -13.833  0.00  0.00    +0.126 C 
ATOM      6  C   UNL     1      35.037 -22.848 -16.149  0.00  0.00    +0.200 C 
ATOM      7  C   UNL     1      33.101 -23.573 -15.215  0.00  0.00    +0.135 C 
ATOM      8  C   UNL     1      33.766 -23.876 -13.909  0.00  0.00    +0.064 C 
ATOM      9  C   UNL     1      35.955 -22.349 -17.045  0.00  0.00    +0.168 C 
ATOM     10  C   UNL     1      37.164 -22.316 -16.341  0.00  0.00    +0.112 C 
ENDROOT
BRANCH   7  11
ATOM     11  C   UNL     1      31.643 -23.859 -15.296  0.00  0.00    +0.030 C 
ATOM     12  C   UNL     1      31.104 -24.923 -14.576  0.00  0.00    +0.003 C 
ATOM     13  C   UNL     1      30.823 -23.062 -16.091  0.00  0.00    +0.003 C 
ATOM     14  C   UNL     1      29.738 -25.191 -14.652  0.00  0.00    +0.000 C 
ATOM     15  C   UNL     1      29.456 -23.330 -16.166  0.00  0.00    +0.000 C 
ATOM     16  C   UNL     1      28.914 -24.395 -15.447  0.00  0.00    +0.000 C 
ENDBRANCH   7  11
BRANCH   5  17
ATOM     17  N   UNL     1      35.839 -23.835 -12.717  0.00  0.00    -0.316 N 
ATOM     18  H   UNL     1      36.064 -23.071 -12.138  0.00  0.00    +0.148 HD
BRANCH  17  19
ATOM     19  C   UNL     1      36.318 -25.137 -12.360  0.00  0.00    +0.117 C 
BRANCH  19  21
ATOM     20  N   UNL     1      38.534 -26.893 -14.853  0.00  0.00    -0.243 NA
ATOM     21  C   UNL     1      37.540 -25.521 -13.146  0.00  0.00    +0.017 C 
ATOM     22  C   UNL     1      38.752 -24.898 -12.908  0.00  0.00    +0.001 C 
ATOM     23  C   UNL     1      37.473 -26.500 -14.112  0.00  0.00    +0.096 C 
ATOM     24  C   UNL     1      39.866 -25.274 -13.649  0.00  0.00    +0.020 C 
ATOM     25  C   UNL     1      39.706 -26.268 -14.601  0.00  0.00    +0.099 C 
ENDBRANCH  19  21
ENDBRANCH  17  19
ENDBRANCH   5  17
TORSDOF 4
ENDMDL
MODEL 6
REMARK VINA RESULT:     -10.1      1.400      2.077
REMARK  Name = 10249180
REMARK  4 active torsions:
REMARK  status: ('A' for Active; 'I' for Inactive)
REMARK    1  A    between atoms: C_5  and  N_17
REMARK    2  A    between atoms: C_7  and  C_11
REMARK    3  A    between atoms: N_17  and  C_19
REMARK    4  A    between atoms: C_19  and  C_21
REMARK                            x       y       z     vdW  Elec       q    Type
REMARK                         _______ _______ _______ _____ _____    ______ ____
ROOT
ATOM      1 BR   UNL     1      37.482 -26.005 -12.751  0.00  0.00    -0.066 Br
ATOM      2  N   UNL     1      36.741 -23.302 -15.684  0.00  0.00    -0.152 N 
ATOM      3  N   UNL     1      34.943 -24.389 -14.507  0.00  0.00    -0.388 NA
ATOM      4  N   UNL     1      38.104 -23.281 -15.707  0.00  0.00    -0.173 NA
ATOM      5  C   UNL     1      35.857 -22.559 -16.481  0.00  0.00    +0.126 C 
ATOM      6  C   UNL     1      36.273 -24.193 -14.717  0.00  0.00    +0.200 C 
ATOM      7  C   UNL     1      34.121 -23.711 -15.256  0.00  0.00    +0.135 C 
ATOM      8  C   UNL     1      34.535 -22.725 -16.304  0.00  0.00    +0.064 C 
ATOM      9  C   UNL     1      37.383 -24.744 -14.119  0.00  0.00    +0.168 C 
ATOM     10  C   UNL     1      38.472 -24.148 -14.765  0.00  0.00    +0.112 C 
ENDROOT
BRANCH   7  11
ATOM     11  C   UNL     1      32.659 -23.898 -15.065  0.00  0.00    +0.030 C 
ATOM     12  C   UNL     1      32.192 -24.744 -14.062  0.00  0.00    +0.003 C 
ATOM     13  C   UNL     1      31.760 -23.225 -15.890  0.00  0.00    +0.003 C 
ATOM     14  C   UNL     1      30.821 -24.919 -13.882  0.00  0.00    +0.000 C 
ATOM     15  C   UNL     1      30.388 -23.399 -15.710  0.00  0.00    +0.000 C 
ATOM     16  C   UNL     1      29.918 -24.247 -14.707  0.00  0.00    +0.000 C 
ENDBRANCH   7  11
BRANCH   5  17
ATOM     17  N   UNL     1      36.400 -21.698 -17.392  0.00  0.00    -0.316 N 
ATOM     18  H   UNL     1      36.761 -20.838 -17.075  0.00  0.00    +0.148 HD
BRANCH  17  19
ATOM     19  C   UNL     1      36.464 -22.000 -18.791  0.00  0.00    +0.117 C 
BRANCH  19  21
ATOM     20  N   UNL     1      35.939 -18.966 -20.966  0.00  0.00    -0.243 NA
ATOM     21  C   UNL     1      35.776 -20.955 -19.623  0.00  0.00    +0.017 C 
ATOM     22  C   UNL     1      34.406 -20.999 -19.813  0.00  0.00    +0.001 C 
ATOM     23  C   UNL     1      36.497 -19.937 -20.207  0.00  0.00    +0.096 C 
ATOM     24  C   UNL     1      33.796 -20.019 -20.587  0.00  0.00    +0.020 C 
ATOM     25  C   UNL     1      34.600 -19.033 -21.136  0.00  0.00    +0.099 C 
ENDBRANCH  19  21
ENDBRANCH  17  19
ENDBRANCH   5  17
TORSDOF 4
ENDMDL
MODEL 7
REMARK VINA RESULT:     -10.1      1.829      6.382
REMARK  Name = 10249180
REMARK  4 active torsions:
REMARK  status: ('A' for Active; 'I' for Inactive)
REMARK    1  A    between atoms: C_5  and  N_17
REMARK    2  A    between atoms: C_7  and  C_11
REMARK    3  A    between atoms: N_17  and  C_19
REMARK    4  A    between atoms: C_19  and  C_21
REMARK                            x       y       z     vdW  Elec       q    Type
REMARK                         _______ _______ _______ _____ _____    ______ ____
ROOT
ATOM      1 BR   UNL     1      37.992 -23.704 -15.358  0.00  0.00    -0.066 Br
ATOM      2  N   UNL     1      33.955 -23.878 -15.725  0.00  0.00    -0.152 N 
ATOM      3  N   UNL     1      35.296 -22.635 -17.292  0.00  0.00    -0.388 NA
ATOM      4  N   UNL     1      34.105 -24.644 -14.607  0.00  0.00    -0.173 NA
ATOM      5  C   UNL     1      32.761 -23.550 -16.386  0.00  0.00    +0.126 C 
ATOM      6  C   UNL     1      35.190 -23.422 -16.187  0.00  0.00    +0.200 C 
ATOM      7  C   UNL     1      34.189 -22.318 -17.898  0.00  0.00    +0.135 C 
ATOM      8  C   UNL     1      32.825 -22.774 -17.482  0.00  0.00    +0.064 C 
ATOM      9  C   UNL     1      36.141 -23.923 -15.327  0.00  0.00    +0.168 C 
ATOM     10  C   UNL     1      35.418 -24.661 -14.383  0.00  0.00    +0.112 C 
ENDROOT
BRANCH   7  11
ATOM     11  C   UNL     1      34.257 -21.455 -19.107  0.00  0.00    +0.030 C 
ATOM     12  C   UNL     1      35.493 -21.140 -19.666  0.00  0.00    +0.003 C 
ATOM     13  C   UNL     1      33.084 -20.966 -19.676  0.00  0.00    +0.003 C 
ATOM     14  C   UNL     1      35.557 -20.331 -20.800  0.00  0.00    +0.000 C 
ATOM     15  C   UNL     1      33.147 -20.157 -20.811  0.00  0.00    +0.000 C 
ATOM     16  C   UNL     1      34.384 -19.839 -21.373  0.00  0.00    +0.000 C 
ENDBRANCH   7  11
BRANCH   5  17
ATOM     17  N   UNL     1      31.598 -24.051 -15.875  0.00  0.00    -0.316 N 
ATOM     18  H   UNL     1      31.360 -24.987 -16.067  0.00  0.00    +0.148 HD
BRANCH  17  19
ATOM     19  C   UNL     1      30.711 -23.265 -15.070  0.00  0.00    +0.117 C 
BRANCH  19  21
ATOM     20  N   UNL     1      27.972 -23.408 -17.654  0.00  0.00    -0.243 NA
ATOM     21  C   UNL     1      29.395 -23.026 -15.753  0.00  0.00    +0.017 C 
ATOM     22  C   UNL     1      28.425 -22.242 -15.155  0.00  0.00    +0.001 C 
ATOM     23  C   UNL     1      29.133 -23.583 -16.986  0.00  0.00    +0.096 C 
ATOM     24  C   UNL     1      27.217 -22.038 -15.811  0.00  0.00    +0.020 C 
ATOM     25  C   UNL     1      27.041 -22.637 -17.048  0.00  0.00    +0.099 C 
ENDBRANCH  19  21
ENDBRANCH  17  19
ENDBRANCH   5  17
TORSDOF 4
ENDMDL
MODEL 8
REMARK VINA RESULT:     -10.0      2.026      4.702
REMARK  Name = 10249180
REMARK  4 active torsions:
REMARK  status: ('A' for Active; 'I' for Inactive)
REMARK    1  A    between atoms: C_5  and  N_17
REMARK    2  A    between atoms: C_7  and  C_11
REMARK    3  A    between atoms: N_17  and  C_19
REMARK    4  A    between atoms: C_19  and  C_21
REMARK                            x       y       z     vdW  Elec       q    Type
REMARK                         _______ _______ _______ _____ _____    ______ ____
ROOT
ATOM      1 BR   UNL     1      30.416 -24.242 -13.173  0.00  0.00    -0.066 Br
ATOM      2  N   UNL     1      32.617 -23.215 -16.424  0.00  0.00    -0.152 N 
ATOM      3  N   UNL     1      33.650 -24.175 -14.472  0.00  0.00    -0.388 NA
ATOM      4  N   UNL     1      31.382 -22.847 -16.871  0.00  0.00    -0.173 NA
ATOM      5  C   UNL     1      33.840 -23.118 -17.104  0.00  0.00    +0.126 C 
ATOM      6  C   UNL     1      32.543 -23.740 -15.133  0.00  0.00    +0.200 C 
ATOM      7  C   UNL     1      34.787 -24.073 -15.096  0.00  0.00    +0.135 C 
ATOM      8  C   UNL     1      34.956 -23.537 -16.484  0.00  0.00    +0.064 C 
ATOM      9  C   UNL     1      31.217 -23.698 -14.766  0.00  0.00    +0.168 C 
ATOM     10  C   UNL     1      30.557 -23.143 -15.868  0.00  0.00    +0.112 C 
ENDROOT
BRANCH   7  11
ATOM     11  C   UNL     1      36.024 -24.532 -14.410  0.00  0.00    +0.030 C 
ATOM     12  C   UNL     1      36.754 -25.597 -14.933  0.00  0.00    +0.003 C 
ATOM     13  C   UNL     1      36.448 -23.895 -13.246  0.00  0.00    +0.003 C 
ATOM     14  C   UNL     1      37.914 -26.027 -14.290  0.00  0.00    +0.000 C 
ATOM     15  C   UNL     1      37.609 -24.325 -12.602  0.00  0.00    +0.000 C 
ATOM     16  C   UNL     1      38.341 -25.391 -13.124  0.00  0.00    +0.000 C 
ENDBRANCH   7  11
BRANCH   5  17
ATOM     17  N   UNL     1      33.819 -22.606 -18.370  0.00  0.00    -0.316 N 
ATOM     18  H   UNL     1      32.954 -22.511 -18.829  0.00  0.00    +0.148 HD
BRANCH  17  19
ATOM     19  C   UNL     1      35.011 -22.203 -19.055  0.00  0.00    +0.117 C 
BRANCH  19  21
ATOM     20  N   UNL     1      35.754 -19.052 -20.986  0.00  0.00    -0.243 NA
ATOM     21  C   UNL     1      34.801 -20.952 -19.861  0.00  0.00    +0.017 C 
ATOM     22  C   UNL     1      33.525 -20.549 -20.210  0.00  0.00    +0.001 C 
ATOM     23  C   UNL     1      35.874 -20.187 -20.261  0.00  0.00    +0.096 C 
ATOM     24  C   UNL     1      33.360 -19.387 -20.955  0.00  0.00    +0.020 C 
ATOM     25  C   UNL     1      34.496 -18.680 -21.314  0.00  0.00    +0.099 C 
ENDBRANCH  19  21
ENDBRANCH  17  19
ENDBRANCH   5  17
TORSDOF 4
ENDMDL
MODEL 9
REMARK VINA RESULT:     -10.0      2.596      7.127
REMARK  Name = 10249180
REMARK  4 active torsions:
REMARK  status: ('A' for Active; 'I' for Inactive)
REMARK    1  A    between atoms: C_5  and  N_17
REMARK    2  A    between atoms: C_7  and  C_11
REMARK    3  A    between atoms: N_17  and  C_19
REMARK    4  A    between atoms: C_19  and  C_21
REMARK                            x       y       z     vdW  Elec       q    Type
REMARK                         _______ _______ _______ _____ _____    ______ ____
ROOT
ATOM      1 BR   UNL     1      28.980 -23.133 -16.277  0.00  0.00    -0.066 Br
ATOM      2  N   UNL     1      32.940 -23.822 -15.731  0.00  0.00    -0.152 N 
ATOM      3  N   UNL     1      32.152 -22.459 -17.552  0.00  0.00    -0.388 NA
ATOM      4  N   UNL     1      32.447 -24.538 -14.681  0.00  0.00    -0.173 NA
ATOM      5  C   UNL     1      34.284 -23.652 -16.099  0.00  0.00    +0.126 C 
ATOM      6  C   UNL     1      31.908 -23.225 -16.455  0.00  0.00    +0.200 C 
ATOM      7  C   UNL     1      33.397 -22.311 -17.903  0.00  0.00    +0.135 C 
ATOM      8  C   UNL     1      34.566 -22.901 -17.177  0.00  0.00    +0.064 C 
ATOM      9  C   UNL     1      30.733 -23.582 -15.833  0.00  0.00    +0.168 C 
ATOM     10  C   UNL     1      31.127 -24.385 -14.756  0.00  0.00    +0.112 C 
ENDROOT
BRANCH   7  11
ATOM     11  C   UNL     1      33.711 -21.485 -19.099  0.00  0.00    +0.030 C 
ATOM     12  C   UNL     1      35.021 -21.408 -19.565  0.00  0.00    +0.003 C 
ATOM     13  C   UNL     1      32.693 -20.792 -19.749  0.00  0.00    +0.003 C 
ATOM     14  C   UNL     1      35.316 -20.634 -20.687  0.00  0.00    +0.000 C 
ATOM     15  C   UNL     1      32.987 -20.017 -20.872  0.00  0.00    +0.000 C 
ATOM     16  C   UNL     1      34.299 -19.938 -21.340  0.00  0.00    +0.000 C 
ENDBRANCH   7  11
BRANCH   5  17
ATOM     17  N   UNL     1      35.232 -24.258 -15.325  0.00  0.00    -0.316 N 
ATOM     18  H   UNL     1      35.173 -25.230 -15.178  0.00  0.00    +0.148 HD
BRANCH  17  19
ATOM     19  C   UNL     1      36.308 -23.532 -14.718  0.00  0.00    +0.117 C 
BRANCH  19  21
ATOM     20  N   UNL     1      37.241 -23.018 -11.103  0.00  0.00    -0.243 NA
ATOM     21  C   UNL     1      36.291 -23.649 -13.221  0.00  0.00    +0.017 C 
ATOM     22  C   UNL     1      35.361 -24.455 -12.590  0.00  0.00    +0.001 C 
ATOM     23  C   UNL     1      37.202 -22.957 -12.453  0.00  0.00    +0.096 C 
ATOM     24  C   UNL     1      35.369 -24.544 -11.203  0.00  0.00    +0.020 C 
ATOM     25  C   UNL     1      36.321 -23.812 -10.511  0.00  0.00    +0.099 C 
ENDBRANCH  19  21
ENDBRANCH  17  19
ENDBRANCH   5  17
TORSDOF 4
ENDMDL
