MODEL 1
REMARK VINA RESULT:      -6.1      0.000      0.000
REMARK  Name = 72886
REMARK  5 active torsions:
REMARK  status: ('A' for Active; 'I' for Inactive)
REMARK    1  A    between atoms: C_1  and  N_2
REMARK    2  A    between atoms: C_1  and  C_7
REMARK    3  A    between atoms: C_1  and  C_10
REMARK    4  A    between atoms: C_7  and  O_8
REMARK    5  A    between atoms: C_10  and  S_11
REMARK                            x       y       z     vdW  Elec       q    Type
REMARK                         _______ _______ _______ _____ _____    ______ ____
ROOT
ATOM      1  C   UNK     1      38.983 -25.138 -14.330  0.00  0.00    +0.060 C 
ENDROOT
BRANCH   1   2
ATOM      2  N   UNK     1      37.936 -25.525 -15.276  0.00  0.00    +0.390 N 
ATOM      3  H   UNK     1      38.049 -26.507 -15.526  0.00  0.00    -0.088 HD
ATOM      4  H   UNK     1      38.006 -24.950 -16.115  0.00  0.00    -0.088 HD
ATOM      5  H   UNK     1      37.021 -25.388 -14.845  0.00  0.00    -0.088 HD
ENDBRANCH   1   2
BRANCH   1   7
ATOM      6  O   UNK     1      40.988 -26.463 -13.923  0.00  0.00    -0.253 OA
ATOM      7  C   UNK     1      40.228 -25.918 -14.714  0.00  0.00    +0.295 C 
BRANCH   7   8
ATOM      8  O   UNK     1      40.436 -25.930 -16.056  0.00  0.00    -0.482 OA
ATOM      9  H   UNK     1      39.707 -25.877 -16.643  0.00  0.00    +0.295 HD
ENDBRANCH   7   8
ENDBRANCH   1   7
BRANCH   1  10
ATOM     10  C   UNK     1      38.537 -25.482 -12.914  0.00  0.00    +0.147 C 
BRANCH  10  11
ATOM     11  S   UNK     1      37.946 -24.073 -12.028  0.00  0.00    +0.021 S 
ATOM     12  O   UNK     1      37.091 -23.402 -13.245  0.00  0.00    -0.070 OA
ATOM     13  O   UNK     1      39.069 -23.209 -11.715  0.00  0.00    -0.070 OA
ATOM     14  O   UNK     1      37.023 -24.521 -11.002  0.00  0.00    -0.070 OA
ENDBRANCH  10  11
ENDBRANCH   1  10
TORSDOF 5
ENDMDL
MODEL 2
REMARK VINA RESULT:      -6.1      1.114      1.775
REMARK  Name = 72886
REMARK  5 active torsions:
REMARK  status: ('A' for Active; 'I' for Inactive)
REMARK    1  A    between atoms: C_1  and  N_2
REMARK    2  A    between atoms: C_1  and  C_7
REMARK    3  A    between atoms: C_1  and  C_10
REMARK    4  A    between atoms: C_7  and  O_8
REMARK    5  A    between atoms: C_10  and  S_11
REMARK                            x       y       z     vdW  Elec       q    Type
REMARK                         _______ _______ _______ _____ _____    ______ ____
ROOT
ATOM      1  C   UNK     1      38.775 -25.668 -14.412  0.00  0.00    +0.060 C 
ENDROOT
BRANCH   1   2
ATOM      2  N   UNK     1      37.974 -26.893 -14.413  0.00  0.00    +0.390 N 
ATOM      3  H   UNK     1      37.698 -27.118 -15.368  0.00  0.00    -0.088 HD
ATOM      4  H   UNK     1      37.141 -26.756 -13.840  0.00  0.00    -0.088 HD
ATOM      5  H   UNK     1      38.527 -27.660 -14.030  0.00  0.00    -0.088 HD
ENDBRANCH   1   2
BRANCH   1   7
ATOM      6  O   UNK     1      41.028 -26.471 -13.945  0.00  0.00    -0.253 OA
ATOM      7  C   UNK     1      40.197 -26.075 -14.753  0.00  0.00    +0.295 C 
BRANCH   7   8
ATOM      8  O   UNK     1      40.473 -25.929 -16.075  0.00  0.00    -0.482 OA
ATOM      9  H   UNK     1      40.128 -25.196 -16.547  0.00  0.00    +0.295 HD
ENDBRANCH   7   8
ENDBRANCH   1   7
BRANCH   1  10
ATOM     10  C   UNK     1      38.707 -25.021 -13.034  0.00  0.00    +0.147 C 
BRANCH  10  11
ATOM     11  S   UNK     1      37.112 -25.174 -12.290  0.00  0.00    +0.021 S 
ATOM     12  O   UNK     1      37.355 -24.134 -11.056  0.00  0.00    -0.070 OA
ATOM     13  O   UNK     1      36.974 -26.514 -11.750  0.00  0.00    -0.070 OA
ATOM     14  O   UNK     1      36.122 -24.611 -13.188  0.00  0.00    -0.070 OA
ENDBRANCH  10  11
ENDBRANCH   1  10
TORSDOF 5
ENDMDL
MODEL 3
REMARK VINA RESULT:      -5.8      2.347      2.911
REMARK  Name = 72886
REMARK  5 active torsions:
REMARK  status: ('A' for Active; 'I' for Inactive)
REMARK    1  A    between atoms: C_1  and  N_2
REMARK    2  A    between atoms: C_1  and  C_7
REMARK    3  A    between atoms: C_1  and  C_10
REMARK    4  A    between atoms: C_7  and  O_8
REMARK    5  A    between atoms: C_10  and  S_11
REMARK                            x       y       z     vdW  Elec       q    Type
REMARK                         _______ _______ _______ _____ _____    ______ ____
ROOT
ATOM      1  C   UNK     1      38.586 -25.762 -14.674  0.00  0.00    +0.060 C 
ENDROOT
BRANCH   1   2
ATOM      2  N   UNK     1      38.447 -26.100 -13.257  0.00  0.00    +0.390 N 
ATOM      3  H   UNK     1      37.478 -25.966 -12.969  0.00  0.00    -0.088 HD
ATOM      4  H   UNK     1      39.054 -25.496 -12.702  0.00  0.00    -0.088 HD
ATOM      5  H   UNK     1      38.712 -27.074 -13.112  0.00  0.00    -0.088 HD
ENDBRANCH   1   2
BRANCH   1   7
ATOM      6  O   UNK     1      40.777 -24.831 -14.154  0.00  0.00    -0.253 OA
ATOM      7  C   UNK     1      40.057 -25.470 -14.911  0.00  0.00    +0.295 C 
BRANCH   7   8
ATOM      8  O   UNK     1      40.502 -25.980 -16.089  0.00  0.00    -0.482 OA
ATOM      9  H   UNK     1      40.599 -26.907 -16.192  0.00  0.00    +0.295 HD
ENDBRANCH   7   8
ENDBRANCH   1   7
BRANCH   1  10
ATOM     10  C   UNK     1      37.729 -24.543 -14.990  0.00  0.00    +0.147 C 
BRANCH  10  11
ATOM     11  S   UNK     1      36.000 -24.906 -14.971  0.00  0.00    +0.021 S 
ATOM     12  O   UNK     1      36.102 -26.445 -15.502  0.00  0.00    -0.070 OA
ATOM     13  O   UNK     1      35.341 -24.105 -15.987  0.00  0.00    -0.070 OA
ATOM     14  O   UNK     1      35.541 -24.916 -13.595  0.00  0.00    -0.070 OA
ENDBRANCH  10  11
ENDBRANCH   1  10
TORSDOF 5
ENDMDL
MODEL 4
REMARK VINA RESULT:      -5.7      2.122      2.626
REMARK  Name = 72886
REMARK  5 active torsions:
REMARK  status: ('A' for Active; 'I' for Inactive)
REMARK    1  A    between atoms: C_1  and  N_2
REMARK    2  A    between atoms: C_1  and  C_7
REMARK    3  A    between atoms: C_1  and  C_10
REMARK    4  A    between atoms: C_7  and  O_8
REMARK    5  A    between atoms: C_10  and  S_11
REMARK                            x       y       z     vdW  Elec       q    Type
REMARK                         _______ _______ _______ _____ _____    ______ ____
ROOT
ATOM      1  C   UNK     1      36.986 -25.225 -14.177  0.00  0.00    +0.060 C 
ENDROOT
BRANCH   1   2
ATOM      2  N   UNK     1      35.690 -25.408 -13.522  0.00  0.00    +0.390 N 
ATOM      3  H   UNK     1      35.034 -25.832 -14.178  0.00  0.00    -0.088 HD
ATOM      4  H   UNK     1      35.330 -24.503 -13.219  0.00  0.00    -0.088 HD
ATOM      5  H   UNK     1      35.801 -26.018 -12.712  0.00  0.00    -0.088 HD
ENDBRANCH   1   2
BRANCH   1   7
ATOM      6  O   UNK     1      38.290 -27.200 -14.758  0.00  0.00    -0.253 OA
ATOM      7  C   UNK     1      37.287 -26.516 -14.917  0.00  0.00    +0.295 C 
BRANCH   7   8
ATOM      8  O   UNK     1      36.319 -26.832 -15.817  0.00  0.00    -0.482 OA
ATOM      9  H   UNK     1      36.111 -27.731 -15.985  0.00  0.00    +0.295 HD
ENDBRANCH   7   8
ENDBRANCH   1   7
BRANCH   1  10
ATOM     10  C   UNK     1      38.048 -24.939 -13.123  0.00  0.00    +0.147 C 
BRANCH  10  11
ATOM     11  S   UNK     1      37.612 -23.590 -12.069  0.00  0.00    +0.021 S 
ATOM     12  O   UNK     1      36.987 -24.472 -10.847  0.00  0.00    -0.070 OA
ATOM     13  O   UNK     1      36.543 -22.833 -12.693  0.00  0.00    -0.070 OA
ATOM     14  O   UNK     1      38.828 -22.948 -11.606  0.00  0.00    -0.070 OA
ENDBRANCH  10  11
ENDBRANCH   1  10
TORSDOF 5
ENDMDL
MODEL 5
REMARK VINA RESULT:      -5.7      2.781      4.737
REMARK  Name = 72886
REMARK  5 active torsions:
REMARK  status: ('A' for Active; 'I' for Inactive)
REMARK    1  A    between atoms: C_1  and  N_2
REMARK    2  A    between atoms: C_1  and  C_7
REMARK    3  A    between atoms: C_1  and  C_10
REMARK    4  A    between atoms: C_7  and  O_8
REMARK    5  A    between atoms: C_10  and  S_11
REMARK                            x       y       z     vdW  Elec       q    Type
REMARK                         _______ _______ _______ _____ _____    ______ ____
ROOT
ATOM      1  C   UNK     1      36.830 -24.439 -12.359  0.00  0.00    +0.060 C 
ENDROOT
BRANCH   1   2
ATOM      2  N   UNK     1      37.895 -23.977 -11.467  0.00  0.00    +0.390 N 
ATOM      3  H   UNK     1      37.731 -23.001 -11.219  0.00  0.00    -0.088 HD
ATOM      4  H   UNK     1      38.795 -24.062 -11.940  0.00  0.00    -0.088 HD
ATOM      5  H   UNK     1      37.900 -24.546 -10.620  0.00  0.00    -0.088 HD
ENDBRANCH   1   2
BRANCH   1   7
ATOM      6  O   UNK     1      35.352 -25.129 -10.548  0.00  0.00    -0.253 OA
ATOM      7  C   UNK     1      35.549 -24.443 -11.543  0.00  0.00    +0.295 C 
BRANCH   7   8
ATOM      8  O   UNK     1      34.608 -23.607 -12.055  0.00  0.00    -0.482 OA
ATOM      9  H   UNK     1      34.004 -23.921 -12.699  0.00  0.00    +0.295 HD
ENDBRANCH   7   8
ENDBRANCH   1   7
BRANCH   1  10
ATOM     10  C   UNK     1      37.163 -25.838 -12.861  0.00  0.00    +0.147 C 
BRANCH  10  11
ATOM     11  S   UNK     1      37.755 -25.839 -14.525  0.00  0.00    +0.021 S 
ATOM     12  O   UNK     1      38.669 -24.491 -14.424  0.00  0.00    -0.070 OA
ATOM     13  O   UNK     1      36.642 -25.580 -15.420  0.00  0.00    -0.070 OA
ATOM     14  O   UNK     1      38.628 -26.982 -14.710  0.00  0.00    -0.070 OA
ENDBRANCH  10  11
ENDBRANCH   1  10
TORSDOF 5
ENDMDL
MODEL 6
REMARK VINA RESULT:      -5.6      8.957     10.235
REMARK  Name = 72886
REMARK  5 active torsions:
REMARK  status: ('A' for Active; 'I' for Inactive)
REMARK    1  A    between atoms: C_1  and  N_2
REMARK    2  A    between atoms: C_1  and  C_7
REMARK    3  A    between atoms: C_1  and  C_10
REMARK    4  A    between atoms: C_7  and  O_8
REMARK    5  A    between atoms: C_10  and  S_11
REMARK                            x       y       z     vdW  Elec       q    Type
REMARK                         _______ _______ _______ _____ _____    ______ ____
ROOT
ATOM      1  C   UNK     1      30.201 -23.322 -14.964  0.00  0.00    +0.060 C 
ENDROOT
BRANCH   1   2
ATOM      2  N   UNK     1      31.160 -23.608 -16.032  0.00  0.00    +0.390 N 
ATOM      3  H   UNK     1      30.915 -24.489 -16.483  0.00  0.00    -0.088 HD
ATOM      4  H   UNK     1      32.098 -23.676 -15.637  0.00  0.00    -0.088 HD
ATOM      5  H   UNK     1      31.135 -22.856 -16.722  0.00  0.00    -0.088 HD
ENDBRANCH   1   2
BRANCH   1   7
ATOM      6  O   UNK     1      31.555 -23.390 -12.939  0.00  0.00    -0.253 OA
ATOM      7  C   UNK     1      30.763 -23.938 -13.696  0.00  0.00    +0.295 C 
BRANCH   7   8
ATOM      8  O   UNK     1      30.310 -25.203 -13.491  0.00  0.00    -0.482 OA
ATOM      9  H   UNK     1      29.908 -25.676 -14.194  0.00  0.00    +0.295 HD
ENDBRANCH   7   8
ENDBRANCH   1   7
BRANCH   1  10
ATOM     10  C   UNK     1      28.852 -23.936 -15.319  0.00  0.00    +0.147 C 
BRANCH  10  11
ATOM     11  S   UNK     1      28.049 -23.089 -16.644  0.00  0.00    +0.021 S 
ATOM     12  O   UNK     1      26.753 -22.562 -15.804  0.00  0.00    -0.070 OA
ATOM     13  O   UNK     1      27.604 -24.063 -17.623  0.00  0.00    -0.070 OA
ATOM     14  O   UNK     1      28.856 -21.944 -17.024  0.00  0.00    -0.070 OA
ENDBRANCH  10  11
ENDBRANCH   1  10
TORSDOF 5
ENDMDL
MODEL 7
REMARK VINA RESULT:      -5.5      2.739      3.423
REMARK  Name = 72886
REMARK  5 active torsions:
REMARK  status: ('A' for Active; 'I' for Inactive)
REMARK    1  A    between atoms: C_1  and  N_2
REMARK    2  A    between atoms: C_1  and  C_7
REMARK    3  A    between atoms: C_1  and  C_10
REMARK    4  A    between atoms: C_7  and  O_8
REMARK    5  A    between atoms: C_10  and  S_11
REMARK                            x       y       z     vdW  Elec       q    Type
REMARK                         _______ _______ _______ _____ _____    ______ ____
ROOT
ATOM      1  C   UNK     1      35.743 -24.506 -13.822  0.00  0.00    +0.060 C 
ENDROOT
BRANCH   1   2
ATOM      2  N   UNK     1      36.395 -25.786 -13.541  0.00  0.00    +0.390 N 
ATOM      3  H   UNK     1      37.306 -25.812 -14.000  0.00  0.00    -0.088 HD
ATOM      4  H   UNK     1      35.816 -26.548 -13.893  0.00  0.00    -0.088 HD
ATOM      5  H   UNK     1      36.521 -25.890 -12.534  0.00  0.00    -0.088 HD
ENDBRANCH   1   2
BRANCH   1   7
ATOM      6  O   UNK     1      34.933 -24.188 -16.099  0.00  0.00    -0.253 OA
ATOM      7  C   UNK     1      35.872 -24.270 -15.316  0.00  0.00    +0.295 C 
BRANCH   7   8
ATOM      8  O   UNK     1      37.168 -24.181 -15.715  0.00  0.00    -0.482 OA
ATOM      9  H   UNK     1      37.440 -24.588 -16.514  0.00  0.00    +0.295 HD
ENDBRANCH   7   8
ENDBRANCH   1   7
BRANCH   1  10
ATOM     10  C   UNK     1      36.434 -23.402 -13.032  0.00  0.00    +0.147 C 
BRANCH  10  11
ATOM     11  S   UNK     1      37.917 -23.955 -12.248  0.00  0.00    +0.021 S 
ATOM     12  O   UNK     1      38.380 -22.516 -11.634  0.00  0.00    -0.070 OA
ATOM     13  O   UNK     1      38.867 -24.353 -13.271  0.00  0.00    -0.070 OA
ATOM     14  O   UNK     1      37.565 -24.839 -11.153  0.00  0.00    -0.070 OA
ENDBRANCH  10  11
ENDBRANCH   1  10
TORSDOF 5
ENDMDL
MODEL 8
REMARK VINA RESULT:      -5.4      2.462      4.086
REMARK  Name = 72886
REMARK  5 active torsions:
REMARK  status: ('A' for Active; 'I' for Inactive)
REMARK    1  A    between atoms: C_1  and  N_2
REMARK    2  A    between atoms: C_1  and  C_7
REMARK    3  A    between atoms: C_1  and  C_10
REMARK    4  A    between atoms: C_7  and  O_8
REMARK    5  A    between atoms: C_10  and  S_11
REMARK                            x       y       z     vdW  Elec       q    Type
REMARK                         _______ _______ _______ _____ _____    ______ ____
ROOT
ATOM      1  C   UNK     1      36.612 -24.168 -12.589  0.00  0.00    +0.060 C 
ENDROOT
BRANCH   1   2
ATOM      2  N   UNK     1      36.327 -23.389 -13.795  0.00  0.00    +0.390 N 
ATOM      3  H   UNK     1      35.421 -22.931 -13.698  0.00  0.00    -0.088 HD
ATOM      4  H   UNK     1      36.309 -24.010 -14.605  0.00  0.00    -0.088 HD
ATOM      5  H   UNK     1      37.052 -22.683 -13.923  0.00  0.00    -0.088 HD
ENDBRANCH   1   2
BRANCH   1   7
ATOM      6  O   UNK     1      37.181 -22.402 -11.009  0.00  0.00    -0.253 OA
ATOM      7  C   UNK     1      37.539 -23.323 -11.733  0.00  0.00    +0.295 C 
BRANCH   7   8
ATOM      8  O   UNK     1      38.842 -23.682 -11.873  0.00  0.00    -0.482 OA
ATOM      9  H   UNK     1      39.429 -23.133 -12.355  0.00  0.00    +0.295 HD
ENDBRANCH   7   8
ENDBRANCH   1   7
BRANCH   1  10
ATOM     10  C   UNK     1      37.277 -25.482 -12.981  0.00  0.00    +0.147 C 
BRANCH  10  11
ATOM     11  S   UNK     1      37.796 -25.502 -14.670  0.00  0.00    +0.021 S 
ATOM     12  O   UNK     1      38.586 -26.929 -14.630  0.00  0.00    -0.070 OA
ATOM     13  O   UNK     1      38.762 -24.439 -14.876  0.00  0.00    -0.070 OA
ATOM     14  O   UNK     1      36.626 -25.640 -15.516  0.00  0.00    -0.070 OA
ENDBRANCH  10  11
ENDBRANCH   1  10
TORSDOF 5
ENDMDL
MODEL 9
REMARK VINA RESULT:      -5.4      2.815      3.455
REMARK  Name = 72886
REMARK  5 active torsions:
REMARK  status: ('A' for Active; 'I' for Inactive)
REMARK    1  A    between atoms: C_1  and  N_2
REMARK    2  A    between atoms: C_1  and  C_7
REMARK    3  A    between atoms: C_1  and  C_10
REMARK    4  A    between atoms: C_7  and  O_8
REMARK    5  A    between atoms: C_10  and  S_11
REMARK                            x       y       z     vdW  Elec       q    Type
REMARK                         _______ _______ _______ _____ _____    ______ ____
ROOT
ATOM      1  C   UNK     1      37.264 -24.825 -14.420  0.00  0.00    +0.060 C 
ENDROOT
BRANCH   1   2
ATOM      2  N   UNK     1      37.940 -23.988 -15.412  0.00  0.00    +0.390 N 
ATOM      3  H   UNK     1      38.776 -23.576 -14.998  0.00  0.00    -0.088 HD
ATOM      4  H   UNK     1      37.310 -23.245 -15.716  0.00  0.00    -0.088 HD
ATOM      5  H   UNK     1      38.205 -24.559 -16.215  0.00  0.00    -0.088 HD
ENDBRANCH   1   2
BRANCH   1   7
ATOM      6  O   UNK     1      35.234 -24.807 -15.768  0.00  0.00    -0.253 OA
ATOM      7  C   UNK     1      36.057 -25.433 -15.112  0.00  0.00    +0.295 C 
BRANCH   7   8
ATOM      8  O   UNK     1      35.963 -26.772 -14.904  0.00  0.00    -0.482 OA
ATOM      9  H   UNK     1      36.492 -27.362 -15.405  0.00  0.00    +0.295 HD
ENDBRANCH   7   8
ENDBRANCH   1   7
BRANCH   1  10
ATOM     10  C   UNK     1      36.840 -23.964 -13.237  0.00  0.00    +0.147 C 
BRANCH  10  11
ATOM     11  S   UNK     1      36.290 -24.925 -11.861  0.00  0.00    +0.021 S 
ATOM     12  O   UNK     1      37.003 -24.043 -10.688  0.00  0.00    -0.070 OA
ATOM     13  O   UNK     1      36.925 -26.229 -11.916  0.00  0.00    -0.070 OA
ATOM     14  O   UNK     1      34.851 -24.786 -11.740  0.00  0.00    -0.070 OA
ENDBRANCH  10  11
ENDBRANCH   1  10
TORSDOF 5
ENDMDL
