MODEL 1
REMARK VINA RESULT:      -8.4      0.000      0.000
REMARK  Name = 5289140
REMARK  9 active torsions:
REMARK  status: ('A' for Active; 'I' for Inactive)
REMARK    1  A    between atoms: C_1  and  C_4
REMARK    2  A    between atoms: C_1  and  O_10
REMARK    3  A    between atoms: C_1  and  C_12
REMARK    4  A    between atoms: C_1  and  C_18
REMARK    5  A    between atoms: C_12  and  C_13
REMARK    6  A    between atoms: C_13  and  C_14
REMARK    7  A    between atoms: C_14  and  C_15
REMARK    8  A    between atoms: C_15  and  C_16
REMARK    9  A    between atoms: C_18  and  N_19
REMARK                            x       y       z     vdW  Elec       q    Type
REMARK                         _______ _______ _______ _____ _____    ______ ____
ROOT
ATOM      1  C   UNL     1      34.854 -18.666 -21.386  0.00  0.00    +0.126 C 
ENDROOT
BRANCH   1   4
ATOM      2 CL   UNL     1      37.199 -20.330 -20.277  0.00  0.00    -0.082 Cl
ATOM      3 CL   UNL     1      33.418 -23.444 -18.044  0.00  0.00    -0.082 Cl
ATOM      4  C   UNL     1      34.521 -19.889 -20.531  0.00  0.00    +0.014 C 
ATOM      5  C   UNL     1      35.528 -20.669 -20.008  0.00  0.00    +0.057 C 
ATOM      6  C   UNL     1      33.187 -20.162 -20.318  0.00  0.00    -0.000 C 
ATOM      7  C   UNL     1      35.185 -21.778 -19.234  0.00  0.00    +0.023 C 
ATOM      8  C   UNL     1      32.843 -21.269 -19.542  0.00  0.00    +0.011 C 
ATOM      9  C   UNL     1      33.843 -22.078 -19.001  0.00  0.00    +0.058 C 
ENDBRANCH   1   4
BRANCH   1  10
ATOM     10  O   UNL     1      35.909 -17.903 -20.782  0.00  0.00    -0.381 OA
ATOM     11  H   UNL     1      36.059 -17.095 -21.297  0.00  0.00    +0.211 HD
ENDBRANCH   1  10
BRANCH   1  12
ATOM     12  C   UNL     1      33.639 -17.704 -21.527  0.00  0.00    +0.033 C 
BRANCH  12  13
ATOM     13  C   UNL     1      33.886 -16.296 -20.961  0.00  0.00    +0.003 C 
BRANCH  13  14
ATOM     14  C   UNL     1      32.594 -15.512 -20.696  0.00  0.00    +0.000 C 
BRANCH  14  15
ATOM     15  C   UNL     1      32.578 -14.125 -21.343  0.00  0.00    +0.000 C 
BRANCH  15  16
ATOM     16  C   UNL     1      32.721 -14.166 -22.866  0.00  0.00    +0.000 C 
ATOM     17  C   UNL     1      33.813 -13.254 -23.401  0.00  0.00    +0.000 C 
ENDBRANCH  15  16
ENDBRANCH  14  15
ENDBRANCH  13  14
ENDBRANCH  12  13
ENDBRANCH   1  12
BRANCH   1  18
ATOM     18  C   UNL     1      35.328 -19.081 -22.808  0.00  0.00    +0.128 C 
BRANCH  18  19
ATOM     19  N   UNL     1      34.894 -18.194 -23.889  0.00  0.00    -0.265 N 
ATOM     20  N   UNL     1      33.875 -17.523 -25.720  0.00  0.00    -0.225 NA
ATOM     21  C   UNL     1      35.244 -16.893 -24.028  0.00  0.00    +0.088 C 
ATOM     22  C   UNL     1      34.078 -18.541 -24.913  0.00  0.00    +0.168 C 
ATOM     23  C   UNL     1      34.599 -16.494 -25.174  0.00  0.00    +0.117 C 
ENDBRANCH  18  19
ENDBRANCH   1  18
TORSDOF 9
ENDMDL
MODEL 2
REMARK VINA RESULT:      -8.3      6.966     10.252
REMARK  Name = 5289140
REMARK  9 active torsions:
REMARK  status: ('A' for Active; 'I' for Inactive)
REMARK    1  A    between atoms: C_1  and  C_4
REMARK    2  A    between atoms: C_1  and  O_10
REMARK    3  A    between atoms: C_1  and  C_12
REMARK    4  A    between atoms: C_1  and  C_18
REMARK    5  A    between atoms: C_12  and  C_13
REMARK    6  A    between atoms: C_13  and  C_14
REMARK    7  A    between atoms: C_14  and  C_15
REMARK    8  A    between atoms: C_15  and  C_16
REMARK    9  A    between atoms: C_18  and  N_19
REMARK                            x       y       z     vdW  Elec       q    Type
REMARK                         _______ _______ _______ _____ _____    ______ ____
ROOT
ATOM      1  C   UNL     1      34.893 -23.638 -15.053  0.00  0.00    +0.126 C 
ENDROOT
BRANCH   1   4
ATOM      2 CL   UNL     1      32.759 -23.529 -17.274  0.00  0.00    -0.082 Cl
ATOM      3 CL   UNL     1      36.437 -20.833 -20.134  0.00  0.00    -0.082 Cl
ATOM      4  C   UNL     1      35.257 -22.930 -16.359  0.00  0.00    +0.014 C 
ATOM      5  C   UNL     1      34.342 -22.850 -17.386  0.00  0.00    +0.057 C 
ATOM      6  C   UNL     1      36.521 -22.389 -16.450  0.00  0.00    -0.000 C 
ATOM      7  C   UNL     1      34.709 -22.197 -18.563  0.00  0.00    +0.023 C 
ATOM      8  C   UNL     1      36.888 -21.735 -17.627  0.00  0.00    +0.011 C 
ATOM      9  C   UNL     1      35.982 -21.640 -18.683  0.00  0.00    +0.058 C 
ENDBRANCH   1   4
BRANCH   1  10
ATOM     10  O   UNL     1      34.974 -25.062 -15.214  0.00  0.00    -0.381 OA
ATOM     11  H   UNL     1      35.203 -25.271 -16.132  0.00  0.00    +0.211 HD
ENDBRANCH   1  10
BRANCH   1  12
ATOM     12  C   UNL     1      33.435 -23.327 -14.607  0.00  0.00    +0.033 C 
BRANCH  12  13
ATOM     13  C   UNL     1      32.754 -24.476 -13.846  0.00  0.00    +0.003 C 
BRANCH  13  14
ATOM     14  C   UNL     1      31.241 -24.286 -13.684  0.00  0.00    +0.000 C 
BRANCH  14  15
ATOM     15  C   UNL     1      30.411 -25.202 -14.587  0.00  0.00    +0.000 C 
BRANCH  15  16
ATOM     16  C   UNL     1      29.381 -24.447 -15.432  0.00  0.00    +0.000 C 
ATOM     17  C   UNL     1      29.568 -22.939 -15.419  0.00  0.00    +0.000 C 
ENDBRANCH  15  16
ENDBRANCH  14  15
ENDBRANCH  13  14
ENDBRANCH  12  13
ENDBRANCH   1  12
BRANCH   1  18
ATOM     18  C   UNL     1      35.861 -23.238 -13.904  0.00  0.00    +0.128 C 
BRANCH  18  19
ATOM     19  N   UNL     1      36.578 -24.352 -13.281  0.00  0.00    -0.265 N 
ATOM     20  N   UNL     1      37.023 -25.989 -11.879  0.00  0.00    -0.225 NA
ATOM     21  C   UNL     1      37.765 -24.854 -13.695  0.00  0.00    +0.088 C 
ATOM     22  C   UNL     1      36.161 -25.048 -12.197  0.00  0.00    +0.168 C 
ATOM     23  C   UNL     1      38.025 -25.873 -12.809  0.00  0.00    +0.117 C 
ENDBRANCH  18  19
ENDBRANCH   1  18
TORSDOF 9
ENDMDL
MODEL 3
REMARK VINA RESULT:      -8.1      6.169      8.977
REMARK  Name = 5289140
REMARK  9 active torsions:
REMARK  status: ('A' for Active; 'I' for Inactive)
REMARK    1  A    between atoms: C_1  and  C_4
REMARK    2  A    between atoms: C_1  and  O_10
REMARK    3  A    between atoms: C_1  and  C_12
REMARK    4  A    between atoms: C_1  and  C_18
REMARK    5  A    between atoms: C_12  and  C_13
REMARK    6  A    between atoms: C_13  and  C_14
REMARK    7  A    between atoms: C_14  and  C_15
REMARK    8  A    between atoms: C_15  and  C_16
REMARK    9  A    between atoms: C_18  and  N_19
REMARK                            x       y       z     vdW  Elec       q    Type
REMARK                         _______ _______ _______ _____ _____    ______ ____
ROOT
ATOM      1  C   UNL     1      34.779 -23.379 -15.615  0.00  0.00    +0.126 C 
ENDROOT
BRANCH   1   4
ATOM      2 CL   UNL     1      33.446 -23.879 -12.882  0.00  0.00    -0.082 Cl
ATOM      3 CL   UNL     1      28.782 -23.119 -15.458  0.00  0.00    -0.082 Cl
ATOM      4  C   UNL     1      33.253 -23.319 -15.543  0.00  0.00    +0.014 C 
ATOM      5  C   UNL     1      32.603 -23.534 -14.347  0.00  0.00    +0.057 C 
ATOM      6  C   UNL     1      32.579 -23.046 -16.713  0.00  0.00    -0.000 C 
ATOM      7  C   UNL     1      31.210 -23.472 -14.320  0.00  0.00    +0.023 C 
ATOM      8  C   UNL     1      31.185 -22.983 -16.686  0.00  0.00    +0.011 C 
ATOM      9  C   UNL     1      30.501 -23.197 -15.490  0.00  0.00    +0.058 C 
ENDBRANCH   1   4
BRANCH   1  10
ATOM     10  O   UNL     1      35.362 -22.376 -14.771  0.00  0.00    -0.381 OA
ATOM     11  H   UNL     1      36.281 -22.221 -15.040  0.00  0.00    +0.211 HD
ENDBRANCH   1  10
BRANCH   1  12
ATOM     12  C   UNL     1      35.306 -23.105 -17.054  0.00  0.00    +0.033 C 
BRANCH  12  13
ATOM     13  C   UNL     1      36.391 -22.018 -17.127  0.00  0.00    +0.003 C 
BRANCH  13  14
ATOM     14  C   UNL     1      36.560 -21.420 -18.529  0.00  0.00    +0.000 C 
BRANCH  14  15
ATOM     15  C   UNL     1      35.468 -21.852 -19.512  0.00  0.00    +0.000 C 
BRANCH  15  16
ATOM     16  C   UNL     1      34.694 -20.676 -20.112  0.00  0.00    +0.000 C 
ATOM     17  C   UNL     1      33.192 -20.758 -19.894  0.00  0.00    +0.000 C 
ENDBRANCH  15  16
ENDBRANCH  14  15
ENDBRANCH  13  14
ENDBRANCH  12  13
ENDBRANCH   1  12
BRANCH   1  18
ATOM     18  C   UNL     1      35.315 -24.761 -15.144  0.00  0.00    +0.128 C 
BRANCH  18  19
ATOM     19  N   UNL     1      36.565 -24.715 -14.384  0.00  0.00    -0.265 N 
ATOM     20  N   UNL     1      38.717 -24.522 -13.968  0.00  0.00    -0.225 NA
ATOM     21  C   UNL     1      36.678 -24.870 -13.044  0.00  0.00    +0.088 C 
ATOM     22  C   UNL     1      37.798 -24.509 -14.907  0.00  0.00    +0.168 C 
ATOM     23  C   UNL     1      38.026 -24.747 -12.804  0.00  0.00    +0.117 C 
ENDBRANCH  18  19
ENDBRANCH   1  18
TORSDOF 9
ENDMDL
MODEL 4
REMARK VINA RESULT:      -8.1      4.150      6.114
REMARK  Name = 5289140
REMARK  9 active torsions:
REMARK  status: ('A' for Active; 'I' for Inactive)
REMARK    1  A    between atoms: C_1  and  C_4
REMARK    2  A    between atoms: C_1  and  O_10
REMARK    3  A    between atoms: C_1  and  C_12
REMARK    4  A    between atoms: C_1  and  C_18
REMARK    5  A    between atoms: C_12  and  C_13
REMARK    6  A    between atoms: C_13  and  C_14
REMARK    7  A    between atoms: C_14  and  C_15
REMARK    8  A    between atoms: C_15  and  C_16
REMARK    9  A    between atoms: C_18  and  N_19
REMARK                            x       y       z     vdW  Elec       q    Type
REMARK                         _______ _______ _______ _____ _____    ______ ____
ROOT
ATOM      1  C   UNL     1      33.605 -13.715 -23.344  0.00  0.00    +0.126 C 
ENDROOT
BRANCH   1   4
ATOM      2 CL   UNL     1      34.652 -15.433 -21.009  0.00  0.00    -0.082 Cl
ATOM      3 CL   UNL     1      35.013 -19.413 -24.616  0.00  0.00    -0.082 Cl
ATOM      4  C   UNL     1      33.972 -15.171 -23.636  0.00  0.00    +0.014 C 
ATOM      5  C   UNL     1      34.444 -15.985 -22.631  0.00  0.00    +0.057 C 
ATOM      6  C   UNL     1      33.808 -15.611 -24.932  0.00  0.00    -0.000 C 
ATOM      7  C   UNL     1      34.769 -17.307 -22.936  0.00  0.00    +0.023 C 
ATOM      8  C   UNL     1      34.132 -16.934 -25.236  0.00  0.00    +0.011 C 
ATOM      9  C   UNL     1      34.613 -17.781 -24.238  0.00  0.00    +0.058 C 
ENDBRANCH   1   4
BRANCH   1  10
ATOM     10  O   UNL     1      34.577 -13.117 -22.474  0.00  0.00    -0.381 OA
ATOM     11  H   UNL     1      34.877 -12.277 -22.854  0.00  0.00    +0.211 HD
ENDBRANCH   1  10
BRANCH   1  12
ATOM     12  C   UNL     1      32.232 -13.593 -22.620  0.00  0.00    +0.033 C 
BRANCH  12  13
ATOM     13  C   UNL     1      32.328 -13.066 -21.179  0.00  0.00    +0.003 C 
BRANCH  13  14
ATOM     14  C   UNL     1      31.494 -11.802 -20.938  0.00  0.00    +0.000 C 
BRANCH  14  15
ATOM     15  C   UNL     1      31.469 -11.358 -19.473  0.00  0.00    +0.000 C 
BRANCH  15  16
ATOM     16  C   UNL     1      31.907  -9.905 -19.273  0.00  0.00    +0.000 C 
ATOM     17  C   UNL     1      32.032  -9.121 -20.570  0.00  0.00    +0.000 C 
ENDBRANCH  15  16
ENDBRANCH  14  15
ENDBRANCH  13  14
ENDBRANCH  12  13
ENDBRANCH   1  12
BRANCH   1  18
ATOM     18  C   UNL     1      33.556 -12.870 -24.648  0.00  0.00    +0.128 C 
BRANCH  18  19
ATOM     19  N   UNL     1      33.921 -11.461 -24.488  0.00  0.00    -0.265 N 
ATOM     20  N   UNL     1      35.038  -9.581 -24.738  0.00  0.00    -0.225 NA
ATOM     21  C   UNL     1      33.259 -10.558 -23.729  0.00  0.00    +0.088 C 
ATOM     22  C   UNL     1      34.977 -10.850 -25.077  0.00  0.00    +0.168 C 
ATOM     23  C   UNL     1      33.970  -9.393 -23.897  0.00  0.00    +0.117 C 
ENDBRANCH  18  19
ENDBRANCH   1  18
TORSDOF 9
ENDMDL
MODEL 5
REMARK VINA RESULT:      -8.0      6.648      9.685
REMARK  Name = 5289140
REMARK  9 active torsions:
REMARK  status: ('A' for Active; 'I' for Inactive)
REMARK    1  A    between atoms: C_1  and  C_4
REMARK    2  A    between atoms: C_1  and  O_10
REMARK    3  A    between atoms: C_1  and  C_12
REMARK    4  A    between atoms: C_1  and  C_18
REMARK    5  A    between atoms: C_12  and  C_13
REMARK    6  A    between atoms: C_13  and  C_14
REMARK    7  A    between atoms: C_14  and  C_15
REMARK    8  A    between atoms: C_15  and  C_16
REMARK    9  A    between atoms: C_18  and  N_19
REMARK                            x       y       z     vdW  Elec       q    Type
REMARK                         _______ _______ _______ _____ _____    ______ ____
ROOT
ATOM      1  C   UNL     1      34.883 -23.821 -15.533  0.00  0.00    +0.126 C 
ENDROOT
BRANCH   1   4
ATOM      2 CL   UNL     1      37.554 -22.435 -16.196  0.00  0.00    -0.082 Cl
ATOM      3 CL   UNL     1      35.077 -20.648 -20.628  0.00  0.00    -0.082 Cl
ATOM      4  C   UNL     1      34.964 -23.006 -16.825  0.00  0.00    +0.014 C 
ATOM      5  C   UNL     1      36.133 -22.366 -17.172  0.00  0.00    +0.057 C 
ATOM      6  C   UNL     1      33.828 -22.948 -17.603  0.00  0.00    -0.000 C 
ATOM      7  C   UNL     1      36.168 -21.630 -18.357  0.00  0.00    +0.023 C 
ATOM      8  C   UNL     1      33.864 -22.214 -18.789  0.00  0.00    +0.011 C 
ATOM      9  C   UNL     1      35.034 -21.554 -19.165  0.00  0.00    +0.058 C 
ENDBRANCH   1   4
BRANCH   1  10
ATOM     10  O   UNL     1      35.566 -25.074 -15.686  0.00  0.00    -0.381 OA
ATOM     11  H   UNL     1      34.963 -25.800 -15.465  0.00  0.00    +0.211 HD
ENDBRANCH   1  10
BRANCH   1  12
ATOM     12  C   UNL     1      33.414 -24.165 -15.151  0.00  0.00    +0.033 C 
BRANCH  12  13
ATOM     13  C   UNL     1      32.697 -23.058 -14.361  0.00  0.00    +0.003 C 
BRANCH  13  14
ATOM     14  C   UNL     1      31.168 -23.157 -14.426  0.00  0.00    +0.000 C 
BRANCH  14  15
ATOM     15  C   UNL     1      30.651 -23.764 -15.733  0.00  0.00    +0.000 C 
BRANCH  15  16
ATOM     16  C   UNL     1      29.688 -22.844 -16.488  0.00  0.00    +0.000 C 
ATOM     17  C   UNL     1      28.354 -23.495 -16.816  0.00  0.00    +0.000 C 
ENDBRANCH  15  16
ENDBRANCH  14  15
ENDBRANCH  13  14
ENDBRANCH  12  13
ENDBRANCH   1  12
BRANCH   1  18
ATOM     18  C   UNL     1      35.543 -23.067 -14.345  0.00  0.00    +0.128 C 
BRANCH  18  19
ATOM     19  N   UNL     1      36.117 -23.926 -13.307  0.00  0.00    -0.265 N 
ATOM     20  N   UNL     1      36.223 -25.218 -11.529  0.00  0.00    -0.225 NA
ATOM     21  C   UNL     1      37.421 -24.270 -13.202  0.00  0.00    +0.088 C 
ATOM     22  C   UNL     1      35.427 -24.506 -12.296  0.00  0.00    +0.168 C 
ATOM     23  C   UNL     1      37.467 -25.075 -12.088  0.00  0.00    +0.117 C 
ENDBRANCH  18  19
ENDBRANCH   1  18
TORSDOF 9
ENDMDL
MODEL 6
REMARK VINA RESULT:      -8.0      4.701      8.253
REMARK  Name = 5289140
REMARK  9 active torsions:
REMARK  status: ('A' for Active; 'I' for Inactive)
REMARK    1  A    between atoms: C_1  and  C_4
REMARK    2  A    between atoms: C_1  and  O_10
REMARK    3  A    between atoms: C_1  and  C_12
REMARK    4  A    between atoms: C_1  and  C_18
REMARK    5  A    between atoms: C_12  and  C_13
REMARK    6  A    between atoms: C_13  and  C_14
REMARK    7  A    between atoms: C_14  and  C_15
REMARK    8  A    between atoms: C_15  and  C_16
REMARK    9  A    between atoms: C_18  and  N_19
REMARK                            x       y       z     vdW  Elec       q    Type
REMARK                         _______ _______ _______ _____ _____    ______ ____
ROOT
ATOM      1  C   UNL     1      32.758 -12.981 -22.738  0.00  0.00    +0.126 C 
ENDROOT
BRANCH   1   4
ATOM      2 CL   UNL     1      30.617 -11.400 -21.183  0.00  0.00    -0.082 Cl
ATOM      3 CL   UNL     1      32.836  -7.009 -23.366  0.00  0.00    -0.082 Cl
ATOM      4  C   UNL     1      32.752 -11.457 -22.878  0.00  0.00    +0.014 C 
ATOM      5  C   UNL     1      31.819 -10.700 -22.205  0.00  0.00    +0.057 C 
ATOM      6  C   UNL     1      33.711 -10.898 -23.695  0.00  0.00    -0.000 C 
ATOM      7  C   UNL     1      31.844  -9.314 -22.357  0.00  0.00    +0.023 C 
ATOM      8  C   UNL     1      33.736  -9.511 -23.847  0.00  0.00    +0.011 C 
ATOM      9  C   UNL     1      32.803  -8.719 -23.178  0.00  0.00    +0.058 C 
ENDBRANCH   1   4
BRANCH   1  10
ATOM     10  O   UNL     1      31.568 -13.542 -23.309  0.00  0.00    -0.381 OA
ATOM     11  H   UNL     1      31.329 -13.049 -24.109  0.00  0.00    +0.211 HD
ENDBRANCH   1  10
BRANCH   1  12
ATOM     12  C   UNL     1      32.786 -13.430 -21.248  0.00  0.00    +0.033 C 
BRANCH  12  13
ATOM     13  C   UNL     1      32.831 -14.954 -21.054  0.00  0.00    +0.003 C 
BRANCH  13  14
ATOM     14  C   UNL     1      34.135 -15.447 -20.414  0.00  0.00    +0.000 C 
BRANCH  14  15
ATOM     15  C   UNL     1      34.887 -16.469 -21.271  0.00  0.00    +0.000 C 
BRANCH  15  16
ATOM     16  C   UNL     1      34.244 -17.858 -21.260  0.00  0.00    +0.000 C 
ATOM     17  C   UNL     1      34.683 -18.743 -22.415  0.00  0.00    +0.000 C 
ENDBRANCH  15  16
ENDBRANCH  14  15
ENDBRANCH  13  14
ENDBRANCH  12  13
ENDBRANCH   1  12
BRANCH   1  18
ATOM     18  C   UNL     1      33.976 -13.612 -23.471  0.00  0.00    +0.128 C 
BRANCH  18  19
ATOM     19  N   UNL     1      33.641 -14.425 -24.642  0.00  0.00    -0.265 N 
ATOM     20  N   UNL     1      33.435 -16.200 -25.926  0.00  0.00    -0.225 NA
ATOM     21  C   UNL     1      33.083 -13.966 -25.786  0.00  0.00    +0.088 C 
ATOM     22  C   UNL     1      33.839 -15.760 -24.754  0.00  0.00    +0.168 C 
ATOM     23  C   UNL     1      32.963 -15.086 -26.573  0.00  0.00    +0.117 C 
ENDBRANCH  18  19
ENDBRANCH   1  18
TORSDOF 9
ENDMDL
MODEL 7
REMARK VINA RESULT:      -8.0      1.863      3.321
REMARK  Name = 5289140
REMARK  9 active torsions:
REMARK  status: ('A' for Active; 'I' for Inactive)
REMARK    1  A    between atoms: C_1  and  C_4
REMARK    2  A    between atoms: C_1  and  O_10
REMARK    3  A    between atoms: C_1  and  C_12
REMARK    4  A    between atoms: C_1  and  C_18
REMARK    5  A    between atoms: C_12  and  C_13
REMARK    6  A    between atoms: C_13  and  C_14
REMARK    7  A    between atoms: C_14  and  C_15
REMARK    8  A    between atoms: C_15  and  C_16
REMARK    9  A    between atoms: C_18  and  N_19
REMARK                            x       y       z     vdW  Elec       q    Type
REMARK                         _______ _______ _______ _____ _____    ______ ____
ROOT
ATOM      1  C   UNL     1      34.510 -18.106 -21.745  0.00  0.00    +0.126 C 
ENDROOT
BRANCH   1   4
ATOM      2 CL   UNL     1      37.115 -19.426 -20.759  0.00  0.00    -0.082 Cl
ATOM      3 CL   UNL     1      33.920 -23.086 -18.441  0.00  0.00    -0.082 Cl
ATOM      4  C   UNL     1      34.393 -19.376 -20.901  0.00  0.00    +0.014 C 
ATOM      5  C   UNL     1      35.524 -20.008 -20.433  0.00  0.00    +0.057 C 
ATOM      6  C   UNL     1      33.122 -19.843 -20.642  0.00  0.00    -0.000 C 
ATOM      7  C   UNL     1      35.377 -21.165 -19.666  0.00  0.00    +0.023 C 
ATOM      8  C   UNL     1      32.975 -20.999 -19.875  0.00  0.00    +0.011 C 
ATOM      9  C   UNL     1      34.103 -21.660 -19.387  0.00  0.00    +0.058 C 
ENDBRANCH   1   4
BRANCH   1  10
ATOM     10  O   UNL     1      33.231 -17.738 -22.280  0.00  0.00    -0.381 OA
ATOM     11  H   UNL     1      32.642 -17.474 -21.557  0.00  0.00    +0.211 HD
ENDBRANCH   1  10
BRANCH   1  12
ATOM     12  C   UNL     1      35.458 -18.302 -22.965  0.00  0.00    +0.033 C 
BRANCH  12  13
ATOM     13  C   UNL     1      34.836 -19.106 -24.119  0.00  0.00    +0.003 C 
BRANCH  13  14
ATOM     14  C   UNL     1      34.307 -18.224 -25.257  0.00  0.00    +0.000 C 
BRANCH  14  15
ATOM     15  C   UNL     1      34.836 -16.788 -25.213  0.00  0.00    +0.000 C 
BRANCH  15  16
ATOM     16  C   UNL     1      33.732 -15.742 -25.037  0.00  0.00    +0.000 C 
ATOM     17  C   UNL     1      33.094 -15.302 -26.345  0.00  0.00    +0.000 C 
ENDBRANCH  15  16
ENDBRANCH  14  15
ENDBRANCH  13  14
ENDBRANCH  12  13
ENDBRANCH   1  12
BRANCH   1  18
ATOM     18  C   UNL     1      35.030 -16.910 -20.899  0.00  0.00    +0.128 C 
BRANCH  18  19
ATOM     19  N   UNL     1      34.267 -15.669 -21.046  0.00  0.00    -0.265 N 
ATOM     20  N   UNL     1      32.715 -14.151 -20.688  0.00  0.00    -0.225 NA
ATOM     21  C   UNL     1      34.538 -14.678 -21.927  0.00  0.00    +0.088 C 
ATOM     22  C   UNL     1      33.175 -15.326 -20.321  0.00  0.00    +0.168 C 
ATOM     23  C   UNL     1      33.560 -13.741 -21.689  0.00  0.00    +0.117 C 
ENDBRANCH  18  19
ENDBRANCH   1  18
TORSDOF 9
ENDMDL
MODEL 8
REMARK VINA RESULT:      -7.9      4.860      8.219
REMARK  Name = 5289140
REMARK  9 active torsions:
REMARK  status: ('A' for Active; 'I' for Inactive)
REMARK    1  A    between atoms: C_1  and  C_4
REMARK    2  A    between atoms: C_1  and  O_10
REMARK    3  A    between atoms: C_1  and  C_12
REMARK    4  A    between atoms: C_1  and  C_18
REMARK    5  A    between atoms: C_12  and  C_13
REMARK    6  A    between atoms: C_13  and  C_14
REMARK    7  A    between atoms: C_14  and  C_15
REMARK    8  A    between atoms: C_15  and  C_16
REMARK    9  A    between atoms: C_18  and  N_19
REMARK                            x       y       z     vdW  Elec       q    Type
REMARK                         _______ _______ _______ _____ _____    ______ ____
ROOT
ATOM      1  C   UNL     1      33.139 -13.416 -23.337  0.00  0.00    +0.126 C 
ENDROOT
BRANCH   1   4
ATOM      2 CL   UNL     1      34.452 -11.242 -25.081  0.00  0.00    -0.082 Cl
ATOM      3 CL   UNL     1      31.508  -7.741 -22.244  0.00  0.00    -0.082 Cl
ATOM      4  C   UNL     1      32.744 -11.961 -23.082  0.00  0.00    +0.014 C 
ATOM      5  C   UNL     1      33.298 -10.948 -23.833  0.00  0.00    +0.057 C 
ATOM      6  C   UNL     1      31.824 -11.725 -22.084  0.00  0.00    -0.000 C 
ATOM      7  C   UNL     1      32.914  -9.632 -23.571  0.00  0.00    +0.023 C 
ATOM      8  C   UNL     1      31.439 -10.410 -21.823  0.00  0.00    +0.011 C 
ATOM      9  C   UNL     1      31.984  -9.363 -22.567  0.00  0.00    +0.058 C 
ENDBRANCH   1   4
BRANCH   1  10
ATOM     10  O   UNL     1      34.566 -13.562 -23.310  0.00  0.00    -0.381 OA
ATOM     11  H   UNL     1      34.889 -13.425 -22.406  0.00  0.00    +0.211 HD
ENDBRANCH   1  10
BRANCH   1  12
ATOM     12  C   UNL     1      32.672 -13.912 -24.736  0.00  0.00    +0.033 C 
BRANCH  12  13
ATOM     13  C   UNL     1      33.748 -14.680 -25.521  0.00  0.00    +0.003 C 
BRANCH  13  14
ATOM     14  C   UNL     1      33.464 -16.183 -25.630  0.00  0.00    +0.000 C 
BRANCH  14  15
ATOM     15  C   UNL     1      34.654 -17.060 -25.232  0.00  0.00    +0.000 C 
BRANCH  15  16
ATOM     16  C   UNL     1      34.289 -18.537 -25.066  0.00  0.00    +0.000 C 
ATOM     17  C   UNL     1      35.027 -19.224 -23.928  0.00  0.00    +0.000 C 
ENDBRANCH  15  16
ENDBRANCH  14  15
ENDBRANCH  13  14
ENDBRANCH  12  13
ENDBRANCH   1  12
BRANCH   1  18
ATOM     18  C   UNL     1      32.549 -14.362 -22.252  0.00  0.00    +0.128 C 
BRANCH  18  19
ATOM     19  N   UNL     1      33.529 -15.204 -21.564  0.00  0.00    -0.265 N 
ATOM     20  N   UNL     1      35.031 -15.825 -20.080  0.00  0.00    -0.225 NA
ATOM     21  C   UNL     1      33.880 -16.460 -21.926  0.00  0.00    +0.088 C 
ATOM     22  C   UNL     1      34.232 -14.852 -20.460  0.00  0.00    +0.168 C 
ATOM     23  C   UNL     1      34.817 -16.829 -20.990  0.00  0.00    +0.117 C 
ENDBRANCH  18  19
ENDBRANCH   1  18
TORSDOF 9
ENDMDL
MODEL 9
REMARK VINA RESULT:      -7.9      6.035      9.279
REMARK  Name = 5289140
REMARK  9 active torsions:
REMARK  status: ('A' for Active; 'I' for Inactive)
REMARK    1  A    between atoms: C_1  and  C_4
REMARK    2  A    between atoms: C_1  and  O_10
REMARK    3  A    between atoms: C_1  and  C_12
REMARK    4  A    between atoms: C_1  and  C_18
REMARK    5  A    between atoms: C_12  and  C_13
REMARK    6  A    between atoms: C_13  and  C_14
REMARK    7  A    between atoms: C_14  and  C_15
REMARK    8  A    between atoms: C_15  and  C_16
REMARK    9  A    between atoms: C_18  and  N_19
REMARK                            x       y       z     vdW  Elec       q    Type
REMARK                         _______ _______ _______ _____ _____    ______ ____
ROOT
ATOM      1  C   UNL     1      34.836 -23.506 -15.152  0.00  0.00    +0.126 C 
ENDROOT
BRANCH   1   4
ATOM      2 CL   UNL     1      33.540 -23.418 -17.946  0.00  0.00    -0.082 Cl
ATOM      3 CL   UNL     1      28.875 -22.802 -15.333  0.00  0.00    -0.082 Cl
ATOM      4  C   UNL     1      33.319 -23.328 -15.231  0.00  0.00    +0.014 C 
ATOM      5  C   UNL     1      32.686 -23.282 -16.453  0.00  0.00    +0.057 C 
ATOM      6  C   UNL     1      32.637 -23.218 -14.038  0.00  0.00    -0.000 C 
ATOM      7  C   UNL     1      31.301 -23.118 -16.486  0.00  0.00    +0.023 C 
ATOM      8  C   UNL     1      31.252 -23.054 -14.071  0.00  0.00    +0.011 C 
ATOM      9  C   UNL     1      30.584 -23.004 -15.294  0.00  0.00    +0.058 C 
ENDBRANCH   1   4
BRANCH   1  10
ATOM     10  O   UNL     1      35.377 -22.735 -14.070  0.00  0.00    -0.381 OA
ATOM     11  H   UNL     1      36.344 -22.709 -14.143  0.00  0.00    +0.211 HD
ENDBRANCH   1  10
BRANCH   1  12
ATOM     12  C   UNL     1      35.549 -23.013 -16.444  0.00  0.00    +0.033 C 
BRANCH  12  13
ATOM     13  C   UNL     1      36.733 -22.067 -16.185  0.00  0.00    +0.003 C 
BRANCH  13  14
ATOM     14  C   UNL     1      37.122 -21.231 -17.410  0.00  0.00    +0.000 C 
BRANCH  14  15
ATOM     15  C   UNL     1      36.435 -21.682 -18.701  0.00  0.00    +0.000 C 
BRANCH  15  16
ATOM     16  C   UNL     1      36.452 -20.617 -19.800  0.00  0.00    +0.000 C 
ATOM     17  C   UNL     1      35.096 -20.389 -20.450  0.00  0.00    +0.000 C 
ENDBRANCH  15  16
ENDBRANCH  14  15
ENDBRANCH  13  14
ENDBRANCH  12  13
ENDBRANCH   1  12
BRANCH   1  18
ATOM     18  C   UNL     1      35.220 -24.994 -14.908  0.00  0.00    +0.128 C 
BRANCH  18  19
ATOM     19  N   UNL     1      36.374 -25.200 -14.032  0.00  0.00    -0.265 N 
ATOM     20  N   UNL     1      37.529 -25.507 -12.184  0.00  0.00    -0.225 NA
ATOM     21  C   UNL     1      37.663 -25.290 -14.436  0.00  0.00    +0.088 C 
ATOM     22  C   UNL     1      36.326 -25.334 -12.685  0.00  0.00    +0.168 C 
ATOM     23  C   UNL     1      38.367 -25.481 -13.270  0.00  0.00    +0.117 C 
ENDBRANCH  18  19
ENDBRANCH   1  18
TORSDOF 9
ENDMDL
