MODEL 1
REMARK VINA RESULT:      -8.2      0.000      0.000
REMARK  Name = 175540
REMARK  9 active torsions:
REMARK  status: ('A' for Active; 'I' for Inactive)
REMARK    1  A    between atoms: O_1  and  C_2
REMARK    2  A    between atoms: O_1  and  C_14
REMARK    3  A    between atoms: C_3  and  C_8
REMARK    4  A    between atoms: C_8  and  C_11
REMARK    5  A    between atoms: C_14  and  C_15
REMARK    6  A    between atoms: C_15  and  O_16
REMARK    7  A    between atoms: C_15  and  C_18
REMARK    8  A    between atoms: C_18  and  N_19
REMARK    9  A    between atoms: N_19  and  C_22
REMARK                            x       y       z     vdW  Elec       q    Type
REMARK                         _______ _______ _______ _____ _____    ______ ____
ROOT
ATOM      1  O   UNL     1      35.702 -17.825 -22.598  0.00  0.00    -0.473 OA
ENDROOT
BRANCH   1   2
ATOM      2  C   UNL     1      35.557 -18.826 -21.676  0.00  0.00    +0.139 C 
ATOM      3  C   UNL     1      35.264 -20.861 -19.802  0.00  0.00    -0.013 C 
ATOM      4  C   UNL     1      36.675 -19.315 -21.007  0.00  0.00    +0.037 C 
ATOM      5  C   UNL     1      34.294 -19.346 -21.414  0.00  0.00    +0.037 C 
ATOM      6  C   UNL     1      36.528 -20.336 -20.068  0.00  0.00    -0.001 C 
ATOM      7  C   UNL     1      34.147 -20.367 -20.475  0.00  0.00    -0.001 C 
BRANCH   3   8
ATOM      8  C   UNL     1      35.106 -21.952 -18.797  0.00  0.00    +0.111 C 
BRANCH   8  11
ATOM      9  O   UNL     1      33.951 -23.849 -19.773  0.00  0.00    -0.275 OA
ATOM     10  N   UNL     1      32.779 -22.443 -18.384  0.00  0.00    -0.329 N 
ATOM     11  C   UNL     1      33.911 -22.855 -19.053  0.00  0.00    +0.224 C 
ATOM     12  H   UNL     1      31.941 -22.954 -18.474  0.00  0.00    +0.145 HD
ATOM     13  H   UNL     1      32.807 -21.640 -17.815  0.00  0.00    +0.145 HD
ENDBRANCH   8  11
ENDBRANCH   3   8
ENDBRANCH   1   2
BRANCH   1  14
ATOM     14  C   UNL     1      34.967 -17.961 -23.810  0.00  0.00    +0.232 C 
BRANCH  14  15
ATOM     15  C   UNL     1      34.957 -16.616 -24.533  0.00  0.00    +0.133 C 
BRANCH  15  16
ATOM     16  O   UNL     1      34.694 -16.844 -25.921  0.00  0.00    -0.383 OA
ATOM     17  H   UNL     1      34.408 -17.763 -26.050  0.00  0.00    +0.210 HD
ENDBRANCH  15  16
BRANCH  15  18
ATOM     18  C   UNL     1      33.897 -15.650 -24.000  0.00  0.00    -0.048 C 
BRANCH  18  19
ATOM     19  N   UNL     1      34.371 -14.900 -22.845  0.00  0.00    +0.387 N 
ATOM     20  H   UNL     1      34.354 -13.903 -23.064  0.00  0.00    -0.084 HD
ATOM     21  H   UNL     1      35.322 -15.201 -22.630  0.00  0.00    -0.084 HD
BRANCH  19  22
ATOM     22  C   UNL     1      33.531 -15.146 -21.681  0.00  0.00    -0.062 C 
ATOM     23  C   UNL     1      34.412 -15.399 -20.462  0.00  0.00    -0.023 C 
ATOM     24  C   UNL     1      32.594 -13.965 -21.445  0.00  0.00    -0.023 C 
ENDBRANCH  19  22
ENDBRANCH  18  19
ENDBRANCH  15  18
ENDBRANCH  14  15
ENDBRANCH   1  14
TORSDOF 9
ENDMDL
MODEL 2
REMARK VINA RESULT:      -8.1      3.994      9.077
REMARK  Name = 175540
REMARK  9 active torsions:
REMARK  status: ('A' for Active; 'I' for Inactive)
REMARK    1  A    between atoms: O_1  and  C_2
REMARK    2  A    between atoms: O_1  and  C_14
REMARK    3  A    between atoms: C_3  and  C_8
REMARK    4  A    between atoms: C_8  and  C_11
REMARK    5  A    between atoms: C_14  and  C_15
REMARK    6  A    between atoms: C_15  and  O_16
REMARK    7  A    between atoms: C_15  and  C_18
REMARK    8  A    between atoms: C_18  and  N_19
REMARK    9  A    between atoms: N_19  and  C_22
REMARK                            x       y       z     vdW  Elec       q    Type
REMARK                         _______ _______ _______ _____ _____    ______ ____
ROOT
ATOM      1  O   UNL     1      35.313 -22.909 -17.527  0.00  0.00    -0.473 OA
ENDROOT
BRANCH   1   2
ATOM      2  C   UNL     1      35.103 -22.036 -18.560  0.00  0.00    +0.139 C 
ATOM      3  C   UNL     1      34.679 -20.260 -20.658  0.00  0.00    -0.013 C 
ATOM      4  C   UNL     1      36.190 -21.422 -19.175  0.00  0.00    +0.037 C 
ATOM      5  C   UNL     1      33.806 -21.769 -18.986  0.00  0.00    +0.037 C 
ATOM      6  C   UNL     1      35.977 -20.531 -20.227  0.00  0.00    -0.001 C 
ATOM      7  C   UNL     1      33.594 -20.878 -20.038  0.00  0.00    -0.001 C 
BRANCH   3   8
ATOM      8  C   UNL     1      34.451 -19.307 -21.783  0.00  0.00    +0.111 C 
BRANCH   8  11
ATOM      9  O   UNL     1      35.250 -17.261 -20.753  0.00  0.00    -0.275 OA
ATOM     10  N   UNL     1      36.109 -17.873 -22.794  0.00  0.00    -0.329 N 
ATOM     11  C   UNL     1      35.291 -18.044 -21.698  0.00  0.00    +0.224 C 
ATOM     12  H   UNL     1      36.701 -17.088 -22.849  0.00  0.00    +0.145 HD
ATOM     13  H   UNL     1      36.104 -18.537 -23.521  0.00  0.00    +0.145 HD
ENDBRANCH   8  11
ENDBRANCH   3   8
ENDBRANCH   1   2
BRANCH   1  14
ATOM     14  C   UNL     1      36.264 -22.517 -16.541  0.00  0.00    +0.232 C 
BRANCH  14  15
ATOM     15  C   UNL     1      36.216 -23.515 -15.386  0.00  0.00    +0.133 C 
BRANCH  15  16
ATOM     16  O   UNL     1      35.502 -24.678 -15.815  0.00  0.00    -0.383 OA
ATOM     17  H   UNL     1      35.959 -25.474 -15.499  0.00  0.00    +0.210 HD
ENDBRANCH  15  16
BRANCH  15  18
ATOM     18  C   UNL     1      37.601 -23.954 -14.908  0.00  0.00    -0.048 C 
BRANCH  18  19
ATOM     19  N   UNL     1      37.921 -25.311 -15.328  0.00  0.00    +0.387 N 
ATOM     20  H   UNL     1      38.373 -25.281 -16.242  0.00  0.00    -0.084 HD
ATOM     21  H   UNL     1      37.055 -25.849 -15.376  0.00  0.00    -0.084 HD
BRANCH  19  22
ATOM     22  C   UNL     1      38.815 -25.955 -14.376  0.00  0.00    -0.062 C 
ATOM     23  C   UNL     1      40.248 -25.500 -14.636  0.00  0.00    -0.023 C 
ATOM     24  C   UNL     1      38.388 -25.633 -12.947  0.00  0.00    -0.023 C 
ENDBRANCH  19  22
ENDBRANCH  18  19
ENDBRANCH  15  18
ENDBRANCH  14  15
ENDBRANCH   1  14
TORSDOF 9
ENDMDL
MODEL 3
REMARK VINA RESULT:      -8.0      3.385      8.353
REMARK  Name = 175540
REMARK  9 active torsions:
REMARK  status: ('A' for Active; 'I' for Inactive)
REMARK    1  A    between atoms: O_1  and  C_2
REMARK    2  A    between atoms: O_1  and  C_14
REMARK    3  A    between atoms: C_3  and  C_8
REMARK    4  A    between atoms: C_8  and  C_11
REMARK    5  A    between atoms: C_14  and  C_15
REMARK    6  A    between atoms: C_15  and  O_16
REMARK    7  A    between atoms: C_15  and  C_18
REMARK    8  A    between atoms: C_18  and  N_19
REMARK    9  A    between atoms: N_19  and  C_22
REMARK                            x       y       z     vdW  Elec       q    Type
REMARK                         _______ _______ _______ _____ _____    ______ ____
ROOT
ATOM      1  O   UNL     1      34.670 -23.195 -17.778  0.00  0.00    -0.473 OA
ENDROOT
BRANCH   1   2
ATOM      2  C   UNL     1      34.571 -22.212 -18.725  0.00  0.00    +0.139 C 
ATOM      3  C   UNL     1      34.371 -20.214 -20.650  0.00  0.00    -0.013 C 
ATOM      4  C   UNL     1      35.725 -21.692 -19.302  0.00  0.00    +0.037 C 
ATOM      5  C   UNL     1      33.318 -21.741 -19.103  0.00  0.00    +0.037 C 
ATOM      6  C   UNL     1      35.625 -20.690 -20.267  0.00  0.00    -0.001 C 
ATOM      7  C   UNL     1      33.218 -20.739 -20.068  0.00  0.00    -0.001 C 
BRANCH   3   8
ATOM      8  C   UNL     1      34.264 -19.142 -21.682  0.00  0.00    +0.111 C 
BRANCH   8  11
ATOM      9  O   UNL     1      35.343 -17.256 -20.604  0.00  0.00    -0.275 OA
ATOM     10  N   UNL     1      36.217 -18.043 -22.578  0.00  0.00    -0.329 N 
ATOM     11  C   UNL     1      35.309 -18.048 -21.542  0.00  0.00    +0.224 C 
ATOM     12  H   UNL     1      36.942 -17.377 -22.594  0.00  0.00    +0.145 HD
ATOM     13  H   UNL     1      36.143 -18.706 -23.302  0.00  0.00    +0.145 HD
ENDBRANCH   8  11
ENDBRANCH   3   8
ENDBRANCH   1   2
BRANCH   1  14
ATOM     14  C   UNL     1      33.659 -23.221 -16.775  0.00  0.00    +0.232 C 
BRANCH  14  15
ATOM     15  C   UNL     1      34.296 -23.605 -15.441  0.00  0.00    +0.133 C 
BRANCH  15  16
ATOM     16  O   UNL     1      35.085 -22.505 -14.978  0.00  0.00    -0.383 OA
ATOM     17  H   UNL     1      34.550 -21.946 -14.392  0.00  0.00    +0.210 HD
ENDBRANCH  15  16
BRANCH  15  18
ATOM     18  C   UNL     1      33.272 -23.948 -14.358  0.00  0.00    -0.048 C 
BRANCH  18  19
ATOM     19  N   UNL     1      32.334 -22.858 -14.126  0.00  0.00    +0.387 N 
ATOM     20  H   UNL     1      32.388 -22.200 -14.903  0.00  0.00    -0.084 HD
ATOM     21  H   UNL     1      32.582 -22.397 -13.250  0.00  0.00    -0.084 HD
BRANCH  19  22
ATOM     22  C   UNL     1      30.970 -23.357 -14.018  0.00  0.00    -0.062 C 
ATOM     23  C   UNL     1      30.183 -22.960 -15.263  0.00  0.00    -0.023 C 
ATOM     24  C   UNL     1      30.974 -24.872 -13.832  0.00  0.00    -0.023 C 
ENDBRANCH  19  22
ENDBRANCH  18  19
ENDBRANCH  15  18
ENDBRANCH  14  15
ENDBRANCH   1  14
TORSDOF 9
ENDMDL
MODEL 4
REMARK VINA RESULT:      -8.0      2.900      8.181
REMARK  Name = 175540
REMARK  9 active torsions:
REMARK  status: ('A' for Active; 'I' for Inactive)
REMARK    1  A    between atoms: O_1  and  C_2
REMARK    2  A    between atoms: O_1  and  C_14
REMARK    3  A    between atoms: C_3  and  C_8
REMARK    4  A    between atoms: C_8  and  C_11
REMARK    5  A    between atoms: C_14  and  C_15
REMARK    6  A    between atoms: C_15  and  O_16
REMARK    7  A    between atoms: C_15  and  C_18
REMARK    8  A    between atoms: C_18  and  N_19
REMARK    9  A    between atoms: N_19  and  C_22
REMARK                            x       y       z     vdW  Elec       q    Type
REMARK                         _______ _______ _______ _____ _____    ______ ____
ROOT
ATOM      1  O   UNL     1      34.419 -23.087 -17.830  0.00  0.00    -0.473 OA
ENDROOT
BRANCH   1   2
ATOM      2  C   UNL     1      34.409 -22.128 -18.807  0.00  0.00    +0.139 C 
ATOM      3  C   UNL     1      34.387 -20.181 -20.793  0.00  0.00    -0.013 C 
ATOM      4  C   UNL     1      33.198 -21.600 -19.242  0.00  0.00    +0.037 C 
ATOM      5  C   UNL     1      35.609 -21.691 -19.357  0.00  0.00    +0.037 C 
ATOM      6  C   UNL     1      33.186 -20.624 -20.238  0.00  0.00    -0.001 C 
ATOM      7  C   UNL     1      35.598 -20.714 -20.353  0.00  0.00    -0.001 C 
BRANCH   3   8
ATOM      8  C   UNL     1      34.375 -19.137 -21.858  0.00  0.00    +0.111 C 
BRANCH   8  11
ATOM      9  O   UNL     1      35.373 -17.272 -20.670  0.00  0.00    -0.275 OA
ATOM     10  N   UNL     1      36.328 -17.956 -22.645  0.00  0.00    -0.329 N 
ATOM     11  C   UNL     1      35.387 -18.025 -21.640  0.00  0.00    +0.224 C 
ATOM     12  H   UNL     1      37.036 -17.272 -22.609  0.00  0.00    +0.145 HD
ATOM     13  H   UNL     1      36.294 -18.590 -23.397  0.00  0.00    +0.145 HD
ENDBRANCH   8  11
ENDBRANCH   3   8
ENDBRANCH   1   2
BRANCH   1  14
ATOM     14  C   UNL     1      33.161 -23.425 -17.253  0.00  0.00    +0.232 C 
BRANCH  14  15
ATOM     15  C   UNL     1      33.261 -23.286 -15.736  0.00  0.00    +0.133 C 
BRANCH  15  16
ATOM     16  O   UNL     1      32.217 -24.059 -15.136  0.00  0.00    -0.383 OA
ATOM     17  H   UNL     1      31.678 -23.488 -14.565  0.00  0.00    +0.210 HD
ENDBRANCH  15  16
BRANCH  15  18
ATOM     18  C   UNL     1      34.598 -23.771 -15.171  0.00  0.00    -0.048 C 
BRANCH  18  19
ATOM     19  N   UNL     1      35.472 -22.664 -14.808  0.00  0.00    +0.387 N 
ATOM     20  H   UNL     1      35.309 -22.415 -13.832  0.00  0.00    -0.084 HD
ATOM     21  H   UNL     1      35.264 -21.872 -15.417  0.00  0.00    -0.084 HD
BRANCH  19  22
ATOM     22  C   UNL     1      36.872 -23.027 -14.979  0.00  0.00    -0.062 C 
ATOM     23  C   UNL     1      36.997 -24.544 -15.074  0.00  0.00    -0.023 C 
ATOM     24  C   UNL     1      37.446 -22.350 -16.220  0.00  0.00    -0.023 C 
ENDBRANCH  19  22
ENDBRANCH  18  19
ENDBRANCH  15  18
ENDBRANCH  14  15
ENDBRANCH   1  14
TORSDOF 9
ENDMDL
MODEL 5
REMARK VINA RESULT:      -7.9      2.060      3.051
REMARK  Name = 175540
REMARK  9 active torsions:
REMARK  status: ('A' for Active; 'I' for Inactive)
REMARK    1  A    between atoms: O_1  and  C_2
REMARK    2  A    between atoms: O_1  and  C_14
REMARK    3  A    between atoms: C_3  and  C_8
REMARK    4  A    between atoms: C_8  and  C_11
REMARK    5  A    between atoms: C_14  and  C_15
REMARK    6  A    between atoms: C_15  and  O_16
REMARK    7  A    between atoms: C_15  and  C_18
REMARK    8  A    between atoms: C_18  and  N_19
REMARK    9  A    between atoms: N_19  and  C_22
REMARK                            x       y       z     vdW  Elec       q    Type
REMARK                         _______ _______ _______ _____ _____    ______ ____
ROOT
ATOM      1  O   UNL     1      35.046 -19.187 -21.737  0.00  0.00    -0.473 OA
ENDROOT
BRANCH   1   2
ATOM      2  C   UNL     1      34.683 -20.141 -20.825  0.00  0.00    +0.139 C 
ATOM      3  C   UNL     1      33.947 -22.082 -18.973  0.00  0.00    -0.013 C 
ATOM      4  C   UNL     1      35.650 -20.988 -20.293  0.00  0.00    +0.037 C 
ATOM      5  C   UNL     1      33.352 -20.256 -20.439  0.00  0.00    +0.037 C 
ATOM      6  C   UNL     1      35.281 -21.962 -19.364  0.00  0.00    -0.001 C 
ATOM      7  C   UNL     1      32.983 -21.230 -19.510  0.00  0.00    -0.001 C 
BRANCH   3   8
ATOM      8  C   UNL     1      33.553 -23.122 -17.980  0.00  0.00    +0.111 C 
BRANCH   8  11
ATOM      9  O   UNL     1      35.594 -23.004 -16.675  0.00  0.00    -0.275 OA
ATOM     10  N   UNL     1      33.588 -23.162 -15.566  0.00  0.00    -0.329 N 
ATOM     11  C   UNL     1      34.369 -23.090 -16.699  0.00  0.00    +0.224 C 
ATOM     12  H   UNL     1      34.009 -23.149 -14.676  0.00  0.00    +0.145 HD
ATOM     13  H   UNL     1      32.608 -23.225 -15.646  0.00  0.00    +0.145 HD
ENDBRANCH   8  11
ENDBRANCH   3   8
ENDBRANCH   1   2
BRANCH   1  14
ATOM     14  C   UNL     1      35.699 -18.029 -21.225  0.00  0.00    +0.232 C 
BRANCH  14  15
ATOM     15  C   UNL     1      34.726 -16.854 -21.270  0.00  0.00    +0.133 C 
BRANCH  15  16
ATOM     16  O   UNL     1      34.993 -15.995 -20.157  0.00  0.00    -0.383 OA
ATOM     17  H   UNL     1      34.992 -16.516 -19.338  0.00  0.00    +0.210 HD
ENDBRANCH  15  16
BRANCH  15  18
ATOM     18  C   UNL     1      34.838 -16.024 -22.550  0.00  0.00    -0.048 C 
BRANCH  18  19
ATOM     19  N   UNL     1      35.630 -16.695 -23.571  0.00  0.00    +0.387 N 
ATOM     20  H   UNL     1      35.856 -17.638 -23.253  0.00  0.00    -0.084 HD
ATOM     21  H   UNL     1      36.484 -16.158 -23.726  0.00  0.00    -0.084 HD
BRANCH  19  22
ATOM     22  C   UNL     1      34.900 -16.779 -24.828  0.00  0.00    -0.062 C 
ATOM     23  C   UNL     1      34.349 -18.190 -25.003  0.00  0.00    -0.023 C 
ATOM     24  C   UNL     1      33.779 -15.745 -24.858  0.00  0.00    -0.023 C 
ENDBRANCH  19  22
ENDBRANCH  18  19
ENDBRANCH  15  18
ENDBRANCH  14  15
ENDBRANCH   1  14
TORSDOF 9
ENDMDL
MODEL 6
REMARK VINA RESULT:      -7.8      3.831      8.935
REMARK  Name = 175540
REMARK  9 active torsions:
REMARK  status: ('A' for Active; 'I' for Inactive)
REMARK    1  A    between atoms: O_1  and  C_2
REMARK    2  A    between atoms: O_1  and  C_14
REMARK    3  A    between atoms: C_3  and  C_8
REMARK    4  A    between atoms: C_8  and  C_11
REMARK    5  A    between atoms: C_14  and  C_15
REMARK    6  A    between atoms: C_15  and  O_16
REMARK    7  A    between atoms: C_15  and  C_18
REMARK    8  A    between atoms: C_18  and  N_19
REMARK    9  A    between atoms: N_19  and  C_22
REMARK                            x       y       z     vdW  Elec       q    Type
REMARK                         _______ _______ _______ _____ _____    ______ ____
ROOT
ATOM      1  O   UNL     1      34.895 -23.108 -17.751  0.00  0.00    -0.473 OA
ENDROOT
BRANCH   1   2
ATOM      2  C   UNL     1      34.743 -22.149 -18.716  0.00  0.00    +0.139 C 
ATOM      3  C   UNL     1      34.436 -20.202 -20.678  0.00  0.00    -0.013 C 
ATOM      4  C   UNL     1      35.868 -21.593 -19.318  0.00  0.00    +0.037 C 
ATOM      5  C   UNL     1      33.467 -21.740 -19.088  0.00  0.00    +0.037 C 
ATOM      6  C   UNL     1      35.714 -20.616 -20.301  0.00  0.00    -0.001 C 
ATOM      7  C   UNL     1      33.313 -20.763 -20.071  0.00  0.00    -0.001 C 
BRANCH   3   8
ATOM      8  C   UNL     1      34.271 -19.157 -21.729  0.00  0.00    +0.111 C 
BRANCH   8  11
ATOM      9  O   UNL     1      35.243 -17.228 -20.625  0.00  0.00    -0.275 OA
ATOM     10  N   UNL     1      36.093 -17.874 -22.660  0.00  0.00    -0.329 N 
ATOM     11  C   UNL     1      35.232 -17.987 -21.590  0.00  0.00    +0.224 C 
ATOM     12  H   UNL     1      36.762 -17.152 -22.678  0.00  0.00    +0.145 HD
ATOM     13  H   UNL     1      36.042 -18.517 -23.404  0.00  0.00    +0.145 HD
ENDBRANCH   8  11
ENDBRANCH   3   8
ENDBRANCH   1   2
BRANCH   1  14
ATOM     14  C   UNL     1      33.838 -23.237 -16.806  0.00  0.00    +0.232 C 
BRANCH  14  15
ATOM     15  C   UNL     1      34.434 -23.280 -15.401  0.00  0.00    +0.133 C 
BRANCH  15  16
ATOM     16  O   UNL     1      33.390 -23.037 -14.453  0.00  0.00    -0.383 OA
ATOM     17  H   UNL     1      32.532 -23.251 -14.853  0.00  0.00    +0.210 HD
ENDBRANCH  15  16
BRANCH  15  18
ATOM     18  C   UNL     1      35.086 -24.621 -15.060  0.00  0.00    -0.048 C 
BRANCH  18  19
ATOM     19  N   UNL     1      35.126 -24.861 -13.624  0.00  0.00    +0.387 N 
ATOM     20  H   UNL     1      34.929 -25.847 -13.445  0.00  0.00    -0.084 HD
ATOM     21  H   UNL     1      34.425 -24.271 -13.176  0.00  0.00    -0.084 HD
BRANCH  19  22
ATOM     22  C   UNL     1      36.433 -24.530 -13.075  0.00  0.00    -0.062 C 
ATOM     23  C   UNL     1      36.277 -23.460 -12.000  0.00  0.00    -0.023 C 
ATOM     24  C   UNL     1      37.103 -25.779 -12.512  0.00  0.00    -0.023 C 
ENDBRANCH  19  22
ENDBRANCH  18  19
ENDBRANCH  15  18
ENDBRANCH  14  15
ENDBRANCH   1  14
TORSDOF 9
ENDMDL
MODEL 7
REMARK VINA RESULT:      -7.8      1.817      2.644
REMARK  Name = 175540
REMARK  9 active torsions:
REMARK  status: ('A' for Active; 'I' for Inactive)
REMARK    1  A    between atoms: O_1  and  C_2
REMARK    2  A    between atoms: O_1  and  C_14
REMARK    3  A    between atoms: C_3  and  C_8
REMARK    4  A    between atoms: C_8  and  C_11
REMARK    5  A    between atoms: C_14  and  C_15
REMARK    6  A    between atoms: C_15  and  O_16
REMARK    7  A    between atoms: C_15  and  C_18
REMARK    8  A    between atoms: C_18  and  N_19
REMARK    9  A    between atoms: N_19  and  C_22
REMARK                            x       y       z     vdW  Elec       q    Type
REMARK                         _______ _______ _______ _____ _____    ______ ____
ROOT
ATOM      1  O   UNL     1      34.944 -16.130 -24.246  0.00  0.00    -0.473 OA
ENDROOT
BRANCH   1   2
ATOM      2  C   UNL     1      34.900 -17.152 -23.337  0.00  0.00    +0.139 C 
ATOM      3  C   UNL     1      34.812 -19.228 -21.489  0.00  0.00    -0.013 C 
ATOM      4  C   UNL     1      35.023 -16.873 -21.980  0.00  0.00    +0.037 C 
ATOM      5  C   UNL     1      34.733 -18.461 -23.778  0.00  0.00    +0.037 C 
ATOM      6  C   UNL     1      34.980 -17.914 -21.053  0.00  0.00    -0.001 C 
ATOM      7  C   UNL     1      34.689 -19.502 -22.850  0.00  0.00    -0.001 C 
BRANCH   3   8
ATOM      8  C   UNL     1      34.765 -20.342 -20.498  0.00  0.00    +0.111 C 
BRANCH   8  11
ATOM      9  O   UNL     1      32.386 -19.994 -20.180  0.00  0.00    -0.275 OA
ATOM     10  N   UNL     1      33.288 -22.025 -19.595  0.00  0.00    -0.329 N 
ATOM     11  C   UNL     1      33.358 -20.738 -20.084  0.00  0.00    +0.224 C 
ATOM     12  H   UNL     1      32.424 -22.391 -19.297  0.00  0.00    +0.145 HD
ATOM     13  H   UNL     1      34.101 -22.578 -19.546  0.00  0.00    +0.145 HD
ENDBRANCH   8  11
ENDBRANCH   3   8
ENDBRANCH   1   2
BRANCH   1  14
ATOM     14  C   UNL     1      33.861 -16.047 -25.168  0.00  0.00    +0.232 C 
BRANCH  14  15
ATOM     15  C   UNL     1      33.566 -14.576 -25.452  0.00  0.00    +0.133 C 
BRANCH  15  16
ATOM     16  O   UNL     1      32.325 -14.485 -26.158  0.00  0.00    -0.383 OA
ATOM     17  H   UNL     1      31.680 -15.089 -25.757  0.00  0.00    +0.210 HD
ENDBRANCH  15  16
BRANCH  15  18
ATOM     18  C   UNL     1      33.459 -13.724 -24.186  0.00  0.00    -0.048 C 
BRANCH  18  19
ATOM     19  N   UNL     1      32.681 -14.384 -23.146  0.00  0.00    +0.387 N 
ATOM     20  H   UNL     1      32.990 -15.352 -23.061  0.00  0.00    -0.084 HD
ATOM     21  H   UNL     1      31.694 -14.346 -23.406  0.00  0.00    -0.084 HD
BRANCH  19  22
ATOM     22  C   UNL     1      32.849 -13.715 -21.864  0.00  0.00    -0.062 C 
ATOM     23  C   UNL     1      31.902 -12.522 -21.784  0.00  0.00    -0.023 C 
ATOM     24  C   UNL     1      32.597 -14.693 -20.720  0.00  0.00    -0.023 C 
ENDBRANCH  19  22
ENDBRANCH  18  19
ENDBRANCH  15  18
ENDBRANCH  14  15
ENDBRANCH   1  14
TORSDOF 9
ENDMDL
MODEL 8
REMARK VINA RESULT:      -7.8      3.105      8.035
REMARK  Name = 175540
REMARK  9 active torsions:
REMARK  status: ('A' for Active; 'I' for Inactive)
REMARK    1  A    between atoms: O_1  and  C_2
REMARK    2  A    between atoms: O_1  and  C_14
REMARK    3  A    between atoms: C_3  and  C_8
REMARK    4  A    between atoms: C_8  and  C_11
REMARK    5  A    between atoms: C_14  and  C_15
REMARK    6  A    between atoms: C_15  and  O_16
REMARK    7  A    between atoms: C_15  and  C_18
REMARK    8  A    between atoms: C_18  and  N_19
REMARK    9  A    between atoms: N_19  and  C_22
REMARK                            x       y       z     vdW  Elec       q    Type
REMARK                         _______ _______ _______ _____ _____    ______ ____
ROOT
ATOM      1  O   UNL     1      32.781 -22.165 -18.703  0.00  0.00    -0.473 OA
ENDROOT
BRANCH   1   2
ATOM      2  C   UNL     1      33.522 -21.312 -19.476  0.00  0.00    +0.139 C 
ATOM      3  C   UNL     1      35.030 -19.580 -21.046  0.00  0.00    -0.013 C 
ATOM      4  C   UNL     1      34.904 -21.464 -19.539  0.00  0.00    +0.037 C 
ATOM      5  C   UNL     1      32.888 -20.302 -20.191  0.00  0.00    +0.037 C 
ATOM      6  C   UNL     1      35.660 -20.596 -20.326  0.00  0.00    -0.001 C 
ATOM      7  C   UNL     1      33.645 -19.433 -20.978  0.00  0.00    -0.001 C 
BRANCH   3   8
ATOM      8  C   UNL     1      35.838 -18.651 -21.888  0.00  0.00    +0.111 C 
BRANCH   8  11
ATOM      9  O   UNL     1      35.009 -19.510 -24.000  0.00  0.00    -0.275 OA
ATOM     10  N   UNL     1      35.334 -17.245 -23.784  0.00  0.00    -0.329 N 
ATOM     11  C   UNL     1      35.353 -18.544 -23.324  0.00  0.00    +0.224 C 
ATOM     12  H   UNL     1      35.036 -17.053 -24.703  0.00  0.00    +0.145 HD
ATOM     13  H   UNL     1      35.616 -16.509 -23.195  0.00  0.00    +0.145 HD
ENDBRANCH   8  11
ENDBRANCH   3   8
ENDBRANCH   1   2
BRANCH   1  14
ATOM     14  C   UNL     1      33.497 -23.176 -18.000  0.00  0.00    +0.232 C 
BRANCH  14  15
ATOM     15  C   UNL     1      32.738 -23.519 -16.721  0.00  0.00    +0.133 C 
BRANCH  15  16
ATOM     16  O   UNL     1      33.510 -23.080 -15.599  0.00  0.00    -0.383 OA
ATOM     17  H   UNL     1      32.948 -23.059 -14.808  0.00  0.00    +0.210 HD
ENDBRANCH  15  16
BRANCH  15  18
ATOM     18  C   UNL     1      31.360 -22.861 -16.640  0.00  0.00    -0.048 C 
BRANCH  18  19
ATOM     19  N   UNL     1      30.859 -22.805 -15.273  0.00  0.00    +0.387 N 
ATOM     20  H   UNL     1      30.613 -21.841 -15.047  0.00  0.00    -0.084 HD
ATOM     21  H   UNL     1      31.589 -23.143 -14.645  0.00  0.00    -0.084 HD
BRANCH  19  22
ATOM     22  C   UNL     1      29.681 -23.647 -15.114  0.00  0.00    -0.062 C 
ATOM     23  C   UNL     1      28.900 -23.682 -16.423  0.00  0.00    -0.023 C 
ATOM     24  C   UNL     1      30.091 -25.052 -14.682  0.00  0.00    -0.023 C 
ENDBRANCH  19  22
ENDBRANCH  18  19
ENDBRANCH  15  18
ENDBRANCH  14  15
ENDBRANCH   1  14
TORSDOF 9
ENDMDL
MODEL 9
REMARK VINA RESULT:      -7.8      2.636      3.489
REMARK  Name = 175540
REMARK  9 active torsions:
REMARK  status: ('A' for Active; 'I' for Inactive)
REMARK    1  A    between atoms: O_1  and  C_2
REMARK    2  A    between atoms: O_1  and  C_14
REMARK    3  A    between atoms: C_3  and  C_8
REMARK    4  A    between atoms: C_8  and  C_11
REMARK    5  A    between atoms: C_14  and  C_15
REMARK    6  A    between atoms: C_15  and  O_16
REMARK    7  A    between atoms: C_15  and  C_18
REMARK    8  A    between atoms: C_18  and  N_19
REMARK    9  A    between atoms: N_19  and  C_22
REMARK                            x       y       z     vdW  Elec       q    Type
REMARK                         _______ _______ _______ _____ _____    ______ ____
ROOT
ATOM      1  O   UNL     1      34.728 -15.711 -24.146  0.00  0.00    -0.473 OA
ENDROOT
BRANCH   1   2
ATOM      2  C   UNL     1      34.719 -16.786 -23.300  0.00  0.00    +0.139 C 
ATOM      3  C   UNL     1      34.699 -18.970 -21.578  0.00  0.00    -0.013 C 
ATOM      4  C   UNL     1      34.660 -16.580 -21.925  0.00  0.00    +0.037 C 
ATOM      5  C   UNL     1      34.767 -18.075 -23.820  0.00  0.00    +0.037 C 
ATOM      6  C   UNL     1      34.650 -17.675 -21.061  0.00  0.00    -0.001 C 
ATOM      7  C   UNL     1      34.757 -19.170 -22.956  0.00  0.00    -0.001 C 
BRANCH   3   8
ATOM      8  C   UNL     1      34.688 -20.142 -20.654  0.00  0.00    +0.111 C 
BRANCH   8  11
ATOM      9  O   UNL     1      32.274 -20.246 -20.862  0.00  0.00    -0.275 OA
ATOM     10  N   UNL     1      33.300 -21.566 -19.285  0.00  0.00    -0.329 N 
ATOM     11  C   UNL     1      33.295 -20.633 -20.300  0.00  0.00    +0.224 C 
ATOM     12  H   UNL     1      32.452 -21.956 -18.972  0.00  0.00    +0.145 HD
ATOM     13  H   UNL     1      34.151 -21.843 -18.875  0.00  0.00    +0.145 HD
ENDBRANCH   8  11
ENDBRANCH   3   8
ENDBRANCH   1   2
BRANCH   1  14
ATOM     14  C   UNL     1      33.871 -15.783 -25.282  0.00  0.00    +0.232 C 
BRANCH  14  15
ATOM     15  C   UNL     1      33.370 -14.379 -25.611  0.00  0.00    +0.133 C 
BRANCH  15  16
ATOM     16  O   UNL     1      32.168 -14.490 -26.379  0.00  0.00    -0.383 OA
ATOM     17  H   UNL     1      31.408 -14.241 -25.829  0.00  0.00    +0.210 HD
ENDBRANCH  15  16
BRANCH  15  18
ATOM     18  C   UNL     1      33.068 -13.537 -24.370  0.00  0.00    -0.048 C 
BRANCH  18  19
ATOM     19  N   UNL     1      34.099 -12.539 -24.120  0.00  0.00    +0.387 N 
ATOM     20  H   UNL     1      34.990 -12.881 -24.483  0.00  0.00    -0.084 HD
ATOM     21  H   UNL     1      34.161 -12.381 -23.114  0.00  0.00    -0.084 HD
BRANCH  19  22
ATOM     22  C   UNL     1      33.774 -11.277 -24.770  0.00  0.00    -0.062 C 
ATOM     23  C   UNL     1      33.233 -10.297 -23.735  0.00  0.00    -0.023 C 
ATOM     24  C   UNL     1      35.004 -10.710 -25.472  0.00  0.00    -0.023 C 
ENDBRANCH  19  22
ENDBRANCH  18  19
ENDBRANCH  15  18
ENDBRANCH  14  15
ENDBRANCH   1  14
TORSDOF 9
ENDMDL
