MODEL 1
REMARK VINA RESULT:     -10.8      0.000      0.000
REMARK  Name = 53340426
REMARK  11 active torsions:
REMARK  status: ('A' for Active; 'I' for Inactive)
REMARK    1  A    between atoms: N_1  and  C_9
REMARK    2  A    between atoms: N_1  and  C_15
REMARK    3  A    between atoms: C_4  and  C_23
REMARK    4  A    between atoms: N_22  and  C_25
REMARK    5  A    between atoms: C_25  and  C_26
REMARK    6  A    between atoms: C_26  and  C_27
REMARK    7  A    between atoms: C_27  and  C_28
REMARK    8  A    between atoms: C_28  and  C_29
REMARK    9  A    between atoms: C_29  and  C_30
REMARK   10  A    between atoms: C_30  and  C_33
REMARK   11  A    between atoms: N_32  and  O_35
REMARK                            x       y       z     vdW  Elec       q    Type
REMARK                         _______ _______ _______ _____ _____    ______ ____
ROOT
ATOM      1  N   UNL     1      34.927 -23.544 -14.939  0.00  0.00    -0.210 N 
ATOM      2  N   UNL     1      36.489 -22.273 -16.142  0.00  0.00    -0.202 NA
ATOM      3  N   UNL     1      34.482 -23.088 -17.197  0.00  0.00    -0.180 NA
ATOM      4  C   UNL     1      36.065 -21.786 -18.461  0.00  0.00    +0.076 C 
ATOM      5  C   UNL     1      35.319 -22.938 -16.153  0.00  0.00    +0.098 C 
ATOM      6  C   UNL     1      36.833 -21.706 -17.318  0.00  0.00    +0.170 C 
ATOM      7  C   UNL     1      34.887 -22.496 -18.340  0.00  0.00    +0.113 C 
ENDROOT
BRANCH   1   9
ATOM      8 CL   UNL     1      36.137 -26.315 -15.453  0.00  0.00    -0.081 Cl
ATOM      9  C   UNL     1      35.920 -24.027 -13.980  0.00  0.00    +0.076 C 
ATOM     10  C   UNL     1      36.525 -25.275 -14.129  0.00  0.00    +0.072 C 
ATOM     11  C   UNL     1      36.257 -23.213 -12.898  0.00  0.00    +0.017 C 
ATOM     12  C   UNL     1      37.469 -25.708 -13.197  0.00  0.00    +0.013 C 
ATOM     13  C   UNL     1      37.201 -23.647 -11.966  0.00  0.00    +0.001 C 
ATOM     14  C   UNL     1      37.806 -24.894 -12.116  0.00  0.00    +0.001 C 
ENDBRANCH   1   9
BRANCH   1  15
ATOM     15  C   UNL     1      33.514 -23.712 -14.598  0.00  0.00    +0.065 C 
ATOM     16  C   UNL     1      32.585 -22.745 -14.982  0.00  0.00    +0.016 C 
ATOM     17  C   UNL     1      33.095 -24.839 -13.891  0.00  0.00    +0.016 C 
ATOM     18  C   UNL     1      31.237 -22.904 -14.657  0.00  0.00    +0.001 C 
ATOM     19  C   UNL     1      31.749 -24.999 -13.567  0.00  0.00    +0.001 C 
ATOM     20  C   UNL     1      30.820 -24.031 -13.950  0.00  0.00    +0.000 C 
ENDBRANCH   1  15
BRANCH   4  23
ATOM     21  O   UNL     1      37.006 -21.834 -20.607  0.00  0.00    -0.270 OA
ATOM     22  N   UNL     1      36.199 -19.791 -19.861  0.00  0.00    -0.301 N 
ATOM     23  C   UNL     1      36.476 -21.148 -19.738  0.00  0.00    +0.245 C 
ATOM     24  H   UNL     1      35.770 -19.327 -19.106  0.00  0.00    +0.150 HD
BRANCH  22  25
ATOM     25  C   UNL     1      36.514 -19.039 -21.044  0.00  0.00    +0.090 C 
BRANCH  25  26
ATOM     26  C   UNL     1      35.306 -18.258 -21.549  0.00  0.00    +0.021 C 
BRANCH  26  27
ATOM     27  C   UNL     1      34.432 -19.117 -22.464  0.00  0.00    +0.002 C 
BRANCH  27  28
ATOM     28  C   UNL     1      35.044 -19.243 -23.860  0.00  0.00    +0.001 C 
BRANCH  28  29
ATOM     29  C   UNL     1      34.254 -18.428 -24.888  0.00  0.00    +0.010 C 
BRANCH  29  30
ATOM     30  C   UNL     1      34.892 -17.068 -25.167  0.00  0.00    +0.087 C 
BRANCH  30  33
ATOM     31  O   UNL     1      33.381 -15.724 -26.500  0.00  0.00    -0.273 OA
ATOM     32  N   UNL     1      33.640 -15.240 -24.256  0.00  0.00    -0.197 N 
ATOM     33  C   UNL     1      33.884 -15.956 -25.404  0.00  0.00    +0.244 C 
ATOM     34  H   UNL     1      34.069 -15.464 -23.398  0.00  0.00    +0.182 HD
BRANCH  32  35
ATOM     35  O   UNL     1      32.745 -14.170 -24.385  0.00  0.00    -0.295 OA
ATOM     36  H   UNL     1      33.234 -13.364 -24.613  0.00  0.00    +0.241 HD
ENDBRANCH  32  35
ENDBRANCH  30  33
ENDBRANCH  29  30
ENDBRANCH  28  29
ENDBRANCH  27  28
ENDBRANCH  26  27
ENDBRANCH  25  26
ENDBRANCH  22  25
ENDBRANCH   4  23
TORSDOF 11
ENDMDL
MODEL 2
REMARK VINA RESULT:     -10.5      1.406      1.819
REMARK  Name = 53340426
REMARK  11 active torsions:
REMARK  status: ('A' for Active; 'I' for Inactive)
REMARK    1  A    between atoms: N_1  and  C_9
REMARK    2  A    between atoms: N_1  and  C_15
REMARK    3  A    between atoms: C_4  and  C_23
REMARK    4  A    between atoms: N_22  and  C_25
REMARK    5  A    between atoms: C_25  and  C_26
REMARK    6  A    between atoms: C_26  and  C_27
REMARK    7  A    between atoms: C_27  and  C_28
REMARK    8  A    between atoms: C_28  and  C_29
REMARK    9  A    between atoms: C_29  and  C_30
REMARK   10  A    between atoms: C_30  and  C_33
REMARK   11  A    between atoms: N_32  and  O_35
REMARK                            x       y       z     vdW  Elec       q    Type
REMARK                         _______ _______ _______ _____ _____    ______ ____
ROOT
ATOM      1  N   UNL     1      34.867 -23.612 -14.926  0.00  0.00    -0.210 N 
ATOM      2  N   UNL     1      36.436 -22.316 -16.093  0.00  0.00    -0.202 NA
ATOM      3  N   UNL     1      34.435 -23.110 -17.177  0.00  0.00    -0.180 NA
ATOM      4  C   UNL     1      36.025 -21.782 -18.404  0.00  0.00    +0.076 C 
ATOM      5  C   UNL     1      35.266 -22.981 -16.125  0.00  0.00    +0.098 C 
ATOM      6  C   UNL     1      36.787 -21.726 -17.255  0.00  0.00    +0.170 C 
ATOM      7  C   UNL     1      34.847 -22.495 -18.305  0.00  0.00    +0.113 C 
ENDROOT
BRANCH   1   9
ATOM      8 CL   UNL     1      36.152 -26.328 -15.538  0.00  0.00    -0.081 Cl
ATOM      9  C   UNL     1      35.855 -24.113 -13.970  0.00  0.00    +0.076 C 
ATOM     10  C   UNL     1      36.492 -25.339 -14.163  0.00  0.00    +0.072 C 
ATOM     11  C   UNL     1      36.154 -23.340 -12.848  0.00  0.00    +0.017 C 
ATOM     12  C   UNL     1      37.430 -25.791 -13.234  0.00  0.00    +0.013 C 
ATOM     13  C   UNL     1      37.091 -23.793 -11.919  0.00  0.00    +0.001 C 
ATOM     14  C   UNL     1      37.729 -25.018 -12.112  0.00  0.00    +0.001 C 
ENDBRANCH   1   9
BRANCH   1  15
ATOM     15  C   UNL     1      33.452 -23.786 -14.597  0.00  0.00    +0.065 C 
ATOM     16  C   UNL     1      32.522 -22.821 -14.983  0.00  0.00    +0.016 C 
ATOM     17  C   UNL     1      33.033 -24.918 -13.897  0.00  0.00    +0.016 C 
ATOM     18  C   UNL     1      31.173 -22.987 -14.670  0.00  0.00    +0.001 C 
ATOM     19  C   UNL     1      31.684 -25.085 -13.584  0.00  0.00    +0.001 C 
ATOM     20  C   UNL     1      30.755 -24.119 -13.971  0.00  0.00    +0.000 C 
ENDBRANCH   1  15
BRANCH   4  23
ATOM     21  O   UNL     1      37.219 -21.700 -20.421  0.00  0.00    -0.270 OA
ATOM     22  N   UNL     1      35.890 -19.867 -19.911  0.00  0.00    -0.301 N 
ATOM     23  C   UNL     1      36.443 -21.119 -19.666  0.00  0.00    +0.245 C 
ATOM     24  H   UNL     1      35.277 -19.483 -19.244  0.00  0.00    +0.150 HD
BRANCH  22  25
ATOM     25  C   UNL     1      36.178 -19.111 -21.099  0.00  0.00    +0.090 C 
BRANCH  25  26
ATOM     26  C   UNL     1      34.955 -18.997 -22.001  0.00  0.00    +0.021 C 
BRANCH  26  27
ATOM     27  C   UNL     1      34.507 -17.542 -22.148  0.00  0.00    +0.002 C 
BRANCH  27  28
ATOM     28  C   UNL     1      34.951 -16.700 -20.952  0.00  0.00    +0.001 C 
BRANCH  28  29
ATOM     29  C   UNL     1      34.191 -15.370 -20.896  0.00  0.00    +0.010 C 
BRANCH  29  30
ATOM     30  C   UNL     1      33.198 -15.220 -22.048  0.00  0.00    +0.087 C 
BRANCH  30  33
ATOM     31  O   UNL     1      32.134 -13.075 -22.416  0.00  0.00    -0.273 OA
ATOM     32  N   UNL     1      34.219 -13.472 -23.327  0.00  0.00    -0.197 N 
ATOM     33  C   UNL     1      33.105 -13.805 -22.595  0.00  0.00    +0.244 C 
ATOM     34  H   UNL     1      34.975 -14.092 -23.444  0.00  0.00    +0.182 HD
BRANCH  32  35
ATOM     35  O   UNL     1      34.210 -12.193 -23.901  0.00  0.00    -0.295 OA
ATOM     36  H   UNL     1      33.365 -12.048 -24.355  0.00  0.00    +0.241 HD
ENDBRANCH  32  35
ENDBRANCH  30  33
ENDBRANCH  29  30
ENDBRANCH  28  29
ENDBRANCH  27  28
ENDBRANCH  26  27
ENDBRANCH  25  26
ENDBRANCH  22  25
ENDBRANCH   4  23
TORSDOF 11
ENDMDL
MODEL 3
REMARK VINA RESULT:     -10.2      6.495     13.534
REMARK  Name = 53340426
REMARK  11 active torsions:
REMARK  status: ('A' for Active; 'I' for Inactive)
REMARK    1  A    between atoms: N_1  and  C_9
REMARK    2  A    between atoms: N_1  and  C_15
REMARK    3  A    between atoms: C_4  and  C_23
REMARK    4  A    between atoms: N_22  and  C_25
REMARK    5  A    between atoms: C_25  and  C_26
REMARK    6  A    between atoms: C_26  and  C_27
REMARK    7  A    between atoms: C_27  and  C_28
REMARK    8  A    between atoms: C_28  and  C_29
REMARK    9  A    between atoms: C_29  and  C_30
REMARK   10  A    between atoms: C_30  and  C_33
REMARK   11  A    between atoms: N_32  and  O_35
REMARK                            x       y       z     vdW  Elec       q    Type
REMARK                         _______ _______ _______ _____ _____    ______ ____
ROOT
ATOM      1  N   UNL     1      32.790 -10.288 -22.887  0.00  0.00    -0.210 N 
ATOM      2  N   UNL     1      33.045 -11.498 -24.881  0.00  0.00    -0.202 NA
ATOM      3  N   UNL     1      33.216 -12.591 -22.740  0.00  0.00    -0.180 NA
ATOM      4  C   UNL     1      33.483 -13.862 -24.768  0.00  0.00    +0.076 C 
ATOM      5  C   UNL     1      33.029 -11.521 -23.535  0.00  0.00    +0.098 C 
ATOM      6  C   UNL     1      33.276 -12.691 -25.468  0.00  0.00    +0.170 C 
ATOM      7  C   UNL     1      33.441 -13.751 -23.392  0.00  0.00    +0.113 C 
ENDROOT
BRANCH   1   9
ATOM      8 CL   UNL     1      30.574  -8.289 -23.590  0.00  0.00    -0.081 Cl
ATOM      9  C   UNL     1      33.201  -9.022 -23.493  0.00  0.00    +0.076 C 
ATOM     10  C   UNL     1      32.265  -8.051 -23.847  0.00  0.00    +0.072 C 
ATOM     11  C   UNL     1      34.560  -8.796 -23.716  0.00  0.00    +0.017 C 
ATOM     12  C   UNL     1      32.687  -6.853 -24.424  0.00  0.00    +0.013 C 
ATOM     13  C   UNL     1      34.982  -7.598 -24.292  0.00  0.00    +0.001 C 
ATOM     14  C   UNL     1      34.046  -6.627 -24.646  0.00  0.00    +0.001 C 
ENDBRANCH   1   9
BRANCH   1  15
ATOM     15  C   UNL     1      32.124 -10.235 -21.585  0.00  0.00    +0.065 C 
ATOM     16  C   UNL     1      31.151 -11.181 -21.260  0.00  0.00    +0.016 C 
ATOM     17  C   UNL     1      32.461  -9.239 -20.668  0.00  0.00    +0.016 C 
ATOM     18  C   UNL     1      30.515 -11.130 -20.019  0.00  0.00    +0.001 C 
ATOM     19  C   UNL     1      31.827  -9.189 -19.428  0.00  0.00    +0.001 C 
ATOM     20  C   UNL     1      30.854 -10.134 -19.104  0.00  0.00    +0.000 C 
ENDBRANCH   1  15
BRANCH   4  23
ATOM     21  O   UNL     1      33.616 -15.228 -26.669  0.00  0.00    -0.270 OA
ATOM     22  N   UNL     1      34.117 -16.214 -24.630  0.00  0.00    -0.301 N 
ATOM     23  C   UNL     1      33.735 -15.158 -25.449  0.00  0.00    +0.245 C 
ATOM     24  H   UNL     1      34.183 -16.060 -23.660  0.00  0.00    +0.150 HD
BRANCH  22  25
ATOM     25  C   UNL     1      34.417 -17.523 -25.142  0.00  0.00    +0.090 C 
BRANCH  25  26
ATOM     26  C   UNL     1      34.850 -18.473 -24.031  0.00  0.00    +0.021 C 
BRANCH  26  27
ATOM     27  C   UNL     1      35.326 -17.706 -22.797  0.00  0.00    +0.002 C 
BRANCH  27  28
ATOM     28  C   UNL     1      34.581 -18.157 -21.540  0.00  0.00    +0.001 C 
BRANCH  28  29
ATOM     29  C   UNL     1      34.417 -19.680 -21.509  0.00  0.00    +0.010 C 
BRANCH  29  30
ATOM     30  C   UNL     1      33.223 -20.120 -20.665  0.00  0.00    +0.087 C 
BRANCH  30  33
ATOM     31  O   UNL     1      32.683 -21.872 -19.083  0.00  0.00    -0.273 OA
ATOM     32  N   UNL     1      34.898 -21.417 -19.549  0.00  0.00    -0.197 N 
ATOM     33  C   UNL     1      33.543 -21.238 -19.686  0.00  0.00    +0.244 C 
ATOM     34  H   UNL     1      35.552 -20.883 -20.055  0.00  0.00    +0.182 HD
BRANCH  32  35
ATOM     35  O   UNL     1      35.292 -22.409 -18.640  0.00  0.00    -0.295 OA
ATOM     36  H   UNL     1      36.250 -22.358 -18.501  0.00  0.00    +0.241 HD
ENDBRANCH  32  35
ENDBRANCH  30  33
ENDBRANCH  29  30
ENDBRANCH  28  29
ENDBRANCH  27  28
ENDBRANCH  26  27
ENDBRANCH  25  26
ENDBRANCH  22  25
ENDBRANCH   4  23
TORSDOF 11
ENDMDL
MODEL 4
REMARK VINA RESULT:     -10.1      7.903     13.320
REMARK  Name = 53340426
REMARK  11 active torsions:
REMARK  status: ('A' for Active; 'I' for Inactive)
REMARK    1  A    between atoms: N_1  and  C_9
REMARK    2  A    between atoms: N_1  and  C_15
REMARK    3  A    between atoms: C_4  and  C_23
REMARK    4  A    between atoms: N_22  and  C_25
REMARK    5  A    between atoms: C_25  and  C_26
REMARK    6  A    between atoms: C_26  and  C_27
REMARK    7  A    between atoms: C_27  and  C_28
REMARK    8  A    between atoms: C_28  and  C_29
REMARK    9  A    between atoms: C_29  and  C_30
REMARK   10  A    between atoms: C_30  and  C_33
REMARK   11  A    between atoms: N_32  and  O_35
REMARK                            x       y       z     vdW  Elec       q    Type
REMARK                         _______ _______ _______ _____ _____    ______ ____
ROOT
ATOM      1  N   UNL     1      32.795 -10.237 -22.964  0.00  0.00    -0.210 N 
ATOM      2  N   UNL     1      33.064 -11.362 -25.005  0.00  0.00    -0.202 NA
ATOM      3  N   UNL     1      33.236 -12.541 -22.911  0.00  0.00    -0.180 NA
ATOM      4  C   UNL     1      33.518 -13.726 -24.988  0.00  0.00    +0.076 C 
ATOM      5  C   UNL     1      33.044 -11.440 -23.661  0.00  0.00    +0.098 C 
ATOM      6  C   UNL     1      33.305 -12.528 -25.640  0.00  0.00    +0.170 C 
ATOM      7  C   UNL     1      33.471 -13.672 -23.609  0.00  0.00    +0.113 C 
ENDROOT
BRANCH   1   9
ATOM      8 CL   UNL     1      30.564  -8.246 -23.641  0.00  0.00    -0.081 Cl
ATOM      9  C   UNL     1      33.199  -8.945 -23.516  0.00  0.00    +0.076 C 
ATOM     10  C   UNL     1      32.256  -7.975 -23.855  0.00  0.00    +0.072 C 
ATOM     11  C   UNL     1      34.558  -8.691 -23.703  0.00  0.00    +0.017 C 
ATOM     12  C   UNL     1      32.672  -6.751 -24.380  0.00  0.00    +0.013 C 
ATOM     13  C   UNL     1      34.974  -7.468 -24.228  0.00  0.00    +0.001 C 
ATOM     14  C   UNL     1      34.031  -6.498 -24.567  0.00  0.00    +0.001 C 
ENDBRANCH   1   9
BRANCH   1  15
ATOM     15  C   UNL     1      32.125 -10.242 -21.663  0.00  0.00    +0.065 C 
ATOM     16  C   UNL     1      31.151 -11.201 -21.384  0.00  0.00    +0.016 C 
ATOM     17  C   UNL     1      32.460  -9.288 -20.702  0.00  0.00    +0.016 C 
ATOM     18  C   UNL     1      30.511 -11.206 -20.144  0.00  0.00    +0.001 C 
ATOM     19  C   UNL     1      31.821  -9.293 -19.462  0.00  0.00    +0.001 C 
ATOM     20  C   UNL     1      30.847 -10.251 -19.184  0.00  0.00    +0.000 C 
ENDBRANCH   1  15
BRANCH   4  23
ATOM     21  O   UNL     1      33.551 -15.045 -26.926  0.00  0.00    -0.270 OA
ATOM     22  N   UNL     1      34.299 -16.038 -24.967  0.00  0.00    -0.301 N 
ATOM     23  C   UNL     1      33.779 -14.991 -25.721  0.00  0.00    +0.245 C 
ATOM     24  H   UNL     1      34.447 -15.898 -24.004  0.00  0.00    +0.150 HD
BRANCH  22  25
ATOM     25  C   UNL     1      34.626 -17.316 -25.536  0.00  0.00    +0.090 C 
BRANCH  25  26
ATOM     26  C   UNL     1      34.233 -18.460 -24.608  0.00  0.00    +0.021 C 
BRANCH  26  27
ATOM     27  C   UNL     1      35.299 -18.700 -23.539  0.00  0.00    +0.002 C 
BRANCH  27  28
ATOM     28  C   UNL     1      34.722 -19.448 -22.337  0.00  0.00    +0.001 C 
BRANCH  28  29
ATOM     29  C   UNL     1      34.357 -18.482 -21.205  0.00  0.00    +0.010 C 
BRANCH  29  30
ATOM     30  C   UNL     1      35.207 -17.213 -21.226  0.00  0.00    +0.087 C 
BRANCH  30  33
ATOM     31  O   UNL     1      34.988 -15.028 -20.204  0.00  0.00    -0.273 OA
ATOM     32  N   UNL     1      33.124 -16.038 -21.120  0.00  0.00    -0.197 N 
ATOM     33  C   UNL     1      34.457 -15.965 -20.794  0.00  0.00    +0.244 C 
ATOM     34  H   UNL     1      32.742 -16.811 -21.595  0.00  0.00    +0.182 HD
BRANCH  32  35
ATOM     35  O   UNL     1      32.341 -14.942 -20.732  0.00  0.00    -0.295 OA
ATOM     36  H   UNL     1      32.912 -14.257 -20.347  0.00  0.00    +0.241 HD
ENDBRANCH  32  35
ENDBRANCH  30  33
ENDBRANCH  29  30
ENDBRANCH  28  29
ENDBRANCH  27  28
ENDBRANCH  26  27
ENDBRANCH  25  26
ENDBRANCH  22  25
ENDBRANCH   4  23
TORSDOF 11
ENDMDL
MODEL 5
REMARK VINA RESULT:     -10.0      1.510      2.058
REMARK  Name = 53340426
REMARK  11 active torsions:
REMARK  status: ('A' for Active; 'I' for Inactive)
REMARK    1  A    between atoms: N_1  and  C_9
REMARK    2  A    between atoms: N_1  and  C_15
REMARK    3  A    between atoms: C_4  and  C_23
REMARK    4  A    between atoms: N_22  and  C_25
REMARK    5  A    between atoms: C_25  and  C_26
REMARK    6  A    between atoms: C_26  and  C_27
REMARK    7  A    between atoms: C_27  and  C_28
REMARK    8  A    between atoms: C_28  and  C_29
REMARK    9  A    between atoms: C_29  and  C_30
REMARK   10  A    between atoms: C_30  and  C_33
REMARK   11  A    between atoms: N_32  and  O_35
REMARK                            x       y       z     vdW  Elec       q    Type
REMARK                         _______ _______ _______ _____ _____    ______ ____
ROOT
ATOM      1  N   UNL     1      34.597 -24.078 -15.179  0.00  0.00    -0.210 N 
ATOM      2  N   UNL     1      36.241 -22.876 -16.343  0.00  0.00    -0.202 NA
ATOM      3  N   UNL     1      34.012 -23.101 -17.231  0.00  0.00    -0.180 NA
ATOM      4  C   UNL     1      35.676 -21.861 -18.451  0.00  0.00    +0.076 C 
ATOM      5  C   UNL     1      34.968 -23.313 -16.307  0.00  0.00    +0.098 C 
ATOM      6  C   UNL     1      36.563 -22.150 -17.434  0.00  0.00    +0.170 C 
ATOM      7  C   UNL     1      34.401 -22.368 -18.294  0.00  0.00    +0.113 C 
ENDROOT
BRANCH   1   9
ATOM      8 CL   UNL     1      35.265 -23.303 -12.288  0.00  0.00    -0.081 Cl
ATOM      9  C   UNL     1      35.572 -24.909 -14.474  0.00  0.00    +0.076 C 
ATOM     10  C   UNL     1      35.940 -24.636 -13.156  0.00  0.00    +0.072 C 
ATOM     11  C   UNL     1      36.137 -25.994 -15.145  0.00  0.00    +0.017 C 
ATOM     12  C   UNL     1      36.872 -25.447 -12.510  0.00  0.00    +0.013 C 
ATOM     13  C   UNL     1      37.070 -26.805 -14.498  0.00  0.00    +0.001 C 
ATOM     14  C   UNL     1      37.438 -26.531 -13.181  0.00  0.00    +0.001 C 
ENDBRANCH   1   9
BRANCH   1  15
ATOM     15  C   UNL     1      33.223 -24.065 -14.676  0.00  0.00    +0.065 C 
ATOM     16  C   UNL     1      32.438 -22.921 -14.820  0.00  0.00    +0.016 C 
ATOM     17  C   UNL     1      32.697 -25.198 -14.053  0.00  0.00    +0.016 C 
ATOM     18  C   UNL     1      31.127 -22.909 -14.341  0.00  0.00    +0.001 C 
ATOM     19  C   UNL     1      31.388 -25.186 -13.574  0.00  0.00    +0.001 C 
ATOM     20  C   UNL     1      30.603 -24.042 -13.718  0.00  0.00    +0.000 C 
ENDBRANCH   1  15
BRANCH   4  23
ATOM     21  O   UNL     1      37.094 -21.343 -20.245  0.00  0.00    -0.270 OA
ATOM     22  N   UNL     1      35.199 -20.029 -19.992  0.00  0.00    -0.301 N 
ATOM     23  C   UNL     1      36.066 -21.057 -19.638  0.00  0.00    +0.245 C 
ATOM     24  H   UNL     1      34.398 -19.877 -19.440  0.00  0.00    +0.150 HD
BRANCH  22  25
ATOM     25  C   UNL     1      35.426 -19.179 -21.128  0.00  0.00    +0.090 C 
BRANCH  25  26
ATOM     26  C   UNL     1      34.300 -18.168 -21.305  0.00  0.00    +0.021 C 
BRANCH  26  27
ATOM     27  C   UNL     1      34.840 -16.739 -21.366  0.00  0.00    +0.002 C 
BRANCH  27  28
ATOM     28  C   UNL     1      33.779 -15.765 -21.882  0.00  0.00    +0.001 C 
BRANCH  28  29
ATOM     29  C   UNL     1      34.295 -14.970 -23.086  0.00  0.00    +0.010 C 
BRANCH  29  30
ATOM     30  C   UNL     1      35.124 -15.828 -24.039  0.00  0.00    +0.087 C 
BRANCH  30  33
ATOM     31  O   UNL     1      33.623 -16.118 -25.917  0.00  0.00    -0.273 OA
ATOM     32  N   UNL     1      34.361 -17.979 -24.765  0.00  0.00    -0.197 N 
ATOM     33  C   UNL     1      34.291 -16.631 -25.023  0.00  0.00    +0.244 C 
ATOM     34  H   UNL     1      34.912 -18.345 -24.035  0.00  0.00    +0.182 HD
BRANCH  32  35
ATOM     35  O   UNL     1      33.597 -18.800 -25.605  0.00  0.00    -0.295 OA
ATOM     36  H   UNL     1      32.768 -18.350 -25.830  0.00  0.00    +0.241 HD
ENDBRANCH  32  35
ENDBRANCH  30  33
ENDBRANCH  29  30
ENDBRANCH  28  29
ENDBRANCH  27  28
ENDBRANCH  26  27
ENDBRANCH  25  26
ENDBRANCH  22  25
ENDBRANCH   4  23
TORSDOF 11
ENDMDL
MODEL 6
REMARK VINA RESULT:      -9.5      6.434     13.583
REMARK  Name = 53340426
REMARK  11 active torsions:
REMARK  status: ('A' for Active; 'I' for Inactive)
REMARK    1  A    between atoms: N_1  and  C_9
REMARK    2  A    between atoms: N_1  and  C_15
REMARK    3  A    between atoms: C_4  and  C_23
REMARK    4  A    between atoms: N_22  and  C_25
REMARK    5  A    between atoms: C_25  and  C_26
REMARK    6  A    between atoms: C_26  and  C_27
REMARK    7  A    between atoms: C_27  and  C_28
REMARK    8  A    between atoms: C_28  and  C_29
REMARK    9  A    between atoms: C_29  and  C_30
REMARK   10  A    between atoms: C_30  and  C_33
REMARK   11  A    between atoms: N_32  and  O_35
REMARK                            x       y       z     vdW  Elec       q    Type
REMARK                         _______ _______ _______ _____ _____    ______ ____
ROOT
ATOM      1  N   UNL     1      32.732 -10.197 -22.907  0.00  0.00    -0.210 N 
ATOM      2  N   UNL     1      33.257 -12.479 -22.755  0.00  0.00    -0.202 NA
ATOM      3  N   UNL     1      33.002 -11.408 -24.898  0.00  0.00    -0.180 NA
ATOM      4  C   UNL     1      33.541 -13.752 -24.777  0.00  0.00    +0.076 C 
ATOM      5  C   UNL     1      33.011 -11.422 -23.552  0.00  0.00    +0.098 C 
ATOM      6  C   UNL     1      33.519 -13.633 -23.403  0.00  0.00    +0.170 C 
ATOM      7  C   UNL     1      33.273 -12.594 -25.481  0.00  0.00    +0.113 C 
ENDROOT
BRANCH   1   9
ATOM      8 CL   UNL     1      33.504  -7.899 -21.028  0.00  0.00    -0.081 Cl
ATOM      9  C   UNL     1      32.087 -10.162 -21.595  0.00  0.00    +0.076 C 
ATOM     10  C   UNL     1      32.374  -9.156 -20.672  0.00  0.00    +0.072 C 
ATOM     11  C   UNL     1      31.169 -11.162 -21.273  0.00  0.00    +0.017 C 
ATOM     12  C   UNL     1      31.742  -9.150 -19.428  0.00  0.00    +0.013 C 
ATOM     13  C   UNL     1      30.537 -11.156 -20.030  0.00  0.00    +0.001 C 
ATOM     14  C   UNL     1      30.824 -10.150 -19.107  0.00  0.00    +0.001 C 
ENDBRANCH   1   9
BRANCH   1  15
ATOM     15  C   UNL     1      33.079  -8.919 -23.529  0.00  0.00    +0.065 C 
ATOM     16  C   UNL     1      32.075  -8.006 -23.854  0.00  0.00    +0.016 C 
ATOM     17  C   UNL     1      34.413  -8.611 -23.796  0.00  0.00    +0.016 C 
ATOM     18  C   UNL     1      32.405  -6.787 -24.447  0.00  0.00    +0.001 C 
ATOM     19  C   UNL     1      34.744  -7.393 -24.388  0.00  0.00    +0.001 C 
ATOM     20  C   UNL     1      33.739  -6.481 -24.713  0.00  0.00    +0.000 C 
ENDBRANCH   1  15
BRANCH   4  23
ATOM     21  O   UNL     1      33.710 -15.117 -26.676  0.00  0.00    -0.270 OA
ATOM     22  N   UNL     1      34.260 -16.080 -24.638  0.00  0.00    -0.301 N 
ATOM     23  C   UNL     1      33.834 -15.040 -25.457  0.00  0.00    +0.245 C 
ATOM     24  H   UNL     1      34.327 -15.920 -23.669  0.00  0.00    +0.150 HD
BRANCH  22  25
ATOM     25  C   UNL     1      34.604 -17.378 -25.149  0.00  0.00    +0.090 C 
BRANCH  25  26
ATOM     26  C   UNL     1      34.905 -18.361 -24.023  0.00  0.00    +0.021 C 
BRANCH  26  27
ATOM     27  C   UNL     1      35.395 -17.637 -22.769  0.00  0.00    +0.002 C 
BRANCH  27  28
ATOM     28  C   UNL     1      34.633 -18.100 -21.527  0.00  0.00    +0.001 C 
BRANCH  28  29
ATOM     29  C   UNL     1      34.399 -19.614 -21.551  0.00  0.00    +0.010 C 
BRANCH  29  30
ATOM     30  C   UNL     1      33.220 -20.035 -20.677  0.00  0.00    +0.087 C 
BRANCH  30  33
ATOM     31  O   UNL     1      32.673 -21.856 -19.176  0.00  0.00    -0.273 OA
ATOM     32  N   UNL     1      34.891 -21.343 -19.567  0.00  0.00    -0.197 N 
ATOM     33  C   UNL     1      33.536 -21.183 -19.733  0.00  0.00    +0.244 C 
ATOM     34  H   UNL     1      35.547 -20.778 -20.035  0.00  0.00    +0.182 HD
BRANCH  32  35
ATOM     35  O   UNL     1      35.280 -22.361 -18.686  0.00  0.00    -0.295 OA
ATOM     36  H   UNL     1      35.988 -22.887 -19.091  0.00  0.00    +0.241 HD
ENDBRANCH  32  35
ENDBRANCH  30  33
ENDBRANCH  29  30
ENDBRANCH  28  29
ENDBRANCH  27  28
ENDBRANCH  26  27
ENDBRANCH  25  26
ENDBRANCH  22  25
ENDBRANCH   4  23
TORSDOF 11
ENDMDL
MODEL 7
REMARK VINA RESULT:      -9.4      4.651     12.280
REMARK  Name = 53340426
REMARK  11 active torsions:
REMARK  status: ('A' for Active; 'I' for Inactive)
REMARK    1  A    between atoms: N_1  and  C_9
REMARK    2  A    between atoms: N_1  and  C_15
REMARK    3  A    between atoms: C_4  and  C_23
REMARK    4  A    between atoms: N_22  and  C_25
REMARK    5  A    between atoms: C_25  and  C_26
REMARK    6  A    between atoms: C_26  and  C_27
REMARK    7  A    between atoms: C_27  and  C_28
REMARK    8  A    between atoms: C_28  and  C_29
REMARK    9  A    between atoms: C_29  and  C_30
REMARK   10  A    between atoms: C_30  and  C_33
REMARK   11  A    between atoms: N_32  and  O_35
REMARK                            x       y       z     vdW  Elec       q    Type
REMARK                         _______ _______ _______ _____ _____    ______ ____
ROOT
ATOM      1  N   UNL     1      33.223 -13.926 -23.125  0.00  0.00    -0.210 N 
ATOM      2  N   UNL     1      33.985 -16.104 -23.548  0.00  0.00    -0.202 NA
ATOM      3  N   UNL     1      34.307 -15.078 -21.392  0.00  0.00    -0.180 NA
ATOM      4  C   UNL     1      35.102 -17.315 -21.794  0.00  0.00    +0.076 C 
ATOM      5  C   UNL     1      33.870 -15.095 -22.665  0.00  0.00    +0.098 C 
ATOM      6  C   UNL     1      34.609 -17.204 -23.077  0.00  0.00    +0.170 C 
ATOM      7  C   UNL     1      34.920 -16.210 -20.986  0.00  0.00    +0.113 C 
ENDROOT
BRANCH   1   9
ATOM      8 CL   UNL     1      34.487 -11.207 -23.764  0.00  0.00    -0.081 Cl
ATOM      9  C   UNL     1      33.281 -13.532 -24.532  0.00  0.00    +0.076 C 
ATOM     10  C   UNL     1      33.838 -12.314 -24.921  0.00  0.00    +0.072 C 
ATOM     11  C   UNL     1      32.766 -14.401 -25.493  0.00  0.00    +0.017 C 
ATOM     12  C   UNL     1      33.880 -11.965 -26.271  0.00  0.00    +0.013 C 
ATOM     13  C   UNL     1      32.808 -14.053 -26.843  0.00  0.00    +0.001 C 
ATOM     14  C   UNL     1      33.364 -12.834 -27.232  0.00  0.00    +0.001 C 
ENDBRANCH   1   9
BRANCH   1  15
ATOM     15  C   UNL     1      32.470 -13.069 -22.209  0.00  0.00    +0.065 C 
ATOM     16  C   UNL     1      31.625 -12.080 -22.714  0.00  0.00    +0.016 C 
ATOM     17  C   UNL     1      32.597 -13.239 -20.830  0.00  0.00    +0.016 C 
ATOM     18  C   UNL     1      30.907 -11.262 -21.841  0.00  0.00    +0.001 C 
ATOM     19  C   UNL     1      31.880 -12.422 -19.957  0.00  0.00    +0.001 C 
ATOM     20  C   UNL     1      31.035 -11.434 -20.463  0.00  0.00    +0.000 C 
ENDBRANCH   1  15
BRANCH   4  23
ATOM     21  O   UNL     1      36.981 -18.694 -21.536  0.00  0.00    -0.270 OA
ATOM     22  N   UNL     1      34.995 -19.439 -20.597  0.00  0.00    -0.301 N 
ATOM     23  C   UNL     1      35.784 -18.543 -21.309  0.00  0.00    +0.245 C 
ATOM     24  H   UNL     1      34.042 -19.230 -20.468  0.00  0.00    +0.150 HD
BRANCH  22  25
ATOM     25  C   UNL     1      35.513 -20.660 -20.045  0.00  0.00    +0.090 C 
BRANCH  25  26
ATOM     26  C   UNL     1      34.402 -21.533 -19.473  0.00  0.00    +0.021 C 
BRANCH  26  27
ATOM     27  C   UNL     1      34.878 -22.303 -18.241  0.00  0.00    +0.002 C 
BRANCH  27  28
ATOM     28  C   UNL     1      33.733 -23.088 -17.599  0.00  0.00    +0.001 C 
BRANCH  28  29
ATOM     29  C   UNL     1      34.106 -23.560 -16.190  0.00  0.00    +0.010 C 
BRANCH  29  30
ATOM     30  C   UNL     1      35.293 -22.791 -15.613  0.00  0.00    +0.087 C 
BRANCH  30  33
ATOM     31  O   UNL     1      36.473 -24.670 -14.641  0.00  0.00    -0.273 OA
ATOM     32  N   UNL     1      37.638 -23.153 -15.935  0.00  0.00    -0.197 N 
ATOM     33  C   UNL     1      36.509 -23.659 -15.337  0.00  0.00    +0.244 C 
ATOM     34  H   UNL     1      37.618 -22.337 -16.486  0.00  0.00    +0.182 HD
BRANCH  32  35
ATOM     35  O   UNL     1      38.820 -23.871 -15.710  0.00  0.00    -0.295 OA
ATOM     36  H   UNL     1      39.490 -23.603 -16.359  0.00  0.00    +0.241 HD
ENDBRANCH  32  35
ENDBRANCH  30  33
ENDBRANCH  29  30
ENDBRANCH  28  29
ENDBRANCH  27  28
ENDBRANCH  26  27
ENDBRANCH  25  26
ENDBRANCH  22  25
ENDBRANCH   4  23
TORSDOF 11
ENDMDL
MODEL 8
REMARK VINA RESULT:      -9.3      7.895     13.394
REMARK  Name = 53340426
REMARK  11 active torsions:
REMARK  status: ('A' for Active; 'I' for Inactive)
REMARK    1  A    between atoms: N_1  and  C_9
REMARK    2  A    between atoms: N_1  and  C_15
REMARK    3  A    between atoms: C_4  and  C_23
REMARK    4  A    between atoms: N_22  and  C_25
REMARK    5  A    between atoms: C_25  and  C_26
REMARK    6  A    between atoms: C_26  and  C_27
REMARK    7  A    between atoms: C_27  and  C_28
REMARK    8  A    between atoms: C_28  and  C_29
REMARK    9  A    between atoms: C_29  and  C_30
REMARK   10  A    between atoms: C_30  and  C_33
REMARK   11  A    between atoms: N_32  and  O_35
REMARK                            x       y       z     vdW  Elec       q    Type
REMARK                         _______ _______ _______ _____ _____    ______ ____
ROOT
ATOM      1  N   UNL     1      32.700 -10.124 -22.982  0.00  0.00    -0.210 N 
ATOM      2  N   UNL     1      33.267 -12.399 -22.907  0.00  0.00    -0.202 NA
ATOM      3  N   UNL     1      32.964 -11.269 -25.013  0.00  0.00    -0.180 NA
ATOM      4  C   UNL     1      33.546 -13.605 -24.972  0.00  0.00    +0.076 C 
ATOM      5  C   UNL     1      32.992 -11.324 -23.668  0.00  0.00    +0.098 C 
ATOM      6  C   UNL     1      33.541 -13.528 -23.594  0.00  0.00    +0.170 C 
ATOM      7  C   UNL     1      33.247 -12.432 -25.636  0.00  0.00    +0.113 C 
ENDROOT
BRANCH   1   9
ATOM      8 CL   UNL     1      33.505  -7.907 -21.022  0.00  0.00    -0.081 Cl
ATOM      9  C   UNL     1      32.072 -10.141 -21.661  0.00  0.00    +0.076 C 
ATOM     10  C   UNL     1      32.375  -9.174 -20.702  0.00  0.00    +0.072 C 
ATOM     11  C   UNL     1      31.156 -11.151 -21.368  0.00  0.00    +0.017 C 
ATOM     12  C   UNL     1      31.761  -9.217 -19.451  0.00  0.00    +0.013 C 
ATOM     13  C   UNL     1      30.541 -11.193 -20.117  0.00  0.00    +0.001 C 
ATOM     14  C   UNL     1      30.844 -10.227 -19.158  0.00  0.00    +0.001 C 
ENDBRANCH   1   9
BRANCH   1  15
ATOM     15  C   UNL     1      33.015  -8.821 -23.569  0.00  0.00    +0.065 C 
ATOM     16  C   UNL     1      34.341  -8.472 -23.823  0.00  0.00    +0.016 C 
ATOM     17  C   UNL     1      31.988  -7.928 -23.876  0.00  0.00    +0.016 C 
ATOM     18  C   UNL     1      34.642  -7.230 -24.382  0.00  0.00    +0.001 C 
ATOM     19  C   UNL     1      32.288  -6.686 -24.436  0.00  0.00    +0.001 C 
ATOM     20  C   UNL     1      33.615  -6.338 -24.688  0.00  0.00    +0.000 C 
ENDBRANCH   1  15
BRANCH   4  23
ATOM     21  O   UNL     1      33.748 -14.898 -26.917  0.00  0.00    -0.270 OA
ATOM     22  N   UNL     1      34.267 -15.935 -24.908  0.00  0.00    -0.301 N 
ATOM     23  C   UNL     1      33.852 -14.866 -25.694  0.00  0.00    +0.245 C 
ATOM     24  H   UNL     1      34.319 -15.812 -23.933  0.00  0.00    +0.150 HD
BRANCH  22  25
ATOM     25  C   UNL     1      34.622 -17.213 -25.462  0.00  0.00    +0.090 C 
BRANCH  25  26
ATOM     26  C   UNL     1      34.225 -18.355 -24.534  0.00  0.00    +0.021 C 
BRANCH  26  27
ATOM     27  C   UNL     1      35.357 -18.705 -23.567  0.00  0.00    +0.002 C 
BRANCH  27  28
ATOM     28  C   UNL     1      34.823 -19.406 -22.317  0.00  0.00    +0.001 C 
BRANCH  28  29
ATOM     29  C   UNL     1      34.218 -18.400 -21.332  0.00  0.00    +0.010 C 
BRANCH  29  30
ATOM     30  C   UNL     1      35.149 -17.221 -21.059  0.00  0.00    +0.087 C 
BRANCH  30  33
ATOM     31  O   UNL     1      34.972 -14.915 -20.337  0.00  0.00    -0.273 OA
ATOM     32  N   UNL     1      33.084 -16.009 -21.094  0.00  0.00    -0.197 N 
ATOM     33  C   UNL     1      34.421 -15.914 -20.792  0.00  0.00    +0.244 C 
ATOM     34  H   UNL     1      32.686 -16.833 -21.458  0.00  0.00    +0.182 HD
BRANCH  32  35
ATOM     35  O   UNL     1      32.322 -14.858 -20.850  0.00  0.00    -0.295 OA
ATOM     36  H   UNL     1      31.826 -14.623 -21.650  0.00  0.00    +0.241 HD
ENDBRANCH  32  35
ENDBRANCH  30  33
ENDBRANCH  29  30
ENDBRANCH  28  29
ENDBRANCH  27  28
ENDBRANCH  26  27
ENDBRANCH  25  26
ENDBRANCH  22  25
ENDBRANCH   4  23
TORSDOF 11
ENDMDL
MODEL 9
REMARK VINA RESULT:      -9.3      4.940     12.420
REMARK  Name = 53340426
REMARK  11 active torsions:
REMARK  status: ('A' for Active; 'I' for Inactive)
REMARK    1  A    between atoms: N_1  and  C_9
REMARK    2  A    between atoms: N_1  and  C_15
REMARK    3  A    between atoms: C_4  and  C_23
REMARK    4  A    between atoms: N_22  and  C_25
REMARK    5  A    between atoms: C_25  and  C_26
REMARK    6  A    between atoms: C_26  and  C_27
REMARK    7  A    between atoms: C_27  and  C_28
REMARK    8  A    between atoms: C_28  and  C_29
REMARK    9  A    between atoms: C_29  and  C_30
REMARK   10  A    between atoms: C_30  and  C_33
REMARK   11  A    between atoms: N_32  and  O_35
REMARK                            x       y       z     vdW  Elec       q    Type
REMARK                         _______ _______ _______ _____ _____    ______ ____
ROOT
ATOM      1  N   UNL     1      33.203 -13.937 -23.119  0.00  0.00    -0.210 N 
ATOM      2  N   UNL     1      33.924 -16.136 -23.509  0.00  0.00    -0.202 NA
ATOM      3  N   UNL     1      34.267 -15.082 -21.369  0.00  0.00    -0.180 NA
ATOM      4  C   UNL     1      35.019 -17.340 -21.736  0.00  0.00    +0.076 C 
ATOM      5  C   UNL     1      33.829 -15.110 -22.642  0.00  0.00    +0.098 C 
ATOM      6  C   UNL     1      34.527 -17.240 -23.021  0.00  0.00    +0.170 C 
ATOM      7  C   UNL     1      34.859 -16.218 -20.946  0.00  0.00    +0.113 C 
ENDROOT
BRANCH   1   9
ATOM      8 CL   UNL     1      34.499 -11.243 -23.801  0.00  0.00    -0.081 Cl
ATOM      9  C   UNL     1      33.268 -13.567 -24.533  0.00  0.00    +0.076 C 
ATOM     10  C   UNL     1      33.838 -12.361 -24.941  0.00  0.00    +0.072 C 
ATOM     11  C   UNL     1      32.744 -14.446 -25.481  0.00  0.00    +0.017 C 
ATOM     12  C   UNL     1      33.886 -12.035 -26.296  0.00  0.00    +0.013 C 
ATOM     13  C   UNL     1      32.791 -14.120 -26.836  0.00  0.00    +0.001 C 
ATOM     14  C   UNL     1      33.362 -12.914 -27.244  0.00  0.00    +0.001 C 
ENDBRANCH   1   9
BRANCH   1  15
ATOM     15  C   UNL     1      32.468 -13.051 -22.217  0.00  0.00    +0.065 C 
ATOM     16  C   UNL     1      32.556 -13.232 -20.836  0.00  0.00    +0.016 C 
ATOM     17  C   UNL     1      31.680 -12.023 -22.736  0.00  0.00    +0.016 C 
ATOM     18  C   UNL     1      31.856 -12.387 -19.975  0.00  0.00    +0.001 C 
ATOM     19  C   UNL     1      30.980 -11.178 -21.875  0.00  0.00    +0.001 C 
ATOM     20  C   UNL     1      31.068 -11.361 -20.495  0.00  0.00    +0.000 C 
ENDBRANCH   1  15
BRANCH   4  23
ATOM     21  O   UNL     1      36.892 -18.698 -21.358  0.00  0.00    -0.270 OA
ATOM     22  N   UNL     1      34.845 -19.504 -20.623  0.00  0.00    -0.301 N 
ATOM     23  C   UNL     1      35.677 -18.573 -21.233  0.00  0.00    +0.245 C 
ATOM     24  H   UNL     1      33.881 -19.314 -20.572  0.00  0.00    +0.150 HD
BRANCH  22  25
ATOM     25  C   UNL     1      35.335 -20.735 -20.066  0.00  0.00    +0.090 C 
BRANCH  25  26
ATOM     26  C   UNL     1      34.195 -21.685 -19.717  0.00  0.00    +0.021 C 
BRANCH  26  27
ATOM     27  C   UNL     1      34.368 -22.270 -18.315  0.00  0.00    +0.002 C 
BRANCH  27  28
ATOM     28  C   UNL     1      33.036 -22.773 -17.755  0.00  0.00    +0.001 C 
BRANCH  28  29
ATOM     29  C   UNL     1      33.237 -23.516 -16.431  0.00  0.00    +0.010 C 
BRANCH  29  30
ATOM     30  C   UNL     1      32.042 -23.363 -15.490  0.00  0.00    +0.087 C 
BRANCH  30  33
ATOM     31  O   UNL     1      31.590 -23.306 -13.112  0.00  0.00    -0.273 OA
ATOM     32  N   UNL     1      33.769 -23.539 -13.840  0.00  0.00    -0.197 N 
ATOM     33  C   UNL     1      32.413 -23.406 -14.018  0.00  0.00    +0.244 C 
ATOM     34  H   UNL     1      34.392 -23.616 -14.599  0.00  0.00    +0.182 HD
BRANCH  32  35
ATOM     35  O   UNL     1      34.210 -23.557 -12.510  0.00  0.00    -0.295 OA
ATOM     36  H   UNL     1      35.056 -24.028 -12.456  0.00  0.00    +0.241 HD
ENDBRANCH  32  35
ENDBRANCH  30  33
ENDBRANCH  29  30
ENDBRANCH  28  29
ENDBRANCH  27  28
ENDBRANCH  26  27
ENDBRANCH  25  26
ENDBRANCH  22  25
ENDBRANCH   4  23
TORSDOF 11
ENDMDL
