MODEL 1
REMARK VINA RESULT:      -7.2      0.000      0.000
REMARK  Name = 5280335
REMARK  18 active torsions:
REMARK  status: ('A' for Active; 'I' for Inactive)
REMARK    1  A    between atoms: C_1  and  C_2
REMARK    2  A    between atoms: C_1  and  C_15
REMARK    3  A    between atoms: C_3  and  C_4
REMARK    4  A    between atoms: C_4  and  O_5
REMARK    5  A    between atoms: C_4  and  CA_7
REMARK    6  A    between atoms: CA_7  and  N_8
REMARK    7  A    between atoms: CA_7  and  C_12
REMARK    8  A    between atoms: C_12  and  O_13
REMARK    9  A    between atoms: C_15  and  C_16
REMARK   10  A    between atoms: C_16  and  C_17
REMARK   11  A    between atoms: C_17  and  C_18
REMARK   12  A    between atoms: C_18  and  C_19
REMARK   13  A    between atoms: C_19  and  C_20
REMARK   14  A    between atoms: C_20  and  C_21
REMARK   15  A    between atoms: C_21  and  C_22
REMARK   16  A    between atoms: C_22  and  C_23
REMARK   17  A    between atoms: C_23  and  C_24
REMARK   18  A    between atoms: C_24  and  C_25
REMARK                            x       y       z     vdW  Elec       q    Type
REMARK                         _______ _______ _______ _____ _____    ______ ____
ROOT
ATOM      1  C   UNL     1      36.373 -22.188 -15.941  0.00  0.00    +0.026 C 
ENDROOT
BRANCH   1   2
ATOM      2  C   UNL     1      37.130 -23.381 -15.433  0.00  0.00    -0.028 C 
ATOM      3  C   UNL     1      36.647 -24.607 -15.181  0.00  0.00    -0.004 C 
BRANCH   3   4
ATOM      4  C   UNL     1      37.405 -25.801 -14.672  0.00  0.00    +0.115 C 
BRANCH   4   5
ATOM      5  O   UNL     1      37.772 -26.559 -15.832  0.00  0.00    -0.382 OA
ATOM      6  H   UNL     1      38.634 -26.978 -15.685  0.00  0.00    +0.211 HD
ENDBRANCH   4   5
BRANCH   4   7
ATOM      7  CA  UNL     1      38.686 -25.434 -13.885  0.00  0.00    -0.004 C 
BRANCH   7   8
ATOM      8  N   UNL     1      38.597 -26.028 -12.544  0.00  0.00    +0.385 N 
ATOM      9  H1  UNL     1      38.986 -26.970 -12.563  0.00  0.00    -0.089 HD
ATOM     10  H2  UNL     1      37.619 -26.070 -12.255  0.00  0.00    -0.089 HD
ATOM     11  H3  UNL     1      39.122 -25.456 -11.883  0.00  0.00    -0.089 HD
ENDBRANCH   7   8
BRANCH   7  12
ATOM     12  C   UNL     1      39.981 -25.918 -14.552  0.00  0.00    +0.118 C 
BRANCH  12  13
ATOM     13  O   UNL     1      40.915 -24.852 -14.652  0.00  0.00    -0.384 OA
ATOM     14  H   UNL     1      40.628 -24.234 -15.341  0.00  0.00    +0.210 HD
ENDBRANCH  12  13
ENDBRANCH   7  12
ENDBRANCH   4   7
ENDBRANCH   3   4
ENDBRANCH   1   2
BRANCH   1  15
ATOM     15  C   UNL     1      37.136 -21.491 -17.068  0.00  0.00    +0.005 C 
BRANCH  15  16
ATOM     16  C   UNL     1      36.490 -21.675 -18.445  0.00  0.00    +0.000 C 
BRANCH  16  17
ATOM     17  C   UNL     1      35.010 -22.067 -18.442  0.00  0.00    +0.000 C 
BRANCH  17  18
ATOM     18  C   UNL     1      34.331 -21.892 -19.802  0.00  0.00    +0.000 C 
BRANCH  18  19
ATOM     19  C   UNL     1      33.072 -21.028 -19.685  0.00  0.00    +0.000 C 
BRANCH  19  20
ATOM     20  C   UNL     1      33.107 -19.865 -20.680  0.00  0.00    +0.000 C 
BRANCH  20  21
ATOM     21  C   UNL     1      34.512 -19.303 -20.912  0.00  0.00    +0.000 C 
BRANCH  21  22
ATOM     22  C   UNL     1      34.732 -18.776 -22.332  0.00  0.00    +0.000 C 
BRANCH  22  23
ATOM     23  C   UNL     1      34.684 -17.248 -22.369  0.00  0.00    +0.000 C 
BRANCH  23  24
ATOM     24  C   UNL     1      34.920 -16.649 -20.980  0.00  0.00    +0.000 C 
BRANCH  24  25
ATOM     25  C   UNL     1      34.293 -15.260 -20.860  0.00  0.00    +0.000 C 
ATOM     26  C   UNL     1      32.781 -15.342 -20.720  0.00  0.00    +0.000 C 
ENDBRANCH  24  25
ENDBRANCH  23  24
ENDBRANCH  22  23
ENDBRANCH  21  22
ENDBRANCH  20  21
ENDBRANCH  19  20
ENDBRANCH  18  19
ENDBRANCH  17  18
ENDBRANCH  16  17
ENDBRANCH  15  16
ENDBRANCH   1  15
TORSDOF 18
ENDMDL
MODEL 2
REMARK VINA RESULT:      -7.2      1.515      2.220
REMARK  Name = 5280335
REMARK  18 active torsions:
REMARK  status: ('A' for Active; 'I' for Inactive)
REMARK    1  A    between atoms: C_1  and  C_2
REMARK    2  A    between atoms: C_1  and  C_15
REMARK    3  A    between atoms: C_3  and  C_4
REMARK    4  A    between atoms: C_4  and  O_5
REMARK    5  A    between atoms: C_4  and  CA_7
REMARK    6  A    between atoms: CA_7  and  N_8
REMARK    7  A    between atoms: CA_7  and  C_12
REMARK    8  A    between atoms: C_12  and  O_13
REMARK    9  A    between atoms: C_15  and  C_16
REMARK   10  A    between atoms: C_16  and  C_17
REMARK   11  A    between atoms: C_17  and  C_18
REMARK   12  A    between atoms: C_18  and  C_19
REMARK   13  A    between atoms: C_19  and  C_20
REMARK   14  A    between atoms: C_20  and  C_21
REMARK   15  A    between atoms: C_21  and  C_22
REMARK   16  A    between atoms: C_22  and  C_23
REMARK   17  A    between atoms: C_23  and  C_24
REMARK   18  A    between atoms: C_24  and  C_25
REMARK                            x       y       z     vdW  Elec       q    Type
REMARK                         _______ _______ _______ _____ _____    ______ ____
ROOT
ATOM      1  C   UNL     1      36.956 -21.341 -16.967  0.00  0.00    +0.026 C 
ENDROOT
BRANCH   1   2
ATOM      2  C   UNL     1      37.643 -22.462 -16.241  0.00  0.00    -0.028 C 
ATOM      3  C   UNL     1      37.074 -23.412 -15.483  0.00  0.00    -0.004 C 
BRANCH   3   4
ATOM      4  C   UNL     1      37.761 -24.534 -14.756  0.00  0.00    +0.115 C 
BRANCH   4   5
ATOM      5  O   UNL     1      38.333 -23.950 -13.578  0.00  0.00    -0.382 OA
ATOM      6  H   UNL     1      37.783 -24.169 -12.810  0.00  0.00    +0.211 HD
ENDBRANCH   4   5
BRANCH   4   7
ATOM      7  CA  UNL     1      36.807 -25.679 -14.337  0.00  0.00    -0.004 C 
BRANCH   7   8
ATOM      8  N   UNL     1      35.456 -25.363 -14.821  0.00  0.00    +0.385 N 
ATOM      9  H1  UNL     1      35.321 -25.772 -15.745  0.00  0.00    -0.089 HD
ATOM     10  H2  UNL     1      35.344 -24.350 -14.878  0.00  0.00    -0.089 HD
ATOM     11  H3  UNL     1      34.766 -25.745 -14.175  0.00  0.00    -0.089 HD
ENDBRANCH   7   8
BRANCH   7  12
ATOM     12  C   UNL     1      37.216 -27.055 -14.884  0.00  0.00    +0.118 C 
BRANCH  12  13
ATOM     13  O   UNL     1      36.770 -27.207 -16.224  0.00  0.00    -0.384 OA
ATOM     14  H   UNL     1      35.837 -26.949 -16.286  0.00  0.00    +0.210 HD
ENDBRANCH  12  13
ENDBRANCH   7  12
ENDBRANCH   4   7
ENDBRANCH   3   4
ENDBRANCH   1   2
BRANCH   1  15
ATOM     15  C   UNL     1      36.420 -21.807 -18.320  0.00  0.00    +0.005 C 
BRANCH  15  16
ATOM     16  C   UNL     1      34.918 -22.111 -18.308  0.00  0.00    +0.000 C 
BRANCH  16  17
ATOM     17  C   UNL     1      34.203 -21.998 -19.658  0.00  0.00    +0.000 C 
BRANCH  17  18
ATOM     18  C   UNL     1      33.240 -20.812 -19.739  0.00  0.00    +0.000 C 
BRANCH  18  19
ATOM     19  C   UNL     1      33.641 -19.848 -20.859  0.00  0.00    +0.000 C 
BRANCH  19  20
ATOM     20  C   UNL     1      35.147 -19.911 -21.130  0.00  0.00    +0.000 C 
BRANCH  20  21
ATOM     21  C   UNL     1      35.756 -18.556 -21.501  0.00  0.00    +0.000 C 
BRANCH  21  22
ATOM     22  C   UNL     1      35.831 -18.315 -23.010  0.00  0.00    +0.000 C 
BRANCH  22  23
ATOM     23  C   UNL     1      34.725 -17.368 -23.476  0.00  0.00    +0.000 C 
BRANCH  23  24
ATOM     24  C   UNL     1      34.907 -15.966 -22.890  0.00  0.00    +0.000 C 
BRANCH  24  25
ATOM     25  C   UNL     1      33.790 -15.626 -21.904  0.00  0.00    +0.000 C 
ATOM     26  C   UNL     1      34.346 -15.256 -20.538  0.00  0.00    +0.000 C 
ENDBRANCH  24  25
ENDBRANCH  23  24
ENDBRANCH  22  23
ENDBRANCH  21  22
ENDBRANCH  20  21
ENDBRANCH  19  20
ENDBRANCH  18  19
ENDBRANCH  17  18
ENDBRANCH  16  17
ENDBRANCH  15  16
ENDBRANCH   1  15
TORSDOF 18
ENDMDL
MODEL 3
REMARK VINA RESULT:      -7.1      1.933      2.781
REMARK  Name = 5280335
REMARK  18 active torsions:
REMARK  status: ('A' for Active; 'I' for Inactive)
REMARK    1  A    between atoms: C_1  and  C_2
REMARK    2  A    between atoms: C_1  and  C_15
REMARK    3  A    between atoms: C_3  and  C_4
REMARK    4  A    between atoms: C_4  and  O_5
REMARK    5  A    between atoms: C_4  and  CA_7
REMARK    6  A    between atoms: CA_7  and  N_8
REMARK    7  A    between atoms: CA_7  and  C_12
REMARK    8  A    between atoms: C_12  and  O_13
REMARK    9  A    between atoms: C_15  and  C_16
REMARK   10  A    between atoms: C_16  and  C_17
REMARK   11  A    between atoms: C_17  and  C_18
REMARK   12  A    between atoms: C_18  and  C_19
REMARK   13  A    between atoms: C_19  and  C_20
REMARK   14  A    between atoms: C_20  and  C_21
REMARK   15  A    between atoms: C_21  and  C_22
REMARK   16  A    between atoms: C_22  and  C_23
REMARK   17  A    between atoms: C_23  and  C_24
REMARK   18  A    between atoms: C_24  and  C_25
REMARK                            x       y       z     vdW  Elec       q    Type
REMARK                         _______ _______ _______ _____ _____    ______ ____
ROOT
ATOM      1  C   UNL     1      36.857 -21.510 -17.632  0.00  0.00    +0.026 C 
ENDROOT
BRANCH   1   2
ATOM      2  C   UNL     1      37.296 -22.264 -16.410  0.00  0.00    -0.028 C 
ATOM      3  C   UNL     1      36.624 -23.226 -15.760  0.00  0.00    -0.004 C 
BRANCH   3   4
ATOM      4  C   UNL     1      37.064 -23.981 -14.537  0.00  0.00    +0.115 C 
BRANCH   4   5
ATOM      5  O   UNL     1      37.458 -22.988 -13.581  0.00  0.00    -0.382 OA
ATOM      6  H   UNL     1      36.887 -23.047 -12.800  0.00  0.00    +0.211 HD
ENDBRANCH   4   5
BRANCH   4   7
ATOM      7  CA  UNL     1      35.953 -24.863 -13.918  0.00  0.00    -0.004 C 
BRANCH   7   8
ATOM      8  N   UNL     1      36.340 -26.273 -14.065  0.00  0.00    +0.385 N 
ATOM      9  H1  UNL     1      36.923 -26.551 -13.277  0.00  0.00    -0.089 HD
ATOM     10  H2  UNL     1      36.862 -26.393 -14.934  0.00  0.00    -0.089 HD
ATOM     11  H3  UNL     1      35.501 -26.854 -14.090  0.00  0.00    -0.089 HD
ENDBRANCH   7   8
BRANCH   7  12
ATOM     12  C   UNL     1      35.694 -24.577 -12.432  0.00  0.00    +0.118 C 
BRANCH  12  13
ATOM     13  O   UNL     1      34.721 -23.552 -12.287  0.00  0.00    -0.384 OA
ATOM     14  H   UNL     1      33.835 -23.929 -12.404  0.00  0.00    +0.210 HD
ENDBRANCH  12  13
ENDBRANCH   7  12
ENDBRANCH   4   7
ENDBRANCH   3   4
ENDBRANCH   1   2
BRANCH   1  15
ATOM     15  C   UNL     1      35.579 -22.110 -18.220  0.00  0.00    +0.005 C 
BRANCH  15  16
ATOM     16  C   UNL     1      35.101 -21.400 -19.491  0.00  0.00    +0.000 C 
BRANCH  16  17
ATOM     17  C   UNL     1      33.583 -21.294 -19.666  0.00  0.00    +0.000 C 
BRANCH  17  18
ATOM     18  C   UNL     1      33.162 -20.247 -20.700  0.00  0.00    +0.000 C 
BRANCH  18  19
ATOM     19  C   UNL     1      34.267 -19.212 -20.923  0.00  0.00    +0.000 C 
BRANCH  19  20
ATOM     20  C   UNL     1      34.606 -19.078 -22.410  0.00  0.00    +0.000 C 
BRANCH  20  21
ATOM     21  C   UNL     1      35.418 -17.821 -22.738  0.00  0.00    +0.000 C 
BRANCH  21  22
ATOM     22  C   UNL     1      34.593 -16.721 -23.410  0.00  0.00    +0.000 C 
BRANCH  22  23
ATOM     23  C   UNL     1      34.660 -15.415 -22.617  0.00  0.00    +0.000 C 
BRANCH  23  24
ATOM     24  C   UNL     1      34.597 -15.674 -21.110  0.00  0.00    +0.000 C 
BRANCH  24  25
ATOM     25  C   UNL     1      33.311 -15.114 -20.503  0.00  0.00    +0.000 C 
ATOM     26  C   UNL     1      32.512 -14.321 -21.525  0.00  0.00    +0.000 C 
ENDBRANCH  24  25
ENDBRANCH  23  24
ENDBRANCH  22  23
ENDBRANCH  21  22
ENDBRANCH  20  21
ENDBRANCH  19  20
ENDBRANCH  18  19
ENDBRANCH  17  18
ENDBRANCH  16  17
ENDBRANCH  15  16
ENDBRANCH   1  15
TORSDOF 18
ENDMDL
MODEL 4
REMARK VINA RESULT:      -7.1      2.080      2.613
REMARK  Name = 5280335
REMARK  18 active torsions:
REMARK  status: ('A' for Active; 'I' for Inactive)
REMARK    1  A    between atoms: C_1  and  C_2
REMARK    2  A    between atoms: C_1  and  C_15
REMARK    3  A    between atoms: C_3  and  C_4
REMARK    4  A    between atoms: C_4  and  O_5
REMARK    5  A    between atoms: C_4  and  CA_7
REMARK    6  A    between atoms: CA_7  and  N_8
REMARK    7  A    between atoms: CA_7  and  C_12
REMARK    8  A    between atoms: C_12  and  O_13
REMARK    9  A    between atoms: C_15  and  C_16
REMARK   10  A    between atoms: C_16  and  C_17
REMARK   11  A    between atoms: C_17  and  C_18
REMARK   12  A    between atoms: C_18  and  C_19
REMARK   13  A    between atoms: C_19  and  C_20
REMARK   14  A    between atoms: C_20  and  C_21
REMARK   15  A    between atoms: C_21  and  C_22
REMARK   16  A    between atoms: C_22  and  C_23
REMARK   17  A    between atoms: C_23  and  C_24
REMARK   18  A    between atoms: C_24  and  C_25
REMARK                            x       y       z     vdW  Elec       q    Type
REMARK                         _______ _______ _______ _____ _____    ______ ____
ROOT
ATOM      1  C   UNL     1      37.288 -21.903 -16.678  0.00  0.00    +0.026 C 
ENDROOT
BRANCH   1   2
ATOM      2  C   UNL     1      36.929 -22.763 -15.501  0.00  0.00    -0.028 C 
ATOM      3  C   UNL     1      35.943 -23.670 -15.425  0.00  0.00    -0.004 C 
BRANCH   3   4
ATOM      4  C   UNL     1      35.584 -24.531 -14.246  0.00  0.00    +0.115 C 
BRANCH   4   5
ATOM      5  O   UNL     1      35.626 -25.884 -14.719  0.00  0.00    -0.382 OA
ATOM      6  H   UNL     1      34.743 -26.279 -14.648  0.00  0.00    +0.211 HD
ENDBRANCH   4   5
BRANCH   4   7
ATOM      7  CA  UNL     1      36.556 -24.386 -13.051  0.00  0.00    -0.004 C 
BRANCH   7   8
ATOM      8  N   UNL     1      35.766 -24.181 -11.829  0.00  0.00    +0.385 N 
ATOM      9  H1  UNL     1      34.831 -23.863 -12.078  0.00  0.00    -0.089 HD
ATOM     10  H2  UNL     1      36.220 -23.477 -11.245  0.00  0.00    -0.089 HD
ATOM     11  H3  UNL     1      35.702 -25.059 -11.314  0.00  0.00    -0.089 HD
ENDBRANCH   7   8
BRANCH   7  12
ATOM     12  C   UNL     1      37.470 -25.603 -12.847  0.00  0.00    +0.118 C 
BRANCH  12  13
ATOM     13  O   UNL     1      36.843 -26.557 -12.002  0.00  0.00    -0.384 OA
ATOM     14  H   UNL     1      36.434 -26.103 -11.249  0.00  0.00    +0.210 HD
ENDBRANCH  12  13
ENDBRANCH   7  12
ENDBRANCH   4   7
ENDBRANCH   3   4
ENDBRANCH   1   2
BRANCH   1  15
ATOM     15  C   UNL     1      36.181 -21.921 -17.732  0.00  0.00    +0.005 C 
BRANCH  15  16
ATOM     16  C   UNL     1      36.589 -21.265 -19.055  0.00  0.00    +0.000 C 
BRANCH  16  17
ATOM     17  C   UNL     1      35.546 -21.318 -20.176  0.00  0.00    +0.000 C 
BRANCH  17  18
ATOM     18  C   UNL     1      34.105 -21.218 -19.672  0.00  0.00    +0.000 C 
BRANCH  18  19
ATOM     19  C   UNL     1      33.310 -20.180 -20.469  0.00  0.00    +0.000 C 
BRANCH  19  20
ATOM     20  C   UNL     1      34.167 -19.553 -21.571  0.00  0.00    +0.000 C 
BRANCH  20  21
ATOM     21  C   UNL     1      34.454 -18.066 -21.347  0.00  0.00    +0.000 C 
BRANCH  21  22
ATOM     22  C   UNL     1      35.223 -17.413 -22.497  0.00  0.00    +0.000 C 
BRANCH  22  23
ATOM     23  C   UNL     1      35.229 -18.308 -23.738  0.00  0.00    +0.000 C 
BRANCH  23  24
ATOM     24  C   UNL     1      34.692 -17.566 -24.963  0.00  0.00    +0.000 C 
BRANCH  24  25
ATOM     25  C   UNL     1      34.178 -16.175 -24.590  0.00  0.00    +0.000 C 
ATOM     26  C   UNL     1      33.485 -15.504 -25.765  0.00  0.00    +0.000 C 
ENDBRANCH  24  25
ENDBRANCH  23  24
ENDBRANCH  22  23
ENDBRANCH  21  22
ENDBRANCH  20  21
ENDBRANCH  19  20
ENDBRANCH  18  19
ENDBRANCH  17  18
ENDBRANCH  16  17
ENDBRANCH  15  16
ENDBRANCH   1  15
TORSDOF 18
ENDMDL
MODEL 5
REMARK VINA RESULT:      -7.1      1.604      2.209
REMARK  Name = 5280335
REMARK  18 active torsions:
REMARK  status: ('A' for Active; 'I' for Inactive)
REMARK    1  A    between atoms: C_1  and  C_2
REMARK    2  A    between atoms: C_1  and  C_15
REMARK    3  A    between atoms: C_3  and  C_4
REMARK    4  A    between atoms: C_4  and  O_5
REMARK    5  A    between atoms: C_4  and  CA_7
REMARK    6  A    between atoms: CA_7  and  N_8
REMARK    7  A    between atoms: CA_7  and  C_12
REMARK    8  A    between atoms: C_12  and  O_13
REMARK    9  A    between atoms: C_15  and  C_16
REMARK   10  A    between atoms: C_16  and  C_17
REMARK   11  A    between atoms: C_17  and  C_18
REMARK   12  A    between atoms: C_18  and  C_19
REMARK   13  A    between atoms: C_19  and  C_20
REMARK   14  A    between atoms: C_20  and  C_21
REMARK   15  A    between atoms: C_21  and  C_22
REMARK   16  A    between atoms: C_22  and  C_23
REMARK   17  A    between atoms: C_23  and  C_24
REMARK   18  A    between atoms: C_24  and  C_25
REMARK                            x       y       z     vdW  Elec       q    Type
REMARK                         _______ _______ _______ _____ _____    ______ ____
ROOT
ATOM      1  C   UNL     1      37.159 -21.624 -16.820  0.00  0.00    +0.026 C 
ENDROOT
BRANCH   1   2
ATOM      2  C   UNL     1      36.589 -22.827 -16.125  0.00  0.00    -0.028 C 
ATOM      3  C   UNL     1      37.114 -23.492 -15.085  0.00  0.00    -0.004 C 
BRANCH   3   4
ATOM      4  C   UNL     1      36.544 -24.696 -14.389  0.00  0.00    +0.115 C 
BRANCH   4   5
ATOM      5  O   UNL     1      35.979 -25.517 -15.420  0.00  0.00    -0.382 OA
ATOM      6  H   UNL     1      35.011 -25.490 -15.361  0.00  0.00    +0.211 HD
ENDBRANCH   4   5
BRANCH   4   7
ATOM      7  CA  UNL     1      37.597 -25.521 -13.610  0.00  0.00    -0.004 C 
BRANCH   7   8
ATOM      8  N   UNL     1      37.146 -26.918 -13.553  0.00  0.00    +0.385 N 
ATOM      9  H1  UNL     1      37.932 -27.520 -13.311  0.00  0.00    -0.089 HD
ATOM     10  H2  UNL     1      36.774 -27.193 -14.463  0.00  0.00    -0.089 HD
ATOM     11  H3  UNL     1      36.416 -27.011 -12.846  0.00  0.00    -0.089 HD
ENDBRANCH   7   8
BRANCH   7  12
ATOM     12  C   UNL     1      38.998 -25.481 -14.235  0.00  0.00    +0.118 C 
BRANCH  12  13
ATOM     13  O   UNL     1      39.019 -26.217 -15.450  0.00  0.00    -0.384 OA
ATOM     14  H   UNL     1      38.911 -27.162 -15.258  0.00  0.00    +0.210 HD
ENDBRANCH  12  13
ENDBRANCH   7  12
ENDBRANCH   4   7
ENDBRANCH   3   4
ENDBRANCH   1   2
BRANCH   1  15
ATOM     15  C   UNL     1      36.679 -21.547 -18.270  0.00  0.00    +0.005 C 
BRANCH  15  16
ATOM     16  C   UNL     1      35.220 -21.978 -18.451  0.00  0.00    +0.000 C 
BRANCH  16  17
ATOM     17  C   UNL     1      34.591 -21.653 -19.810  0.00  0.00    +0.000 C 
BRANCH  17  18
ATOM     18  C   UNL     1      35.174 -20.400 -20.466  0.00  0.00    +0.000 C 
BRANCH  18  19
ATOM     19  C   UNL     1      34.068 -19.499 -21.020  0.00  0.00    +0.000 C 
BRANCH  19  20
ATOM     20  C   UNL     1      34.595 -18.604 -22.145  0.00  0.00    +0.000 C 
BRANCH  20  21
ATOM     21  C   UNL     1      34.881 -19.365 -23.443  0.00  0.00    +0.000 C 
BRANCH  21  22
ATOM     22  C   UNL     1      34.540 -18.569 -24.704  0.00  0.00    +0.000 C 
BRANCH  22  23
ATOM     23  C   UNL     1      34.896 -17.090 -24.540  0.00  0.00    +0.000 C 
BRANCH  23  24
ATOM     24  C   UNL     1      33.884 -16.191 -25.253  0.00  0.00    +0.000 C 
BRANCH  24  25
ATOM     25  C   UNL     1      33.543 -14.961 -24.411  0.00  0.00    +0.000 C 
ATOM     26  C   UNL     1      34.465 -14.836 -23.209  0.00  0.00    +0.000 C 
ENDBRANCH  24  25
ENDBRANCH  23  24
ENDBRANCH  22  23
ENDBRANCH  21  22
ENDBRANCH  20  21
ENDBRANCH  19  20
ENDBRANCH  18  19
ENDBRANCH  17  18
ENDBRANCH  16  17
ENDBRANCH  15  16
ENDBRANCH   1  15
TORSDOF 18
ENDMDL
MODEL 6
REMARK VINA RESULT:      -7.1      8.941     13.553
REMARK  Name = 5280335
REMARK  18 active torsions:
REMARK  status: ('A' for Active; 'I' for Inactive)
REMARK    1  A    between atoms: C_1  and  C_2
REMARK    2  A    between atoms: C_1  and  C_15
REMARK    3  A    between atoms: C_3  and  C_4
REMARK    4  A    between atoms: C_4  and  O_5
REMARK    5  A    between atoms: C_4  and  CA_7
REMARK    6  A    between atoms: CA_7  and  N_8
REMARK    7  A    between atoms: CA_7  and  C_12
REMARK    8  A    between atoms: C_12  and  O_13
REMARK    9  A    between atoms: C_15  and  C_16
REMARK   10  A    between atoms: C_16  and  C_17
REMARK   11  A    between atoms: C_17  and  C_18
REMARK   12  A    between atoms: C_18  and  C_19
REMARK   13  A    between atoms: C_19  and  C_20
REMARK   14  A    between atoms: C_20  and  C_21
REMARK   15  A    between atoms: C_21  and  C_22
REMARK   16  A    between atoms: C_22  and  C_23
REMARK   17  A    between atoms: C_23  and  C_24
REMARK   18  A    between atoms: C_24  and  C_25
REMARK                            x       y       z     vdW  Elec       q    Type
REMARK                         _______ _______ _______ _____ _____    ______ ____
ROOT
ATOM      1  C   UNL     1      31.555 -11.615 -19.946  0.00  0.00    +0.026 C 
ENDROOT
BRANCH   1   2
ATOM      2  C   UNL     1      31.400 -10.127 -19.821  0.00  0.00    -0.028 C 
ATOM      3  C   UNL     1      32.255  -9.180 -20.236  0.00  0.00    -0.004 C 
BRANCH   3   4
ATOM      4  C   UNL     1      32.099  -7.690 -20.111  0.00  0.00    +0.115 C 
BRANCH   4   5
ATOM      5  O   UNL     1      33.310  -7.217 -19.506  0.00  0.00    -0.382 OA
ATOM      6  H   UNL     1      33.331  -6.248 -19.539  0.00  0.00    +0.211 HD
ENDBRANCH   4   5
BRANCH   4   7
ATOM      7  CA  UNL     1      31.899  -6.969 -21.466  0.00  0.00    -0.004 C 
BRANCH   7   8
ATOM      8  N   UNL     1      31.717  -5.534 -21.209  0.00  0.00    +0.385 N 
ATOM      9  H1  UNL     1      32.313  -4.998 -21.838  0.00  0.00    -0.089 HD
ATOM     10  H2  UNL     1      31.970  -5.327 -20.242  0.00  0.00    -0.089 HD
ATOM     11  H3  UNL     1      30.741  -5.282 -21.366  0.00  0.00    -0.089 HD
ENDBRANCH   7   8
BRANCH   7  12
ATOM     12  C   UNL     1      33.071  -7.150 -22.441  0.00  0.00    +0.118 C 
BRANCH  12  13
ATOM     13  O   UNL     1      32.674  -7.943 -23.551  0.00  0.00    -0.384 OA
ATOM     14  H   UNL     1      31.714  -8.077 -23.524  0.00  0.00    +0.210 HD
ENDBRANCH  12  13
ENDBRANCH   7  12
ENDBRANCH   4   7
ENDBRANCH   3   4
ENDBRANCH   1   2
BRANCH   1  15
ATOM     15  C   UNL     1      31.474 -12.056 -21.408  0.00  0.00    +0.005 C 
BRANCH  15  16
ATOM     16  C   UNL     1      32.383 -13.246 -21.737  0.00  0.00    +0.000 C 
BRANCH  16  17
ATOM     17  C   UNL     1      32.575 -14.269 -20.613  0.00  0.00    +0.000 C 
BRANCH  17  18
ATOM     18  C   UNL     1      33.923 -14.991 -20.672  0.00  0.00    +0.000 C 
BRANCH  18  19
ATOM     19  C   UNL     1      34.447 -15.070 -22.109  0.00  0.00    +0.000 C 
BRANCH  19  20
ATOM     20  C   UNL     1      34.956 -16.477 -22.434  0.00  0.00    +0.000 C 
BRANCH  20  21
ATOM     21  C   UNL     1      35.256 -17.319 -21.191  0.00  0.00    +0.000 C 
BRANCH  21  22
ATOM     22  C   UNL     1      35.897 -18.671 -21.511  0.00  0.00    +0.000 C 
BRANCH  22  23
ATOM     23  C   UNL     1      35.136 -19.817 -20.841  0.00  0.00    +0.000 C 
BRANCH  23  24
ATOM     24  C   UNL     1      33.624 -19.600 -20.916  0.00  0.00    +0.000 C 
BRANCH  24  25
ATOM     25  C   UNL     1      32.867 -20.689 -20.155  0.00  0.00    +0.000 C 
ATOM     26  C   UNL     1      33.820 -21.624 -19.427  0.00  0.00    +0.000 C 
ENDBRANCH  24  25
ENDBRANCH  23  24
ENDBRANCH  22  23
ENDBRANCH  21  22
ENDBRANCH  20  21
ENDBRANCH  19  20
ENDBRANCH  18  19
ENDBRANCH  17  18
ENDBRANCH  16  17
ENDBRANCH  15  16
ENDBRANCH   1  15
TORSDOF 18
ENDMDL
MODEL 7
REMARK VINA RESULT:      -7.0      4.551      5.854
REMARK  Name = 5280335
REMARK  18 active torsions:
REMARK  status: ('A' for Active; 'I' for Inactive)
REMARK    1  A    between atoms: C_1  and  C_2
REMARK    2  A    between atoms: C_1  and  C_15
REMARK    3  A    between atoms: C_3  and  C_4
REMARK    4  A    between atoms: C_4  and  O_5
REMARK    5  A    between atoms: C_4  and  CA_7
REMARK    6  A    between atoms: CA_7  and  N_8
REMARK    7  A    between atoms: CA_7  and  C_12
REMARK    8  A    between atoms: C_12  and  O_13
REMARK    9  A    between atoms: C_15  and  C_16
REMARK   10  A    between atoms: C_16  and  C_17
REMARK   11  A    between atoms: C_17  and  C_18
REMARK   12  A    between atoms: C_18  and  C_19
REMARK   13  A    between atoms: C_19  and  C_20
REMARK   14  A    between atoms: C_20  and  C_21
REMARK   15  A    between atoms: C_21  and  C_22
REMARK   16  A    between atoms: C_22  and  C_23
REMARK   17  A    between atoms: C_23  and  C_24
REMARK   18  A    between atoms: C_24  and  C_25
REMARK                            x       y       z     vdW  Elec       q    Type
REMARK                         _______ _______ _______ _____ _____    ______ ____
ROOT
ATOM      1  C   UNL     1      34.268 -22.800 -17.837  0.00  0.00    +0.026 C 
ENDROOT
BRANCH   1   2
ATOM      2  C   UNL     1      33.439 -23.190 -16.647  0.00  0.00    -0.028 C 
ATOM      3  C   UNL     1      32.101 -23.276 -16.578  0.00  0.00    -0.004 C 
BRANCH   3   4
ATOM      4  C   UNL     1      31.272 -23.666 -15.387  0.00  0.00    +0.115 C 
BRANCH   4   5
ATOM      5  O   UNL     1      31.803 -22.929 -14.278  0.00  0.00    -0.382 OA
ATOM      6  H   UNL     1      31.103 -22.384 -13.887  0.00  0.00    +0.211 HD
ENDBRANCH   4   5
BRANCH   4   7
ATOM      7  CA  UNL     1      29.768 -23.330 -15.539  0.00  0.00    -0.004 C 
BRANCH   7   8
ATOM      8  N   UNL     1      29.568 -22.662 -16.833  0.00  0.00    +0.385 N 
ATOM      9  H1  UNL     1      29.577 -23.357 -17.579  0.00  0.00    -0.089 HD
ATOM     10  H2  UNL     1      30.319 -21.988 -16.987  0.00  0.00    -0.089 HD
ATOM     11  H3  UNL     1      28.671 -22.177 -16.829  0.00  0.00    -0.089 HD
ENDBRANCH   7   8
BRANCH   7  12
ATOM     12  C   UNL     1      28.850 -24.558 -15.472  0.00  0.00    +0.118 C 
BRANCH  12  13
ATOM     13  O   UNL     1      29.197 -25.375 -14.363  0.00  0.00    -0.384 OA
ATOM     14  H   UNL     1      29.338 -24.817 -13.582  0.00  0.00    +0.210 HD
ENDBRANCH  12  13
ENDBRANCH   7  12
ENDBRANCH   4   7
ENDBRANCH   3   4
ENDBRANCH   1   2
BRANCH   1  15
ATOM     15  C   UNL     1      33.403 -22.169 -18.928  0.00  0.00    +0.005 C 
BRANCH  15  16
ATOM     16  C   UNL     1      34.153 -21.140 -19.780  0.00  0.00    +0.000 C 
BRANCH  16  17
ATOM     17  C   UNL     1      33.278 -20.163 -20.571  0.00  0.00    +0.000 C 
BRANCH  17  18
ATOM     18  C   UNL     1      34.060 -18.992 -21.169  0.00  0.00    +0.000 C 
BRANCH  18  19
ATOM     19  C   UNL     1      35.013 -19.466 -22.269  0.00  0.00    +0.000 C 
BRANCH  19  20
ATOM     20  C   UNL     1      34.576 -18.946 -23.641  0.00  0.00    +0.000 C 
BRANCH  20  21
ATOM     21  C   UNL     1      35.147 -17.565 -23.978  0.00  0.00    +0.000 C 
BRANCH  21  22
ATOM     22  C   UNL     1      34.312 -16.794 -25.003  0.00  0.00    +0.000 C 
BRANCH  22  23
ATOM     23  C   UNL     1      33.762 -15.497 -24.408  0.00  0.00    +0.000 C 
BRANCH  23  24
ATOM     24  C   UNL     1      34.560 -15.069 -23.174  0.00  0.00    +0.000 C 
BRANCH  24  25
ATOM     25  C   UNL     1      33.675 -15.020 -21.929  0.00  0.00    +0.000 C 
ATOM     26  C   UNL     1      34.456 -15.383 -20.677  0.00  0.00    +0.000 C 
ENDBRANCH  24  25
ENDBRANCH  23  24
ENDBRANCH  22  23
ENDBRANCH  21  22
ENDBRANCH  20  21
ENDBRANCH  19  20
ENDBRANCH  18  19
ENDBRANCH  17  18
ENDBRANCH  16  17
ENDBRANCH  15  16
ENDBRANCH   1  15
TORSDOF 18
ENDMDL
MODEL 8
REMARK VINA RESULT:      -7.0      7.887     12.030
REMARK  Name = 5280335
REMARK  18 active torsions:
REMARK  status: ('A' for Active; 'I' for Inactive)
REMARK    1  A    between atoms: C_1  and  C_2
REMARK    2  A    between atoms: C_1  and  C_15
REMARK    3  A    between atoms: C_3  and  C_4
REMARK    4  A    between atoms: C_4  and  O_5
REMARK    5  A    between atoms: C_4  and  CA_7
REMARK    6  A    between atoms: CA_7  and  N_8
REMARK    7  A    between atoms: CA_7  and  C_12
REMARK    8  A    between atoms: C_12  and  O_13
REMARK    9  A    between atoms: C_15  and  C_16
REMARK   10  A    between atoms: C_16  and  C_17
REMARK   11  A    between atoms: C_17  and  C_18
REMARK   12  A    between atoms: C_18  and  C_19
REMARK   13  A    between atoms: C_19  and  C_20
REMARK   14  A    between atoms: C_20  and  C_21
REMARK   15  A    between atoms: C_21  and  C_22
REMARK   16  A    between atoms: C_22  and  C_23
REMARK   17  A    between atoms: C_23  and  C_24
REMARK   18  A    between atoms: C_24  and  C_25
REMARK                            x       y       z     vdW  Elec       q    Type
REMARK                         _______ _______ _______ _____ _____    ______ ____
ROOT
ATOM      1  C   UNL     1      32.788 -14.733 -20.979  0.00  0.00    +0.026 C 
ENDROOT
BRANCH   1   2
ATOM      2  C   UNL     1      31.960 -13.508 -21.245  0.00  0.00    -0.028 C 
ATOM      3  C   UNL     1      32.011 -12.334 -20.597  0.00  0.00    -0.004 C 
BRANCH   3   4
ATOM      4  C   UNL     1      31.183 -11.108 -20.863  0.00  0.00    +0.115 C 
BRANCH   4   5
ATOM      5  O   UNL     1      30.651 -10.709 -19.593  0.00  0.00    -0.382 OA
ATOM      6  H   UNL     1      29.974 -11.344 -19.311  0.00  0.00    +0.211 HD
ENDBRANCH   4   5
BRANCH   4   7
ATOM      7  CA  UNL     1      31.989  -9.931 -21.462  0.00  0.00    -0.004 C 
BRANCH   7   8
ATOM      8  N   UNL     1      31.417  -9.592 -22.773  0.00  0.00    +0.385 N 
ATOM      9  H1  UNL     1      31.405  -8.579 -22.887  0.00  0.00    -0.089 HD
ATOM     10  H2  UNL     1      30.464  -9.952 -22.831  0.00  0.00    -0.089 HD
ATOM     11  H3  UNL     1      31.985 -10.011 -23.509  0.00  0.00    -0.089 HD
ENDBRANCH   7   8
BRANCH   7  12
ATOM     12  C   UNL     1      31.989  -8.671 -20.585  0.00  0.00    +0.118 C 
BRANCH  12  13
ATOM     13  O   UNL     1      32.774  -8.880 -19.419  0.00  0.00    -0.384 OA
ATOM     14  H   UNL     1      33.578  -8.340 -19.470  0.00  0.00    +0.210 HD
ENDBRANCH  12  13
ENDBRANCH   7  12
ENDBRANCH   4   7
ENDBRANCH   3   4
ENDBRANCH   1   2
BRANCH   1  15
ATOM     15  C   UNL     1      34.223 -14.544 -21.469  0.00  0.00    +0.005 C 
BRANCH  15  16
ATOM     16  C   UNL     1      34.351 -14.547 -22.996  0.00  0.00    +0.000 C 
BRANCH  16  17
ATOM     17  C   UNL     1      34.984 -15.799 -23.611  0.00  0.00    +0.000 C 
BRANCH  17  18
ATOM     18  C   UNL     1      34.224 -16.330 -24.828  0.00  0.00    +0.000 C 
BRANCH  18  19
ATOM     19  C   UNL     1      34.444 -17.835 -25.006  0.00  0.00    +0.000 C 
BRANCH  19  20
ATOM     20  C   UNL     1      35.344 -18.396 -23.902  0.00  0.00    +0.000 C 
BRANCH  20  21
ATOM     21  C   UNL     1      34.640 -19.417 -23.003  0.00  0.00    +0.000 C 
BRANCH  21  22
ATOM     22  C   UNL     1      34.294 -18.872 -21.616  0.00  0.00    +0.000 C 
BRANCH  22  23
ATOM     23  C   UNL     1      34.509 -19.931 -20.534  0.00  0.00    +0.000 C 
BRANCH  23  24
ATOM     24  C   UNL     1      33.186 -20.575 -20.114  0.00  0.00    +0.000 C 
BRANCH  24  25
ATOM     25  C   UNL     1      33.419 -21.820 -19.258  0.00  0.00    +0.000 C 
ATOM     26  C   UNL     1      34.902 -22.080 -19.047  0.00  0.00    +0.000 C 
ENDBRANCH  24  25
ENDBRANCH  23  24
ENDBRANCH  22  23
ENDBRANCH  21  22
ENDBRANCH  20  21
ENDBRANCH  19  20
ENDBRANCH  18  19
ENDBRANCH  17  18
ENDBRANCH  16  17
ENDBRANCH  15  16
ENDBRANCH   1  15
TORSDOF 18
ENDMDL
MODEL 9
REMARK VINA RESULT:      -7.0      1.982      2.902
REMARK  Name = 5280335
REMARK  18 active torsions:
REMARK  status: ('A' for Active; 'I' for Inactive)
REMARK    1  A    between atoms: C_1  and  C_2
REMARK    2  A    between atoms: C_1  and  C_15
REMARK    3  A    between atoms: C_3  and  C_4
REMARK    4  A    between atoms: C_4  and  O_5
REMARK    5  A    between atoms: C_4  and  CA_7
REMARK    6  A    between atoms: CA_7  and  N_8
REMARK    7  A    between atoms: CA_7  and  C_12
REMARK    8  A    between atoms: C_12  and  O_13
REMARK    9  A    between atoms: C_15  and  C_16
REMARK   10  A    between atoms: C_16  and  C_17
REMARK   11  A    between atoms: C_17  and  C_18
REMARK   12  A    between atoms: C_18  and  C_19
REMARK   13  A    between atoms: C_19  and  C_20
REMARK   14  A    between atoms: C_20  and  C_21
REMARK   15  A    between atoms: C_21  and  C_22
REMARK   16  A    between atoms: C_22  and  C_23
REMARK   17  A    between atoms: C_23  and  C_24
REMARK   18  A    between atoms: C_24  and  C_25
REMARK                            x       y       z     vdW  Elec       q    Type
REMARK                         _______ _______ _______ _____ _____    ______ ____
ROOT
ATOM      1  C   UNL     1      36.892 -21.544 -17.463  0.00  0.00    +0.026 C 
ENDROOT
BRANCH   1   2
ATOM      2  C   UNL     1      36.725 -22.572 -16.380  0.00  0.00    -0.028 C 
ATOM      3  C   UNL     1      37.686 -23.117 -15.620  0.00  0.00    -0.004 C 
BRANCH   3   4
ATOM      4  C   UNL     1      37.519 -24.146 -14.536  0.00  0.00    +0.115 C 
BRANCH   4   5
ATOM      5  O   UNL     1      38.817 -24.316 -13.950  0.00  0.00    -0.382 OA
ATOM      6  H   UNL     1      39.479 -24.406 -14.653  0.00  0.00    +0.211 HD
ENDBRANCH   4   5
BRANCH   4   7
ATOM      7  CA  UNL     1      36.519 -23.729 -13.431  0.00  0.00    -0.004 C 
BRANCH   7   8
ATOM      8  N   UNL     1      35.652 -24.876 -13.128  0.00  0.00    +0.385 N 
ATOM      9  H1  UNL     1      34.931 -24.955 -13.844  0.00  0.00    -0.089 HD
ATOM     10  H2  UNL     1      35.214 -24.739 -12.217  0.00  0.00    -0.089 HD
ATOM     11  H3  UNL     1      36.211 -25.729 -13.112  0.00  0.00    -0.089 HD
ENDBRANCH   7   8
BRANCH   7  12
ATOM     12  C   UNL     1      37.193 -23.264 -12.132  0.00  0.00    +0.118 C 
BRANCH  12  13
ATOM     13  O   UNL     1      37.524 -24.382 -11.319  0.00  0.00    -0.384 OA
ATOM     14  H   UNL     1      36.737 -24.934 -11.193  0.00  0.00    +0.210 HD
ENDBRANCH  12  13
ENDBRANCH   7  12
ENDBRANCH   4   7
ENDBRANCH   3   4
ENDBRANCH   1   2
BRANCH   1  15
ATOM     15  C   UNL     1      35.914 -21.791 -18.612  0.00  0.00    +0.005 C 
BRANCH  15  16
ATOM     16  C   UNL     1      36.162 -20.890 -19.826  0.00  0.00    +0.000 C 
BRANCH  16  17
ATOM     17  C   UNL     1      34.925 -20.533 -20.656  0.00  0.00    +0.000 C 
BRANCH  17  18
ATOM     18  C   UNL     1      34.806 -19.037 -20.959  0.00  0.00    +0.000 C 
BRANCH  18  19
ATOM     19  C   UNL     1      35.640 -18.652 -22.183  0.00  0.00    +0.000 C 
BRANCH  19  20
ATOM     20  C   UNL     1      34.991 -19.156 -23.475  0.00  0.00    +0.000 C 
BRANCH  20  21
ATOM     21  C   UNL     1      34.572 -18.031 -24.425  0.00  0.00    +0.000 C 
BRANCH  21  22
ATOM     22  C   UNL     1      35.061 -16.649 -23.986  0.00  0.00    +0.000 C 
BRANCH  22  23
ATOM     23  C   UNL     1      33.955 -15.600 -24.126  0.00  0.00    +0.000 C 
BRANCH  23  24
ATOM     24  C   UNL     1      33.932 -14.653 -22.924  0.00  0.00    +0.000 C 
BRANCH  24  25
ATOM     25  C   UNL     1      33.432 -15.363 -21.666  0.00  0.00    +0.000 C 
ATOM     26  C   UNL     1      34.469 -15.324 -20.555  0.00  0.00    +0.000 C 
ENDBRANCH  24  25
ENDBRANCH  23  24
ENDBRANCH  22  23
ENDBRANCH  21  22
ENDBRANCH  20  21
ENDBRANCH  19  20
ENDBRANCH  18  19
ENDBRANCH  17  18
ENDBRANCH  16  17
ENDBRANCH  15  16
ENDBRANCH   1  15
TORSDOF 18
ENDMDL
