MODEL 1
REMARK VINA RESULT:      -8.7      0.000      0.000
REMARK  Name = 4192
REMARK  1 active torsions:
REMARK  status: ('A' for Active; 'I' for Inactive)
REMARK    1  A    between atoms: C_9  and  C_18
REMARK                            x       y       z     vdW  Elec       q    Type
REMARK                         _______ _______ _______ _____ _____    ______ ____
ROOT
ATOM      1 CL   UNL     1      35.666 -21.814 -18.893  0.00  0.00    -0.082 Cl
ATOM      2  N   UNL     1      31.714 -23.934 -15.004  0.00  0.00    -0.255 N 
ATOM      3  N   UNL     1      34.135 -23.883 -13.141  0.00  0.00    -0.264 NA
ATOM      4  N   UNL     1      29.804 -24.761 -14.181  0.00  0.00    -0.232 NA
ATOM      5  C   UNL     1      32.696 -23.510 -15.930  0.00  0.00    +0.058 C 
ATOM      6  C   UNL     1      31.781 -23.806 -13.632  0.00  0.00    +0.078 C 
ATOM      7  C   UNL     1      34.059 -23.425 -15.583  0.00  0.00    +0.032 C 
ATOM      8  C   UNL     1      32.908 -23.135 -12.944  0.00  0.00    +0.168 C 
ATOM      9  C   UNL     1      34.636 -24.002 -14.323  0.00  0.00    +0.080 C 
ATOM     10  C   UNL     1      30.478 -24.480 -15.273  0.00  0.00    +0.116 C 
ATOM     11  C   UNL     1      30.607 -24.345 -13.156  0.00  0.00    +0.113 C 
ATOM     12  C   UNL     1      32.283 -23.132 -17.218  0.00  0.00    +0.016 C 
ATOM     13  C   UNL     1      34.966 -22.878 -16.508  0.00  0.00    +0.014 C 
ATOM     14  C   UNL     1      29.999 -24.903 -16.610  0.00  0.00    +0.070 C 
ATOM     15  C   UNL     1      33.202 -22.616 -18.132  0.00  0.00    +0.013 C 
ATOM     16  C   UNL     1      34.538 -22.475 -17.773  0.00  0.00    +0.058 C 
ENDROOT
BRANCH   9  18
ATOM     17  F   UNL     1      37.106 -23.138 -13.265  0.00  0.00    -0.204 F 
ATOM     18  C   UNL     1      35.886 -24.812 -14.428  0.00  0.00    +0.045 C 
ATOM     19  C   UNL     1      37.068 -24.327 -13.884  0.00  0.00    +0.142 C 
ATOM     20  C   UNL     1      35.849 -26.044 -15.069  0.00  0.00    +0.004 C 
ATOM     21  C   UNL     1      38.233 -25.087 -13.983  0.00  0.00    +0.030 C 
ATOM     22  C   UNL     1      37.014 -26.803 -15.167  0.00  0.00    +0.000 C 
ATOM     23  C   UNL     1      38.207 -26.325 -14.624  0.00  0.00    +0.002 C 
ENDBRANCH   9  18
TORSDOF 1
ENDMDL
MODEL 2
REMARK VINA RESULT:      -8.2     12.114     14.677
REMARK  Name = 4192
REMARK  1 active torsions:
REMARK  status: ('A' for Active; 'I' for Inactive)
REMARK    1  A    between atoms: C_9  and  C_18
REMARK                            x       y       z     vdW  Elec       q    Type
REMARK                         _______ _______ _______ _____ _____    ______ ____
ROOT
ATOM      1 CL   UNL     1      30.762 -11.137 -20.303  0.00  0.00    -0.082 Cl
ATOM      2  N   UNL     1      33.952 -11.624 -25.285  0.00  0.00    -0.255 N 
ATOM      3  N   UNL     1      33.129 -14.556 -25.038  0.00  0.00    -0.264 NA
ATOM      4  N   UNL     1      35.319 -11.082 -26.972  0.00  0.00    -0.232 NA
ATOM      5  C   UNL     1      33.257 -11.555 -24.055  0.00  0.00    +0.058 C 
ATOM      6  C   UNL     1      33.792 -12.591 -26.256  0.00  0.00    +0.078 C 
ATOM      7  C   UNL     1      32.748 -12.706 -23.421  0.00  0.00    +0.032 C 
ATOM      8  C   UNL     1      32.796 -13.681 -26.145  0.00  0.00    +0.168 C 
ATOM      9  C   UNL     1      33.102 -14.107 -23.828  0.00  0.00    +0.080 C 
ATOM     10  C   UNL     1      34.858 -10.721 -25.796  0.00  0.00    +0.116 C 
ATOM     11  C   UNL     1      34.662 -12.244 -27.265  0.00  0.00    +0.113 C 
ATOM     12  C   UNL     1      33.042 -10.292 -23.477  0.00  0.00    +0.016 C 
ATOM     13  C   UNL     1      31.960 -12.557 -22.267  0.00  0.00    +0.014 C 
ATOM     14  C   UNL     1      35.426  -9.566 -25.062  0.00  0.00    +0.070 C 
ATOM     15  C   UNL     1      32.278 -10.168 -22.316  0.00  0.00    +0.013 C 
ATOM     16  C   UNL     1      31.725 -11.296 -21.721  0.00  0.00    +0.058 C 
ENDROOT
BRANCH   9  18
ATOM     17  F   UNL     1      35.457 -15.656 -23.950  0.00  0.00    -0.204 F 
ATOM     18  C   UNL     1      33.486 -15.076 -22.760  0.00  0.00    +0.045 C 
ATOM     19  C   UNL     1      34.660 -15.806 -22.882  0.00  0.00    +0.142 C 
ATOM     20  C   UNL     1      32.661 -15.233 -21.653  0.00  0.00    +0.004 C 
ATOM     21  C   UNL     1      35.016 -16.709 -21.882  0.00  0.00    +0.030 C 
ATOM     22  C   UNL     1      33.017 -16.136 -20.652  0.00  0.00    +0.000 C 
ATOM     23  C   UNL     1      34.195 -16.874 -20.766  0.00  0.00    +0.002 C 
ENDBRANCH   9  18
TORSDOF 1
ENDMDL
MODEL 3
REMARK VINA RESULT:      -8.0     10.989     13.599
REMARK  Name = 4192
REMARK  1 active torsions:
REMARK  status: ('A' for Active; 'I' for Inactive)
REMARK    1  A    between atoms: C_9  and  C_18
REMARK                            x       y       z     vdW  Elec       q    Type
REMARK                         _______ _______ _______ _____ _____    ______ ____
ROOT
ATOM      1 CL   UNL     1      31.970 -14.928 -19.731  0.00  0.00    -0.082 Cl
ATOM      2  N   UNL     1      33.599 -12.890 -25.063  0.00  0.00    -0.255 N 
ATOM      3  N   UNL     1      33.433 -15.853 -25.790  0.00  0.00    -0.264 NA
ATOM      4  N   UNL     1      34.291 -11.480 -26.658  0.00  0.00    -0.232 NA
ATOM      5  C   UNL     1      33.293 -13.414 -23.785  0.00  0.00    +0.058 C 
ATOM      6  C   UNL     1      33.341 -13.498 -26.274  0.00  0.00    +0.078 C 
ATOM      7  C   UNL     1      33.211 -14.801 -23.549  0.00  0.00    +0.032 C 
ATOM      8  C   UNL     1      32.637 -14.796 -26.386  0.00  0.00    +0.168 C 
ATOM      9  C   UNL     1      33.679 -15.841 -24.524  0.00  0.00    +0.080 C 
ATOM     10  C   UNL     1      34.136 -11.657 -25.365  0.00  0.00    +0.116 C 
ATOM     11  C   UNL     1      33.800 -12.620 -27.229  0.00  0.00    +0.113 C 
ATOM     12  C   UNL     1      33.030 -12.515 -22.738  0.00  0.00    +0.016 C 
ATOM     13  C   UNL     1      32.780 -15.254 -22.290  0.00  0.00    +0.014 C 
ATOM     14  C   UNL     1      34.672 -10.690 -24.380  0.00  0.00    +0.070 C 
ATOM     15  C   UNL     1      32.629 -12.985 -21.487  0.00  0.00    +0.013 C 
ATOM     16  C   UNL     1      32.489 -14.351 -21.268  0.00  0.00    +0.058 C 
ENDROOT
BRANCH   9  18
ATOM     17  F   UNL     1      33.494 -18.478 -25.512  0.00  0.00    -0.204 F 
ATOM     18  C   UNL     1      34.528 -16.956 -24.010  0.00  0.00    +0.045 C 
ATOM     19  C   UNL     1      34.386 -18.231 -24.541  0.00  0.00    +0.142 C 
ATOM     20  C   UNL     1      35.453 -16.702 -23.006  0.00  0.00    +0.004 C 
ATOM     21  C   UNL     1      35.182 -19.270 -24.060  0.00  0.00    +0.030 C 
ATOM     22  C   UNL     1      36.249 -17.741 -22.524  0.00  0.00    +0.000 C 
ATOM     23  C   UNL     1      36.114 -19.026 -23.052  0.00  0.00    +0.002 C 
ENDBRANCH   9  18
TORSDOF 1
ENDMDL
MODEL 4
REMARK VINA RESULT:      -7.7     11.767     14.411
REMARK  Name = 4192
REMARK  1 active torsions:
REMARK  status: ('A' for Active; 'I' for Inactive)
REMARK    1  A    between atoms: C_9  and  C_18
REMARK                            x       y       z     vdW  Elec       q    Type
REMARK                         _______ _______ _______ _____ _____    ______ ____
ROOT
ATOM      1 CL   UNL     1      32.228 -13.712 -27.900  0.00  0.00    -0.082 Cl
ATOM      2  N   UNL     1      33.912 -15.252 -22.420  0.00  0.00    -0.255 N 
ATOM      3  N   UNL     1      32.630 -12.570 -21.715  0.00  0.00    -0.264 NA
ATOM      4  N   UNL     1      34.890 -16.389 -20.759  0.00  0.00    -0.232 NA
ATOM      5  C   UNL     1      33.574 -14.820 -23.724  0.00  0.00    +0.058 C 
ATOM      6  C   UNL     1      33.331 -14.823 -21.245  0.00  0.00    +0.078 C 
ATOM      7  C   UNL     1      33.029 -13.543 -23.968  0.00  0.00    +0.032 C 
ATOM      8  C   UNL     1      32.204 -13.862 -21.212  0.00  0.00    +0.168 C 
ATOM      9  C   UNL     1      32.994 -12.444 -22.947  0.00  0.00    +0.080 C 
ATOM     10  C   UNL     1      34.816 -16.227 -22.060  0.00  0.00    +0.116 C 
ATOM     11  C   UNL     1      33.970 -15.520 -20.245  0.00  0.00    +0.113 C 
ATOM     12  C   UNL     1      33.757 -15.712 -24.794  0.00  0.00    +0.016 C 
ATOM     13  C   UNL     1      32.599 -13.222 -25.267  0.00  0.00    +0.014 C 
ATOM     14  C   UNL     1      35.760 -16.904 -22.980  0.00  0.00    +0.070 C 
ATOM     15  C   UNL     1      33.347 -15.364 -26.082  0.00  0.00    +0.013 C 
ATOM     16  C   UNL     1      32.756 -14.128 -26.315  0.00  0.00    +0.058 C 
ENDROOT
BRANCH   9  18
ATOM     17  F   UNL     1      31.578 -10.100 -22.263  0.00  0.00    -0.204 F 
ATOM     18  C   UNL     1      33.441 -11.081 -23.363  0.00  0.00    +0.045 C 
ATOM     19  C   UNL     1      32.696  -9.970 -22.992  0.00  0.00    +0.142 C 
ATOM     20  C   UNL     1      34.599 -10.944 -24.117  0.00  0.00    +0.004 C 
ATOM     21  C   UNL     1      33.117  -8.699 -23.381  0.00  0.00    +0.030 C 
ATOM     22  C   UNL     1      35.019  -9.673 -24.507  0.00  0.00    +0.000 C 
ATOM     23  C   UNL     1      34.278  -8.550 -24.138  0.00  0.00    +0.002 C 
ENDBRANCH   9  18
TORSDOF 1
ENDMDL
MODEL 5
REMARK VINA RESULT:      -7.5     15.102     17.782
REMARK  Name = 4192
REMARK  1 active torsions:
REMARK  status: ('A' for Active; 'I' for Inactive)
REMARK    1  A    between atoms: C_9  and  C_18
REMARK                            x       y       z     vdW  Elec       q    Type
REMARK                         _______ _______ _______ _____ _____    ______ ____
ROOT
ATOM      1 CL   UNL     1      30.856 -11.121 -19.650  0.00  0.00    -0.082 Cl
ATOM      2  N   UNL     1      33.863 -11.092 -24.768  0.00  0.00    -0.255 N 
ATOM      3  N   UNL     1      34.456  -8.215 -23.928  0.00  0.00    -0.264 NA
ATOM      4  N   UNL     1      34.646 -11.763 -26.755  0.00  0.00    -0.232 NA
ATOM      5  C   UNL     1      33.086 -11.043 -23.586  0.00  0.00    +0.058 C 
ATOM      6  C   UNL     1      34.933 -10.277 -25.072  0.00  0.00    +0.078 C 
ATOM      7  C   UNL     1      32.931  -9.853 -22.846  0.00  0.00    +0.032 C 
ATOM      8  C   UNL     1      35.450  -9.250 -24.138  0.00  0.00    +0.168 C 
ATOM      9  C   UNL     1      33.338  -8.499 -23.350  0.00  0.00    +0.080 C 
ATOM     10  C   UNL     1      33.767 -11.994 -25.805  0.00  0.00    +0.116 C 
ATOM     11  C   UNL     1      35.374 -10.697 -26.306  0.00  0.00    +0.113 C 
ATOM     12  C   UNL     1      32.488 -12.229 -23.128  0.00  0.00    +0.016 C 
ATOM     13  C   UNL     1      32.251  -9.899 -21.617  0.00  0.00    +0.014 C 
ATOM     14  C   UNL     1      32.693 -13.000 -25.971  0.00  0.00    +0.070 C 
ATOM     15  C   UNL     1      31.794 -12.248 -21.917  0.00  0.00    +0.013 C 
ATOM     16  C   UNL     1      31.690 -11.089 -21.156  0.00  0.00    +0.058 C 
ENDROOT
BRANCH   9  18
ATOM     17  F   UNL     1      33.138  -6.956 -20.996  0.00  0.00    -0.204 F 
ATOM     18  C   UNL     1      32.369  -7.373 -23.204  0.00  0.00    +0.045 C 
ATOM     19  C   UNL     1      32.323  -6.654 -22.018  0.00  0.00    +0.142 C 
ATOM     20  C   UNL     1      31.525  -7.059 -24.261  0.00  0.00    +0.004 C 
ATOM     21  C   UNL     1      31.418  -5.602 -21.885  0.00  0.00    +0.030 C 
ATOM     22  C   UNL     1      30.619  -6.007 -24.129  0.00  0.00    +0.000 C 
ATOM     23  C   UNL     1      30.566  -5.278 -22.940  0.00  0.00    +0.002 C 
ENDBRANCH   9  18
TORSDOF 1
ENDMDL
MODEL 6
REMARK VINA RESULT:      -7.3      3.115      5.953
REMARK  Name = 4192
REMARK  1 active torsions:
REMARK  status: ('A' for Active; 'I' for Inactive)
REMARK    1  A    between atoms: C_9  and  C_18
REMARK                            x       y       z     vdW  Elec       q    Type
REMARK                         _______ _______ _______ _____ _____    ______ ____
ROOT
ATOM      1 CL   UNL     1      31.371 -22.965 -14.426  0.00  0.00    -0.082 Cl
ATOM      2  N   UNL     1      36.987 -24.779 -15.053  0.00  0.00    -0.255 N 
ATOM      3  N   UNL     1      37.237 -22.143 -16.577  0.00  0.00    -0.264 NA
ATOM      4  N   UNL     1      38.798 -26.094 -14.976  0.00  0.00    -0.232 NA
ATOM      5  C   UNL     1      35.637 -24.361 -14.992  0.00  0.00    +0.058 C 
ATOM      6  C   UNL     1      38.083 -23.965 -15.253  0.00  0.00    +0.078 C 
ATOM      7  C   UNL     1      35.184 -23.207 -15.662  0.00  0.00    +0.032 C 
ATOM      8  C   UNL     1      37.975 -22.493 -15.378  0.00  0.00    +0.168 C 
ATOM      9  C   UNL     1      35.993 -22.467 -16.688  0.00  0.00    +0.080 C 
ATOM     10  C   UNL     1      37.491 -26.046 -14.852  0.00  0.00    +0.116 C 
ATOM     11  C   UNL     1      39.173 -24.804 -15.226  0.00  0.00    +0.113 C 
ATOM     12  C   UNL     1      34.740 -25.107 -14.210  0.00  0.00    +0.016 C 
ATOM     13  C   UNL     1      33.861 -22.777 -15.460  0.00  0.00    +0.014 C 
ATOM     14  C   UNL     1      36.680 -27.278 -14.705  0.00  0.00    +0.070 C 
ATOM     15  C   UNL     1      33.423 -24.678 -14.043  0.00  0.00    +0.013 C 
ATOM     16  C   UNL     1      32.989 -23.507 -14.654  0.00  0.00    +0.058 C 
ENDROOT
BRANCH   9  18
ATOM     17  F   UNL     1      37.226 -20.816 -18.615  0.00  0.00    -0.204 F 
ATOM     18  C   UNL     1      35.327 -22.087 -17.968  0.00  0.00    +0.045 C 
ATOM     19  C   UNL     1      35.991 -21.271 -18.873  0.00  0.00    +0.142 C 
ATOM     20  C   UNL     1      34.048 -22.557 -18.238  0.00  0.00    +0.004 C 
ATOM     21  C   UNL     1      35.367 -20.919 -20.069  0.00  0.00    +0.030 C 
ATOM     22  C   UNL     1      33.424 -22.205 -19.434  0.00  0.00    +0.000 C 
ATOM     23  C   UNL     1      34.083 -21.385 -20.350  0.00  0.00    +0.002 C 
ENDBRANCH   9  18
TORSDOF 1
ENDMDL
MODEL 7
REMARK VINA RESULT:      -7.3      9.454     12.357
REMARK  Name = 4192
REMARK  1 active torsions:
REMARK  status: ('A' for Active; 'I' for Inactive)
REMARK    1  A    between atoms: C_9  and  C_18
REMARK                            x       y       z     vdW  Elec       q    Type
REMARK                         _______ _______ _______ _____ _____    ______ ____
ROOT
ATOM      1 CL   UNL     1      31.964 -12.315 -20.325  0.00  0.00    -0.082 Cl
ATOM      2  N   UNL     1      33.995 -17.751 -21.572  0.00  0.00    -0.255 N 
ATOM      3  N   UNL     1      35.525 -16.236 -23.740  0.00  0.00    -0.264 NA
ATOM      4  N   UNL     1      34.224 -19.978 -21.523  0.00  0.00    -0.232 NA
ATOM      5  C   UNL     1      33.465 -16.458 -21.353  0.00  0.00    +0.058 C 
ATOM      6  C   UNL     1      35.194 -18.045 -22.189  0.00  0.00    +0.078 C 
ATOM      7  C   UNL     1      33.782 -15.371 -22.192  0.00  0.00    +0.032 C 
ATOM      8  C   UNL     1      36.129 -16.999 -22.664  0.00  0.00    +0.168 C 
ATOM      9  C   UNL     1      34.480 -15.514 -23.513  0.00  0.00    +0.080 C 
ATOM     10  C   UNL     1      33.479 -18.959 -21.157  0.00  0.00    +0.116 C 
ATOM     11  C   UNL     1      35.292 -19.417 -22.165  0.00  0.00    +0.113 C 
ATOM     12  C   UNL     1      32.629 -16.257 -20.242  0.00  0.00    +0.016 C 
ATOM     13  C   UNL     1      33.323 -14.088 -21.848  0.00  0.00    +0.014 C 
ATOM     14  C   UNL     1      32.146 -19.156 -20.540  0.00  0.00    +0.070 C 
ATOM     15  C   UNL     1      32.161 -14.979 -19.932  0.00  0.00    +0.013 C 
ATOM     16  C   UNL     1      32.521 -13.895 -20.724  0.00  0.00    +0.058 C 
ENDROOT
BRANCH   9  18
ATOM     17  F   UNL     1      33.339 -16.846 -25.724  0.00  0.00    -0.204 F 
ATOM     18  C   UNL     1      33.916 -14.788 -24.689  0.00  0.00    +0.045 C 
ATOM     19  C   UNL     1      33.369 -15.506 -25.744  0.00  0.00    +0.142 C 
ATOM     20  C   UNL     1      33.946 -13.399 -24.712  0.00  0.00    +0.004 C 
ATOM     21  C   UNL     1      32.842 -14.824 -26.840  0.00  0.00    +0.030 C 
ATOM     22  C   UNL     1      33.419 -12.717 -25.808  0.00  0.00    +0.000 C 
ATOM     23  C   UNL     1      32.867 -13.430 -26.873  0.00  0.00    +0.002 C 
ENDBRANCH   9  18
TORSDOF 1
ENDMDL
MODEL 8
REMARK VINA RESULT:      -7.1     16.195     18.720
REMARK  Name = 4192
REMARK  1 active torsions:
REMARK  status: ('A' for Active; 'I' for Inactive)
REMARK    1  A    between atoms: C_9  and  C_18
REMARK                            x       y       z     vdW  Elec       q    Type
REMARK                         _______ _______ _______ _____ _____    ______ ____
ROOT
ATOM      1 CL   UNL     1      32.319  -5.911 -19.216  0.00  0.00    -0.082 Cl
ATOM      2  N   UNL     1      33.010 -10.431 -23.001  0.00  0.00    -0.255 N 
ATOM      3  N   UNL     1      34.256  -8.249 -24.738  0.00  0.00    -0.264 NA
ATOM      4  N   UNL     1      32.841 -12.478 -23.890  0.00  0.00    -0.232 NA
ATOM      5  C   UNL     1      32.783  -9.320 -22.155  0.00  0.00    +0.058 C 
ATOM      6  C   UNL     1      33.966 -10.517 -23.991  0.00  0.00    +0.078 C 
ATOM      7  C   UNL     1      33.092  -8.004 -22.555  0.00  0.00    +0.032 C 
ATOM      8  C   UNL     1      34.941  -9.435 -24.261  0.00  0.00    +0.168 C 
ATOM      9  C   UNL     1      33.436  -7.621 -23.965  0.00  0.00    +0.080 C 
ATOM     10  C   UNL     1      32.392 -11.662 -22.963  0.00  0.00    +0.116 C 
ATOM     11  C   UNL     1      33.819 -11.774 -24.534  0.00  0.00    +0.113 C 
ATOM     12  C   UNL     1      32.268  -9.551 -20.868  0.00  0.00    +0.016 C 
ATOM     13  C   UNL     1      32.959  -6.959 -21.624  0.00  0.00    +0.014 C 
ATOM     14  C   UNL     1      31.220 -12.009 -22.126  0.00  0.00    +0.070 C 
ATOM     15  C   UNL     1      32.120  -8.496 -19.967  0.00  0.00    +0.013 C 
ATOM     16  C   UNL     1      32.479  -7.206 -20.338  0.00  0.00    +0.058 C 
ENDROOT
BRANCH   9  18
ATOM     17  F   UNL     1      34.706  -5.911 -25.817  0.00  0.00    -0.204 F 
ATOM     18  C   UNL     1      32.760  -6.428 -24.555  0.00  0.00    +0.045 C 
ATOM     19  C   UNL     1      33.444  -5.628 -25.462  0.00  0.00    +0.142 C 
ATOM     20  C   UNL     1      31.453  -6.133 -24.190  0.00  0.00    +0.004 C 
ATOM     21  C   UNL     1      32.810  -4.515 -26.012  0.00  0.00    +0.030 C 
ATOM     22  C   UNL     1      30.819  -5.020 -24.740  0.00  0.00    +0.000 C 
ATOM     23  C   UNL     1      31.497  -4.210 -25.652  0.00  0.00    +0.002 C 
ENDBRANCH   9  18
TORSDOF 1
ENDMDL
MODEL 9
REMARK VINA RESULT:      -7.1      2.069      5.447
REMARK  Name = 4192
REMARK  1 active torsions:
REMARK  status: ('A' for Active; 'I' for Inactive)
REMARK    1  A    between atoms: C_9  and  C_18
REMARK                            x       y       z     vdW  Elec       q    Type
REMARK                         _______ _______ _______ _____ _____    ______ ____
ROOT
ATOM      1 CL   UNL     1      36.346 -21.033 -18.783  0.00  0.00    -0.082 Cl
ATOM      2  N   UNL     1      36.903 -24.013 -13.680  0.00  0.00    -0.255 N 
ATOM      3  N   UNL     1      34.379 -25.405 -14.693  0.00  0.00    -0.264 NA
ATOM      4  N   UNL     1      37.657 -24.604 -11.657  0.00  0.00    -0.232 NA
ATOM      5  C   UNL     1      36.697 -23.263 -14.862  0.00  0.00    +0.058 C 
ATOM      6  C   UNL     1      36.420 -25.281 -13.427  0.00  0.00    +0.078 C 
ATOM      7  C   UNL     1      35.559 -23.448 -15.672  0.00  0.00    +0.032 C 
ATOM      8  C   UNL     1      35.646 -26.057 -14.423  0.00  0.00    +0.168 C 
ATOM      9  C   UNL     1      34.356 -24.242 -15.252  0.00  0.00    +0.080 C 
ATOM     10  C   UNL     1      37.675 -23.678 -12.589  0.00  0.00    +0.116 C 
ATOM     11  C   UNL     1      36.879 -25.603 -12.170  0.00  0.00    +0.113 C 
ATOM     12  C   UNL     1      37.679 -22.335 -15.246  0.00  0.00    +0.016 C 
ATOM     13  C   UNL     1      35.474 -22.761 -16.896  0.00  0.00    +0.014 C 
ATOM     14  C   UNL     1      38.312 -22.360 -12.361  0.00  0.00    +0.070 C 
ATOM     15  C   UNL     1      37.565 -21.644 -16.452  0.00  0.00    +0.013 C 
ATOM     16  C   UNL     1      36.473 -21.868 -17.283  0.00  0.00    +0.058 C 
ENDROOT
BRANCH   9  18
ATOM     17  F   UNL     1      32.685 -23.454 -13.119  0.00  0.00    -0.204 F 
ATOM     18  C   UNL     1      33.006 -23.642 -15.465  0.00  0.00    +0.045 C 
ATOM     19  C   UNL     1      32.235 -23.276 -14.370  0.00  0.00    +0.142 C 
ATOM     20  C   UNL     1      32.539 -23.456 -16.760  0.00  0.00    +0.004 C 
ATOM     21  C   UNL     1      30.975 -22.715 -14.573  0.00  0.00    +0.030 C 
ATOM     22  C   UNL     1      31.279 -22.895 -16.963  0.00  0.00    +0.000 C 
ATOM     23  C   UNL     1      30.497 -22.523 -15.869  0.00  0.00    +0.002 C 
ENDBRANCH   9  18
TORSDOF 1
ENDMDL
