MODEL 1
REMARK VINA RESULT:      -6.6      0.000      0.000
REMARK  Name = 5219
REMARK  2 active torsions:
REMARK  status: ('A' for Active; 'I' for Inactive)
REMARK    1  A    between atoms: N_2  and  N_9
REMARK    2  A    between atoms: N_4  and  C_6
REMARK                            x       y       z     vdW  Elec       q    Type
REMARK                         _______ _______ _______ _____ _____    ______ ____
ROOT
ATOM      1  O   UNL     1      27.093 -22.834 -18.062  0.00  0.00    -0.347 OA
ATOM      2  N   UNL     1      28.531 -22.949 -16.279  0.00  0.00    -0.136 N 
ATOM      3  N   UNL     1      28.307 -23.485 -17.609  0.00  0.00    +0.090 NA
ATOM      4  C   UNL     1      27.617 -22.121 -15.969  0.00  0.00    +0.156 C 
ATOM      5  C   UNL     1      26.662 -22.004 -17.078  0.00  0.00    +0.252 C 
ENDROOT
BRANCH   2   7
ATOM      6  O   UNL     1      31.986 -24.630 -14.430  0.00  0.00    -0.351 OA
ATOM      7  N   UNL     1      29.657 -23.327 -15.429  0.00  0.00    -0.182 NA
ATOM      8  C   UNL     1      29.598 -24.675 -14.853  0.00  0.00    +0.126 C 
ATOM      9  C   UNL     1      30.991 -23.043 -15.970  0.00  0.00    +0.126 C 
ATOM     10  C   UNL     1      30.714 -24.874 -13.831  0.00  0.00    +0.161 C 
ATOM     11  C   UNL     1      32.064 -23.291 -14.915  0.00  0.00    +0.161 C 
ENDBRANCH   2   7
BRANCH   5  12
ATOM     12  N   UNL     1      25.621 -21.255 -17.101  0.00  0.00    -0.231 NA
ATOM     13  H   UNL     1      25.494 -20.612 -17.836  0.00  0.00    +0.173 HD
ENDBRANCH   5  12
TORSDOF 2
ENDMDL
MODEL 2
REMARK VINA RESULT:      -6.5      8.663      9.865
REMARK  Name = 5219
REMARK  2 active torsions:
REMARK  status: ('A' for Active; 'I' for Inactive)
REMARK    1  A    between atoms: N_2  and  N_9
REMARK    2  A    between atoms: N_4  and  C_6
REMARK                            x       y       z     vdW  Elec       q    Type
REMARK                         _______ _______ _______ _____ _____    ______ ____
ROOT
ATOM      1  O   UNL     1      35.047 -20.995 -19.664  0.00  0.00    -0.347 OA
ATOM      2  N   UNL     1      34.374 -19.253 -20.994  0.00  0.00    -0.136 N 
ATOM      3  N   UNL     1      35.551 -19.842 -20.383  0.00  0.00    +0.090 NA
ATOM      4  C   UNL     1      33.333 -19.923 -20.700  0.00  0.00    +0.156 C 
ATOM      5  C   UNL     1      33.704 -21.059 -19.847  0.00  0.00    +0.252 C 
ENDROOT
BRANCH   2   7
ATOM      6  O   UNL     1      35.322 -15.799 -23.307  0.00  0.00    -0.351 OA
ATOM      7  N   UNL     1      34.402 -18.053 -21.825  0.00  0.00    -0.182 NA
ATOM      8  C   UNL     1      34.855 -16.826 -21.159  0.00  0.00    +0.126 C 
ATOM      9  C   UNL     1      35.031 -18.201 -23.142  0.00  0.00    +0.126 C 
ATOM     10  C   UNL     1      34.647 -15.614 -22.063  0.00  0.00    +0.161 C 
ATOM     11  C   UNL     1      34.818 -16.948 -23.985  0.00  0.00    +0.161 C 
ENDBRANCH   2   7
BRANCH   5  12
ATOM     12  N   UNL     1      32.900 -21.938 -19.371  0.00  0.00    -0.231 NA
ATOM     13  H   UNL     1      33.220 -22.587 -18.704  0.00  0.00    +0.173 HD
ENDBRANCH   5  12
TORSDOF 2
ENDMDL
MODEL 3
REMARK VINA RESULT:      -6.4     11.782     12.332
REMARK  Name = 5219
REMARK  2 active torsions:
REMARK  status: ('A' for Active; 'I' for Inactive)
REMARK    1  A    between atoms: N_2  and  N_9
REMARK    2  A    between atoms: N_4  and  C_6
REMARK                            x       y       z     vdW  Elec       q    Type
REMARK                         _______ _______ _______ _____ _____    ______ ____
ROOT
ATOM      1  O   UNL     1      33.522 -15.544 -26.726  0.00  0.00    -0.347 OA
ATOM      2  N   UNL     1      33.644 -15.311 -24.448  0.00  0.00    -0.136 N 
ATOM      3  N   UNL     1      33.824 -16.279 -25.514  0.00  0.00    +0.090 NA
ATOM      4  C   UNL     1      33.291 -14.184 -24.921  0.00  0.00    +0.156 C 
ATOM      5  C   UNL     1      33.197 -14.272 -26.384  0.00  0.00    +0.252 C 
ENDROOT
BRANCH   2   7
ATOM      6  O   UNL     1      34.975 -15.757 -20.422  0.00  0.00    -0.351 OA
ATOM      7  N   UNL     1      33.843 -15.612 -23.033  0.00  0.00    -0.182 NA
ATOM      8  C   UNL     1      34.949 -16.524 -22.723  0.00  0.00    +0.126 C 
ATOM      9  C   UNL     1      33.841 -14.457 -22.128  0.00  0.00    +0.126 C 
ATOM     10  C   UNL     1      34.925 -16.919 -21.249  0.00  0.00    +0.161 C 
ATOM     11  C   UNL     1      33.851 -14.914 -20.672  0.00  0.00    +0.161 C 
ENDBRANCH   2   7
BRANCH   5  12
ATOM     12  N   UNL     1      32.869 -13.318 -27.177  0.00  0.00    -0.231 NA
ATOM     13  H   UNL     1      32.392 -12.531 -26.829  0.00  0.00    +0.173 HD
ENDBRANCH   5  12
TORSDOF 2
ENDMDL
MODEL 4
REMARK VINA RESULT:      -6.4      7.560     10.045
REMARK  Name = 5219
REMARK  2 active torsions:
REMARK  status: ('A' for Active; 'I' for Inactive)
REMARK    1  A    between atoms: N_2  and  N_9
REMARK    2  A    between atoms: N_4  and  C_6
REMARK                            x       y       z     vdW  Elec       q    Type
REMARK                         _______ _______ _______ _____ _____    ______ ____
ROOT
ATOM      1  O   UNL     1      40.008 -24.637 -15.357  0.00  0.00    -0.347 OA
ATOM      2  N   UNL     1      38.167 -24.697 -13.991  0.00  0.00    -0.136 N 
ATOM      3  N   UNL     1      38.784 -23.922 -15.052  0.00  0.00    +0.090 NA
ATOM      4  C   UNL     1      38.885 -25.705 -13.695  0.00  0.00    +0.156 C 
ATOM      5  C   UNL     1      40.084 -25.720 -14.543  0.00  0.00    +0.252 C 
ENDROOT
BRANCH   2   7
ATOM      6  O   UNL     1      34.333 -24.538 -12.131  0.00  0.00    -0.351 OA
ATOM      7  N   UNL     1      36.897 -24.347 -13.361  0.00  0.00    -0.182 NA
ATOM      8  C   UNL     1      35.692 -24.655 -14.138  0.00  0.00    +0.126 C 
ATOM      9  C   UNL     1      36.743 -24.759 -11.961  0.00  0.00    +0.126 C 
ATOM     10  C   UNL     1      34.454 -24.062 -13.471  0.00  0.00    +0.161 C 
ATOM     11  C   UNL     1      35.474 -24.163 -11.361  0.00  0.00    +0.161 C 
ENDBRANCH   2   7
BRANCH   5  12
ATOM     12  N   UNL     1      41.019 -26.598 -14.511  0.00  0.00    -0.231 NA
ATOM     13  H   UNL     1      40.841 -27.517 -14.814  0.00  0.00    +0.173 HD
ENDBRANCH   5  12
TORSDOF 2
ENDMDL
MODEL 5
REMARK VINA RESULT:      -6.3     11.289     11.813
REMARK  Name = 5219
REMARK  2 active torsions:
REMARK  status: ('A' for Active; 'I' for Inactive)
REMARK    1  A    between atoms: N_2  and  N_9
REMARK    2  A    between atoms: N_4  and  C_6
REMARK                            x       y       z     vdW  Elec       q    Type
REMARK                         _______ _______ _______ _____ _____    ______ ____
ROOT
ATOM      1  O   UNL     1      33.715 -15.694 -26.616  0.00  0.00    -0.347 OA
ATOM      2  N   UNL     1      34.246 -15.956 -24.401  0.00  0.00    -0.136 N 
ATOM      3  N   UNL     1      34.510 -16.506 -25.718  0.00  0.00    +0.090 NA
ATOM      4  C   UNL     1      33.431 -14.982 -24.477  0.00  0.00    +0.156 C 
ATOM      5  C   UNL     1      33.054 -14.764 -25.879  0.00  0.00    +0.252 C 
ENDROOT
BRANCH   2   7
ATOM      6  O   UNL     1      35.267 -17.950 -20.773  0.00  0.00    -0.351 OA
ATOM      7  N   UNL     1      34.841 -16.468 -23.170  0.00  0.00    -0.182 NA
ATOM      8  C   UNL     1      34.119 -16.154 -21.932  0.00  0.00    +0.126 C 
ATOM      9  C   UNL     1      35.255 -17.876 -23.197  0.00  0.00    +0.126 C 
ATOM     10  C   UNL     1      34.939 -16.562 -20.712  0.00  0.00    +0.161 C 
ATOM     11  C   UNL     1      36.040 -18.231 -21.939  0.00  0.00    +0.161 C 
ENDBRANCH   2   7
BRANCH   5  12
ATOM     12  N   UNL     1      32.251 -13.863 -26.313  0.00  0.00    -0.231 NA
ATOM     13  H   UNL     1      32.331 -12.936 -25.991  0.00  0.00    +0.173 HD
ENDBRANCH   5  12
TORSDOF 2
ENDMDL
MODEL 6
REMARK VINA RESULT:      -6.2      6.685      9.456
REMARK  Name = 5219
REMARK  2 active torsions:
REMARK  status: ('A' for Active; 'I' for Inactive)
REMARK    1  A    between atoms: N_2  and  N_9
REMARK    2  A    between atoms: N_4  and  C_6
REMARK                            x       y       z     vdW  Elec       q    Type
REMARK                         _______ _______ _______ _____ _____    ______ ____
ROOT
ATOM      1  O   UNL     1      39.270 -26.721 -14.771  0.00  0.00    -0.347 OA
ATOM      2  N   UNL     1      37.534 -25.245 -15.019  0.00  0.00    -0.136 N 
ATOM      3  N   UNL     1      37.839 -26.663 -14.991  0.00  0.00    +0.090 NA
ATOM      4  C   UNL     1      38.589 -24.555 -14.851  0.00  0.00    +0.156 C 
ATOM      5  C   UNL     1      39.741 -25.451 -14.684  0.00  0.00    +0.252 C 
ENDROOT
BRANCH   2   7
ATOM      6  O   UNL     1      33.875 -23.055 -15.039  0.00  0.00    -0.351 OA
ATOM      7  N   UNL     1      36.192 -24.705 -15.220  0.00  0.00    -0.182 NA
ATOM      8  C   UNL     1      35.306 -24.747 -14.051  0.00  0.00    +0.126 C 
ATOM      9  C   UNL     1      36.120 -23.401 -15.889  0.00  0.00    +0.126 C 
ATOM     10  C   UNL     1      33.884 -24.349 -14.438  0.00  0.00    +0.161 C 
ATOM     11  C   UNL     1      34.675 -23.045 -16.221  0.00  0.00    +0.161 C 
ENDBRANCH   2   7
BRANCH   5  12
ATOM     12  N   UNL     1      40.956 -25.089 -14.492  0.00  0.00    -0.231 NA
ATOM     13  H   UNL     1      41.225 -24.157 -14.659  0.00  0.00    +0.173 HD
ENDBRANCH   5  12
TORSDOF 2
ENDMDL
MODEL 7
REMARK VINA RESULT:      -6.2      8.271      9.016
REMARK  Name = 5219
REMARK  2 active torsions:
REMARK  status: ('A' for Active; 'I' for Inactive)
REMARK    1  A    between atoms: N_2  and  N_9
REMARK    2  A    between atoms: N_4  and  C_6
REMARK                            x       y       z     vdW  Elec       q    Type
REMARK                         _______ _______ _______ _____ _____    ______ ____
ROOT
ATOM      1  O   UNL     1      35.347 -16.814 -22.099  0.00  0.00    -0.347 OA
ATOM      2  N   UNL     1      35.060 -18.905 -21.201  0.00  0.00    -0.136 N 
ATOM      3  N   UNL     1      35.263 -17.515 -20.834  0.00  0.00    +0.090 NA
ATOM      4  C   UNL     1      35.028 -19.034 -22.467  0.00  0.00    +0.156 C 
ATOM      5  C   UNL     1      35.206 -17.721 -23.100  0.00  0.00    +0.252 C 
ENDROOT
BRANCH   2   7
ATOM      6  O   UNL     1      34.711 -22.589 -19.083  0.00  0.00    -0.351 OA
ATOM      7  N   UNL     1      34.918 -19.990 -20.235  0.00  0.00    -0.182 NA
ATOM      8  C   UNL     1      33.689 -20.785 -20.343  0.00  0.00    +0.126 C 
ATOM      9  C   UNL     1      36.092 -20.854 -20.067  0.00  0.00    +0.126 C 
ATOM     10  C   UNL     1      33.563 -21.745 -19.164  0.00  0.00    +0.161 C 
ATOM     11  C   UNL     1      35.893 -21.811 -18.896  0.00  0.00    +0.161 C 
ENDBRANCH   2   7
BRANCH   5  12
ATOM     12  N   UNL     1      35.223 -17.488 -24.361  0.00  0.00    -0.231 NA
ATOM     13  H   UNL     1      34.939 -18.185 -24.994  0.00  0.00    +0.173 HD
ENDBRANCH   5  12
TORSDOF 2
ENDMDL
MODEL 8
REMARK VINA RESULT:      -6.1      1.343      2.061
REMARK  Name = 5219
REMARK  2 active torsions:
REMARK  status: ('A' for Active; 'I' for Inactive)
REMARK    1  A    between atoms: N_2  and  N_9
REMARK    2  A    between atoms: N_4  and  C_6
REMARK                            x       y       z     vdW  Elec       q    Type
REMARK                         _______ _______ _______ _____ _____    ______ ____
ROOT
ATOM      1  O   UNL     1      28.335 -21.890 -17.130  0.00  0.00    -0.347 OA
ATOM      2  N   UNL     1      29.739 -23.143 -15.819  0.00  0.00    -0.136 N 
ATOM      3  N   UNL     1      29.716 -22.314 -17.010  0.00  0.00    +0.090 NA
ATOM      4  C   UNL     1      28.579 -23.217 -15.302  0.00  0.00    +0.156 C 
ATOM      5  C   UNL     1      27.632 -22.430 -16.102  0.00  0.00    +0.252 C 
ENDROOT
BRANCH   2   7
ATOM      6  O   UNL     1      33.288 -24.353 -13.790  0.00  0.00    -0.351 OA
ATOM      7  N   UNL     1      30.940 -23.795 -15.305  0.00  0.00    -0.182 NA
ATOM      8  C   UNL     1      32.205 -23.097 -15.560  0.00  0.00    +0.126 C 
ATOM      9  C   UNL     1      30.868 -24.266 -13.917  0.00  0.00    +0.126 C 
ATOM     10  C   UNL     1      33.391 -23.969 -15.160  0.00  0.00    +0.161 C 
ATOM     11  C   UNL     1      32.094 -25.102 -13.567  0.00  0.00    +0.161 C 
ENDBRANCH   2   7
BRANCH   5  12
ATOM     12  N   UNL     1      26.380 -22.286 -15.863  0.00  0.00    -0.231 NA
ATOM     13  H   UNL     1      25.938 -21.428 -16.053  0.00  0.00    +0.173 HD
ENDBRANCH   5  12
TORSDOF 2
ENDMDL
MODEL 9
REMARK VINA RESULT:      -6.0      7.383      8.167
REMARK  Name = 5219
REMARK  2 active torsions:
REMARK  status: ('A' for Active; 'I' for Inactive)
REMARK    1  A    between atoms: N_2  and  N_9
REMARK    2  A    between atoms: N_4  and  C_6
REMARK                            x       y       z     vdW  Elec       q    Type
REMARK                         _______ _______ _______ _____ _____    ______ ____
ROOT
ATOM      1  O   UNL     1      35.382 -22.761 -17.264  0.00  0.00    -0.347 OA
ATOM      2  N   UNL     1      36.696 -23.443 -15.513  0.00  0.00    -0.136 N 
ATOM      3  N   UNL     1      35.429 -23.709 -16.169  0.00  0.00    +0.090 NA
ATOM      4  C   UNL     1      37.315 -22.499 -16.099  0.00  0.00    +0.156 C 
ATOM      5  C   UNL     1      36.519 -22.019 -17.236  0.00  0.00    +0.252 C 
ENDROOT
BRANCH   2   7
ATOM      6  O   UNL     1      37.264 -25.488 -11.816  0.00  0.00    -0.351 OA
ATOM      7  N   UNL     1      37.174 -24.170 -14.341  0.00  0.00    -0.182 NA
ATOM      8  C   UNL     1      37.171 -23.420 -13.080  0.00  0.00    +0.126 C 
ATOM      9  C   UNL     1      36.623 -25.517 -14.155  0.00  0.00    +0.126 C 
ATOM     10  C   UNL     1      37.876 -24.210 -11.981  0.00  0.00    +0.161 C 
ATOM     11  C   UNL     1      37.344 -26.243 -13.024  0.00  0.00    +0.161 C 
ENDBRANCH   2   7
BRANCH   5  12
ATOM     12  N   UNL     1      36.847 -21.077 -18.043  0.00  0.00    -0.231 NA
ATOM     13  H   UNL     1      36.316 -20.249 -18.074  0.00  0.00    +0.173 HD
ENDBRANCH   5  12
TORSDOF 2
ENDMDL
