MODEL 1
REMARK VINA RESULT:      -9.4      0.000      0.000
REMARK  Name = 5723
REMARK  4 active torsions:
REMARK  status: ('A' for Active; 'I' for Inactive)
REMARK    1  A    between atoms: C_1  and  C_10
REMARK    2  A    between atoms: C_3  and  O_15
REMARK    3  A    between atoms: C_4  and  O_17
REMARK    4  A    between atoms: O_17  and  C_20
REMARK                            x       y       z     vdW  Elec       q    Type
REMARK                         _______ _______ _______ _____ _____    ______ ____
ROOT
ATOM      1  C   UNL     1      34.786 -18.615 -22.633  0.00  0.00    +0.022 C 
ATOM      2  C   UNL     1      34.946 -17.242 -22.450  0.00  0.00    +0.042 C 
ATOM      3  C   UNL     1      34.849 -16.378 -23.542  0.00  0.00    +0.173 C 
ATOM      4  C   UNL     1      34.592 -16.888 -24.814  0.00  0.00    +0.178 C 
ATOM      5  C   UNL     1      34.531 -19.125 -23.905  0.00  0.00    +0.005 C 
ATOM      6  C   UNL     1      34.433 -18.262 -24.996  0.00  0.00    +0.040 C 
ENDROOT
BRANCH   1  10
ATOM      7  O   UNL     1      35.112 -22.022 -18.382  0.00  0.00    -0.268 OA
ATOM      8  N   UNL     1      36.055 -19.763 -20.950  0.00  0.00    -0.179 NA
ATOM      9  N   UNL     1      36.110 -20.611 -19.896  0.00  0.00    -0.202 N 
ATOM     10  C   UNL     1      34.889 -19.537 -21.469  0.00  0.00    +0.099 C 
ATOM     11  C   UNL     1      33.624 -20.123 -20.972  0.00  0.00    +0.025 C 
ATOM     12  C   UNL     1      33.714 -20.954 -19.934  0.00  0.00    +0.061 C 
ATOM     13  C   UNL     1      35.030 -21.248 -19.334  0.00  0.00    +0.265 C 
ATOM     14  H   UNL     1      36.995 -20.785 -19.501  0.00  0.00    +0.178 HD
ENDBRANCH   1  10
BRANCH   3  15
ATOM     15  O   UNL     1      35.007 -15.038 -23.351  0.00  0.00    -0.468 OA
ATOM     16  C   UNL     1      34.259 -14.442 -22.292  0.00  0.00    +0.253 C 
ENDBRANCH   3  15
BRANCH   4  17
ATOM     17  O   UNL     1      34.497 -16.054 -25.888  0.00  0.00    -0.421 OA
BRANCH  17  20
ATOM     18  F   UNL     1      33.541 -14.287 -26.884  0.00  0.00    -0.155 F 
ATOM     19  F   UNL     1      32.366 -16.102 -26.650  0.00  0.00    -0.155 F 
ATOM     20  C   UNL     1      33.288 -15.320 -26.039  0.00  0.00    +0.509 C 
ENDBRANCH  17  20
ENDBRANCH   4  17
TORSDOF 4
ENDMDL
MODEL 2
REMARK VINA RESULT:      -9.4      4.552      7.781
REMARK  Name = 5723
REMARK  4 active torsions:
REMARK  status: ('A' for Active; 'I' for Inactive)
REMARK    1  A    between atoms: C_1  and  C_10
REMARK    2  A    between atoms: C_3  and  O_15
REMARK    3  A    between atoms: C_4  and  O_17
REMARK    4  A    between atoms: O_17  and  C_20
REMARK                            x       y       z     vdW  Elec       q    Type
REMARK                         _______ _______ _______ _____ _____    ______ ____
ROOT
ATOM      1  C   UNL     1      34.672 -20.012 -20.521  0.00  0.00    +0.022 C 
ATOM      2  C   UNL     1      35.772 -20.561 -19.863  0.00  0.00    +0.042 C 
ATOM      3  C   UNL     1      35.609 -21.685 -19.052  0.00  0.00    +0.173 C 
ATOM      4  C   UNL     1      34.348 -22.259 -18.900  0.00  0.00    +0.178 C 
ATOM      5  C   UNL     1      33.410 -20.586 -20.368  0.00  0.00    +0.005 C 
ATOM      6  C   UNL     1      33.248 -21.710 -19.559  0.00  0.00    +0.040 C 
ENDROOT
BRANCH   1  10
ATOM      7  O   UNL     1      35.279 -15.646 -23.738  0.00  0.00    -0.268 OA
ATOM      8  N   UNL     1      34.952 -17.649 -20.828  0.00  0.00    -0.179 NA
ATOM      9  N   UNL     1      35.103 -16.581 -21.647  0.00  0.00    -0.202 N 
ATOM     10  C   UNL     1      34.844 -18.814 -21.386  0.00  0.00    +0.099 C 
ATOM     11  C   UNL     1      34.899 -19.051 -22.846  0.00  0.00    +0.025 C 
ATOM     12  C   UNL     1      35.046 -17.978 -23.623  0.00  0.00    +0.061 C 
ATOM     13  C   UNL     1      35.151 -16.636 -23.019  0.00  0.00    +0.265 C 
ATOM     14  H   UNL     1      35.184 -15.695 -21.225  0.00  0.00    +0.178 HD
ENDBRANCH   1  10
BRANCH   3  15
ATOM     15  O   UNL     1      36.692 -22.212 -18.414  0.00  0.00    -0.468 OA
ATOM     16  C   UNL     1      37.019 -21.670 -17.136  0.00  0.00    +0.253 C 
ENDBRANCH   3  15
BRANCH   4  17
ATOM     17  O   UNL     1      34.177 -23.356 -18.110  0.00  0.00    -0.421 OA
BRANCH  17  20
ATOM     18  F   UNL     1      32.300 -23.567 -16.902  0.00  0.00    -0.155 F 
ATOM     19  F   UNL     1      34.204 -23.958 -15.929  0.00  0.00    -0.155 F 
ATOM     20  C   UNL     1      33.591 -23.154 -16.830  0.00  0.00    +0.509 C 
ENDBRANCH  17  20
ENDBRANCH   4  17
TORSDOF 4
ENDMDL
MODEL 3
REMARK VINA RESULT:      -9.4      1.708      1.994
REMARK  Name = 5723
REMARK  4 active torsions:
REMARK  status: ('A' for Active; 'I' for Inactive)
REMARK    1  A    between atoms: C_1  and  C_10
REMARK    2  A    between atoms: C_3  and  O_15
REMARK    3  A    between atoms: C_4  and  O_17
REMARK    4  A    between atoms: O_17  and  C_20
REMARK                            x       y       z     vdW  Elec       q    Type
REMARK                         _______ _______ _______ _____ _____    ______ ____
ROOT
ATOM      1  C   UNL     1      34.439 -19.138 -21.479  0.00  0.00    +0.022 C 
ATOM      2  C   UNL     1      34.444 -17.843 -20.963  0.00  0.00    +0.042 C 
ATOM      3  C   UNL     1      34.622 -16.753 -21.816  0.00  0.00    +0.173 C 
ATOM      4  C   UNL     1      34.795 -16.959 -23.184  0.00  0.00    +0.178 C 
ATOM      5  C   UNL     1      34.613 -19.344 -22.847  0.00  0.00    +0.005 C 
ATOM      6  C   UNL     1      34.790 -18.255 -23.700  0.00  0.00    +0.040 C 
ENDROOT
BRANCH   1  10
ATOM      7  O   UNL     1      33.794 -23.389 -18.120  0.00  0.00    -0.268 OA
ATOM      8  N   UNL     1      33.045 -20.713 -20.324  0.00  0.00    -0.179 NA
ATOM      9  N   UNL     1      32.911 -21.770 -19.489  0.00  0.00    -0.202 N 
ATOM     10  C   UNL     1      34.249 -20.300 -20.570  0.00  0.00    +0.099 C 
ATOM     11  C   UNL     1      35.475 -20.921 -20.019  0.00  0.00    +0.025 C 
ATOM     12  C   UNL     1      35.307 -21.957 -19.199  0.00  0.00    +0.061 C 
ATOM     13  C   UNL     1      33.948 -22.438 -18.883  0.00  0.00    +0.265 C 
ATOM     14  H   UNL     1      31.997 -22.084 -19.300  0.00  0.00    +0.178 HD
ENDBRANCH   1  10
BRANCH   3  15
ATOM     15  O   UNL     1      34.624 -15.492 -21.299  0.00  0.00    -0.468 OA
ATOM     16  C   UNL     1      33.387 -14.998 -20.789  0.00  0.00    +0.253 C 
ENDBRANCH   3  15
BRANCH   4  17
ATOM     17  O   UNL     1      34.971 -15.903 -24.027  0.00  0.00    -0.421 OA
BRANCH  17  20
ATOM     18  F   UNL     1      33.838 -14.023 -24.486  0.00  0.00    -0.155 F 
ATOM     19  F   UNL     1      33.890 -15.592 -25.991  0.00  0.00    -0.155 F 
ATOM     20  C   UNL     1      33.812 -15.370 -24.657  0.00  0.00    +0.509 C 
ENDBRANCH  17  20
ENDBRANCH   4  17
TORSDOF 4
ENDMDL
MODEL 4
REMARK VINA RESULT:      -9.3      1.171      1.347
REMARK  Name = 5723
REMARK  4 active torsions:
REMARK  status: ('A' for Active; 'I' for Inactive)
REMARK    1  A    between atoms: C_1  and  C_10
REMARK    2  A    between atoms: C_3  and  O_15
REMARK    3  A    between atoms: C_4  and  O_17
REMARK    4  A    between atoms: O_17  and  C_20
REMARK                            x       y       z     vdW  Elec       q    Type
REMARK                         _______ _______ _______ _____ _____    ______ ____
ROOT
ATOM      1  C   UNL     1      34.782 -18.736 -21.567  0.00  0.00    +0.022 C 
ATOM      2  C   UNL     1      34.739 -17.437 -21.063  0.00  0.00    +0.042 C 
ATOM      3  C   UNL     1      34.746 -16.349 -21.938  0.00  0.00    +0.173 C 
ATOM      4  C   UNL     1      34.795 -16.563 -23.315  0.00  0.00    +0.178 C 
ATOM      5  C   UNL     1      34.832 -18.949 -22.944  0.00  0.00    +0.005 C 
ATOM      6  C   UNL     1      34.838 -17.863 -23.818  0.00  0.00    +0.040 C 
ENDROOT
BRANCH   1  10
ATOM      7  O   UNL     1      34.701 -23.008 -18.172  0.00  0.00    -0.268 OA
ATOM      8  N   UNL     1      35.898 -20.312 -20.144  0.00  0.00    -0.179 NA
ATOM      9  N   UNL     1      35.853 -21.373 -19.303  0.00  0.00    -0.202 N 
ATOM     10  C   UNL     1      34.774 -19.895 -20.635  0.00  0.00    +0.099 C 
ATOM     11  C   UNL     1      33.453 -20.485 -20.319  0.00  0.00    +0.025 C 
ATOM     12  C   UNL     1      33.444 -21.529 -19.490  0.00  0.00    +0.061 C 
ATOM     13  C   UNL     1      34.710 -22.040 -18.930  0.00  0.00    +0.265 C 
ATOM     14  H   UNL     1      36.706 -21.691 -18.929  0.00  0.00    +0.178 HD
ENDBRANCH   1  10
BRANCH   3  15
ATOM     15  O   UNL     1      34.703 -15.084 -21.433  0.00  0.00    -0.468 OA
ATOM     16  C   UNL     1      33.441 -14.618 -20.958  0.00  0.00    +0.253 C 
ENDBRANCH   3  15
BRANCH   4  17
ATOM     17  O   UNL     1      34.804 -15.509 -24.179  0.00  0.00    -0.421 OA
BRANCH  17  20
ATOM     18  F   UNL     1      33.507 -13.816 -24.871  0.00  0.00    -0.155 F 
ATOM     19  F   UNL     1      33.593 -15.616 -26.088  0.00  0.00    -0.155 F 
ATOM     20  C   UNL     1      33.575 -15.171 -24.808  0.00  0.00    +0.509 C 
ENDBRANCH  17  20
ENDBRANCH   4  17
TORSDOF 4
ENDMDL
MODEL 5
REMARK VINA RESULT:      -9.0      1.597      2.542
REMARK  Name = 5723
REMARK  4 active torsions:
REMARK  status: ('A' for Active; 'I' for Inactive)
REMARK    1  A    between atoms: C_1  and  C_10
REMARK    2  A    between atoms: C_3  and  O_15
REMARK    3  A    between atoms: C_4  and  O_17
REMARK    4  A    between atoms: O_17  and  C_20
REMARK                            x       y       z     vdW  Elec       q    Type
REMARK                         _______ _______ _______ _____ _____    ______ ____
ROOT
ATOM      1  C   UNL     1      34.783 -17.566 -21.596  0.00  0.00    +0.022 C 
ATOM      2  C   UNL     1      34.845 -17.495 -22.987  0.00  0.00    +0.042 C 
ATOM      3  C   UNL     1      34.717 -16.262 -23.628  0.00  0.00    +0.173 C 
ATOM      4  C   UNL     1      34.527 -15.102 -22.878  0.00  0.00    +0.178 C 
ATOM      5  C   UNL     1      34.591 -16.407 -20.846  0.00  0.00    +0.005 C 
ATOM      6  C   UNL     1      34.465 -15.175 -21.486  0.00  0.00    +0.040 C 
ENDROOT
BRANCH   1  10
ATOM      7  O   UNL     1      35.237 -22.406 -19.116  0.00  0.00    -0.268 OA
ATOM      8  N   UNL     1      36.089 -19.248 -20.489  0.00  0.00    -0.179 NA
ATOM      9  N   UNL     1      36.176 -20.452 -19.876  0.00  0.00    -0.202 N 
ATOM     10  C   UNL     1      34.920 -18.881 -20.912  0.00  0.00    +0.099 C 
ATOM     11  C   UNL     1      33.683 -19.677 -20.748  0.00  0.00    +0.025 C 
ATOM     12  C   UNL     1      33.804 -20.857 -20.142  0.00  0.00    +0.061 C 
ATOM     13  C   UNL     1      35.125 -21.313 -19.667  0.00  0.00    +0.265 C 
ATOM     14  H   UNL     1      37.063 -20.733 -19.555  0.00  0.00    +0.178 HD
ENDBRANCH   1  10
BRANCH   3  15
ATOM     15  O   UNL     1      34.780 -16.205 -24.989  0.00  0.00    -0.468 OA
ATOM     16  C   UNL     1      33.558 -15.969 -25.685  0.00  0.00    +0.253 C 
ENDBRANCH   3  15
BRANCH   4  17
ATOM     17  O   UNL     1      34.399 -13.893 -23.493  0.00  0.00    -0.421 OA
BRANCH  17  20
ATOM     18  F   UNL     1      33.288 -11.995 -23.932  0.00  0.00    -0.155 F 
ATOM     19  F   UNL     1      32.140 -13.767 -23.412  0.00  0.00    -0.155 F 
ATOM     20  C   UNL     1      33.281 -13.092 -23.131  0.00  0.00    +0.509 C 
ENDBRANCH  17  20
ENDBRANCH   4  17
TORSDOF 4
ENDMDL
MODEL 6
REMARK VINA RESULT:      -9.0      2.003      2.931
REMARK  Name = 5723
REMARK  4 active torsions:
REMARK  status: ('A' for Active; 'I' for Inactive)
REMARK    1  A    between atoms: C_1  and  C_10
REMARK    2  A    between atoms: C_3  and  O_15
REMARK    3  A    between atoms: C_4  and  O_17
REMARK    4  A    between atoms: O_17  and  C_20
REMARK                            x       y       z     vdW  Elec       q    Type
REMARK                         _______ _______ _______ _____ _____    ______ ____
ROOT
ATOM      1  C   UNL     1      34.533 -18.882 -21.367  0.00  0.00    +0.022 C 
ATOM      2  C   UNL     1      34.688 -18.916 -22.752  0.00  0.00    +0.042 C 
ATOM      3  C   UNL     1      34.931 -17.735 -23.455  0.00  0.00    +0.173 C 
ATOM      4  C   UNL     1      35.018 -16.522 -22.772  0.00  0.00    +0.178 C 
ATOM      5  C   UNL     1      34.618 -17.670 -20.684  0.00  0.00    +0.005 C 
ATOM      6  C   UNL     1      34.862 -16.490 -21.387  0.00  0.00    +0.040 C 
ENDROOT
BRANCH   1  10
ATOM      7  O   UNL     1      33.637 -23.491 -18.586  0.00  0.00    -0.268 OA
ATOM      8  N   UNL     1      33.056 -20.566 -20.508  0.00  0.00    -0.179 NA
ATOM      9  N   UNL     1      32.858 -21.713 -19.815  0.00  0.00    -0.202 N 
ATOM     10  C   UNL     1      34.275 -20.141 -20.618  0.00  0.00    +0.099 C 
ATOM     11  C   UNL     1      35.456 -20.836 -20.058  0.00  0.00    +0.025 C 
ATOM     12  C   UNL     1      35.227 -21.959 -19.379  0.00  0.00    +0.061 C 
ATOM     13  C   UNL     1      33.848 -22.459 -19.220  0.00  0.00    +0.265 C 
ATOM     14  H   UNL     1      31.933 -22.037 -19.730  0.00  0.00    +0.178 HD
ENDBRANCH   1  10
BRANCH   3  15
ATOM     15  O   UNL     1      35.082 -17.781 -24.809  0.00  0.00    -0.468 OA
ATOM     16  C   UNL     1      33.893 -17.728 -25.596  0.00  0.00    +0.253 C 
ENDBRANCH   3  15
BRANCH   4  17
ATOM     17  O   UNL     1      35.253 -15.363 -23.448  0.00  0.00    -0.421 OA
BRANCH  17  20
ATOM     18  F   UNL     1      33.017 -15.193 -23.463  0.00  0.00    -0.155 F 
ATOM     19  F   UNL     1      34.171 -13.556 -22.618  0.00  0.00    -0.155 F 
ATOM     20  C   UNL     1      34.157 -14.472 -23.617  0.00  0.00    +0.509 C 
ENDBRANCH  17  20
ENDBRANCH   4  17
TORSDOF 4
ENDMDL
MODEL 7
REMARK VINA RESULT:      -8.8      8.029     10.185
REMARK  Name = 5723
REMARK  4 active torsions:
REMARK  status: ('A' for Active; 'I' for Inactive)
REMARK    1  A    between atoms: C_1  and  C_10
REMARK    2  A    between atoms: C_3  and  O_15
REMARK    3  A    between atoms: C_4  and  O_17
REMARK    4  A    between atoms: O_17  and  C_20
REMARK                            x       y       z     vdW  Elec       q    Type
REMARK                         _______ _______ _______ _____ _____    ______ ____
ROOT
ATOM      1  C   UNL     1      33.059 -23.797 -14.847  0.00  0.00    +0.022 C 
ATOM      2  C   UNL     1      33.249 -23.388 -16.166  0.00  0.00    +0.042 C 
ATOM      3  C   UNL     1      32.165 -22.927 -16.916  0.00  0.00    +0.173 C 
ATOM      4  C   UNL     1      30.894 -22.877 -16.345  0.00  0.00    +0.178 C 
ATOM      5  C   UNL     1      31.787 -23.748 -14.277  0.00  0.00    +0.005 C 
ATOM      6  C   UNL     1      30.705 -23.287 -15.026  0.00  0.00    +0.040 C 
ENDROOT
BRANCH   1  10
ATOM      7  O   UNL     1      37.330 -25.582 -11.957  0.00  0.00    -0.268 OA
ATOM      8  N   UNL     1      34.115 -24.311 -12.755  0.00  0.00    -0.179 NA
ATOM      9  N   UNL     1      35.188 -24.759 -12.060  0.00  0.00    -0.202 N 
ATOM     10  C   UNL     1      34.213 -24.288 -14.047  0.00  0.00    +0.099 C 
ATOM     11  C   UNL     1      35.403 -24.738 -14.804  0.00  0.00    +0.025 C 
ATOM     12  C   UNL     1      36.442 -25.171 -14.090  0.00  0.00    +0.061 C 
ATOM     13  C   UNL     1      36.369 -25.190 -12.615  0.00  0.00    +0.265 C 
ATOM     14  H   UNL     1      35.115 -24.777 -11.078  0.00  0.00    +0.178 HD
ENDBRANCH   1  10
BRANCH   3  15
ATOM     15  O   UNL     1      32.364 -22.529 -18.204  0.00  0.00    -0.468 OA
ATOM     16  C   UNL     1      33.712 -22.488 -18.668  0.00  0.00    +0.253 C 
ENDBRANCH   3  15
BRANCH   4  17
ATOM     17  O   UNL     1      29.829 -22.430 -17.068  0.00  0.00    -0.421 OA
BRANCH  17  20
ATOM     18  F   UNL     1      27.630 -22.005 -17.180  0.00  0.00    -0.155 F 
ATOM     19  F   UNL     1      28.286 -24.076 -17.251  0.00  0.00    -0.155 F 
ATOM     20  C   UNL     1      28.538 -22.877 -16.672  0.00  0.00    +0.509 C 
ENDBRANCH  17  20
ENDBRANCH   4  17
TORSDOF 4
ENDMDL
MODEL 8
REMARK VINA RESULT:      -8.6      7.432      9.807
REMARK  Name = 5723
REMARK  4 active torsions:
REMARK  status: ('A' for Active; 'I' for Inactive)
REMARK    1  A    between atoms: C_1  and  C_10
REMARK    2  A    between atoms: C_3  and  O_15
REMARK    3  A    between atoms: C_4  and  O_17
REMARK    4  A    between atoms: O_17  and  C_20
REMARK                            x       y       z     vdW  Elec       q    Type
REMARK                         _______ _______ _______ _____ _____    ______ ____
ROOT
ATOM      1  C   UNL     1      34.223 -23.665 -15.525  0.00  0.00    +0.022 C 
ATOM      2  C   UNL     1      34.039 -23.196 -16.825  0.00  0.00    +0.042 C 
ATOM      3  C   UNL     1      32.755 -22.897 -17.283  0.00  0.00    +0.173 C 
ATOM      4  C   UNL     1      31.657 -23.069 -16.441  0.00  0.00    +0.178 C 
ATOM      5  C   UNL     1      33.125 -23.838 -14.683  0.00  0.00    +0.005 C 
ATOM      6  C   UNL     1      31.842 -23.539 -15.141  0.00  0.00    +0.040 C 
ENDROOT
BRANCH   1  10
ATOM      7  O   UNL     1      39.220 -24.869 -13.692  0.00  0.00    -0.268 OA
ATOM      8  N   UNL     1      36.603 -23.765 -15.817  0.00  0.00    -0.179 NA
ATOM      9  N   UNL     1      37.833 -24.071 -15.340  0.00  0.00    -0.202 N 
ATOM     10  C   UNL     1      35.592 -23.983 -15.036  0.00  0.00    +0.099 C 
ATOM     11  C   UNL     1      35.699 -24.516 -13.659  0.00  0.00    +0.025 C 
ATOM     12  C   UNL     1      36.923 -24.809 -13.221  0.00  0.00    +0.061 C 
ATOM     13  C   UNL     1      38.092 -24.592 -14.095  0.00  0.00    +0.265 C 
ATOM     14  H   UNL     1      38.601 -23.907 -15.932  0.00  0.00    +0.178 HD
ENDBRANCH   1  10
BRANCH   3  15
ATOM     15  O   UNL     1      32.589 -22.438 -18.555  0.00  0.00    -0.468 OA
ATOM     16  C   UNL     1      33.768 -22.082 -19.275  0.00  0.00    +0.253 C 
ENDBRANCH   3  15
BRANCH   4  17
ATOM     17  O   UNL     1      30.399 -22.783 -16.878  0.00  0.00    -0.421 OA
BRANCH  17  20
ATOM     18  F   UNL     1      28.424 -22.000 -16.161  0.00  0.00    -0.155 F 
ATOM     19  F   UNL     1      28.699 -24.153 -16.281  0.00  0.00    -0.155 F 
ATOM     20  C   UNL     1      29.327 -22.994 -15.967  0.00  0.00    +0.509 C 
ENDBRANCH  17  20
ENDBRANCH   4  17
TORSDOF 4
ENDMDL
MODEL 9
REMARK VINA RESULT:      -8.5      5.381      7.471
REMARK  Name = 5723
REMARK  4 active torsions:
REMARK  status: ('A' for Active; 'I' for Inactive)
REMARK    1  A    between atoms: C_1  and  C_10
REMARK    2  A    between atoms: C_3  and  O_15
REMARK    3  A    between atoms: C_4  and  O_17
REMARK    4  A    between atoms: O_17  and  C_20
REMARK                            x       y       z     vdW  Elec       q    Type
REMARK                         _______ _______ _______ _____ _____    ______ ____
ROOT
ATOM      1  C   UNL     1      33.102 -12.571 -23.614  0.00  0.00    +0.022 C 
ATOM      2  C   UNL     1      32.195 -12.499 -22.558  0.00  0.00    +0.042 C 
ATOM      3  C   UNL     1      31.805 -11.255 -22.058  0.00  0.00    +0.173 C 
ATOM      4  C   UNL     1      32.322 -10.086 -22.616  0.00  0.00    +0.178 C 
ATOM      5  C   UNL     1      33.620 -11.402 -24.171  0.00  0.00    +0.005 C 
ATOM      6  C   UNL     1      33.229 -10.160 -23.673  0.00  0.00    +0.040 C 
ENDROOT
BRANCH   1  10
ATOM      7  O   UNL     1      34.633 -17.452 -25.515  0.00  0.00    -0.268 OA
ATOM      8  N   UNL     1      33.118 -14.250 -25.329  0.00  0.00    -0.179 NA
ATOM      9  N   UNL     1      33.512 -15.465 -25.779  0.00  0.00    -0.202 N 
ATOM     10  C   UNL     1      33.517 -13.897 -24.148  0.00  0.00    +0.099 C 
ATOM     11  C   UNL     1      34.388 -14.720 -23.279  0.00  0.00    +0.025 C 
ATOM     12  C   UNL     1      34.756 -15.910 -23.751  0.00  0.00    +0.061 C 
ATOM     13  C   UNL     1      34.300 -16.350 -25.084  0.00  0.00    +0.265 C 
ATOM     14  H   UNL     1      33.208 -15.735 -26.676  0.00  0.00    +0.178 HD
ENDBRANCH   1  10
BRANCH   3  15
ATOM     15  O   UNL     1      30.918 -11.198 -21.025  0.00  0.00    -0.468 OA
ATOM     16  C   UNL     1      31.444 -11.358 -19.709  0.00  0.00    +0.253 C 
ENDBRANCH   3  15
BRANCH   4  17
ATOM     17  O   UNL     1      31.950  -8.867 -22.135  0.00  0.00    -0.421 OA
BRANCH  17  20
ATOM     18  F   UNL     1      32.660  -6.798 -21.644  0.00  0.00    -0.155 F 
ATOM     19  F   UNL     1      32.800  -8.330 -20.107  0.00  0.00    -0.155 F 
ATOM     20  C   UNL     1      32.933  -8.112 -21.438  0.00  0.00    +0.509 C 
ENDBRANCH  17  20
ENDBRANCH   4  17
TORSDOF 4
ENDMDL
