MODEL 1
REMARK VINA RESULT:      -8.0      0.000      0.000
REMARK  Name = 5373773
REMARK  8 active torsions:
REMARK  status: ('A' for Active; 'I' for Inactive)
REMARK    1  A    between atoms: C_1  and  C_3
REMARK    2  A    between atoms: C_2  and  C_12
REMARK    3  A    between atoms: C_6  and  O_9
REMARK    4  A    between atoms: C_12  and  O_13
REMARK    5  A    between atoms: O_13  and  C_14
REMARK    6  A    between atoms: C_14  and  C_15
REMARK    7  A    between atoms: C_15  and  O_16
REMARK    8  A    between atoms: O_16  and  C_17
REMARK                            x       y       z     vdW  Elec       q    Type
REMARK                         _______ _______ _______ _____ _____    ______ ____
ROOT
ATOM      1  C   UNL     1      34.540 -18.750 -22.127  0.00  0.00    +0.007 C 
ATOM      2  C   UNL     1      34.771 -18.948 -23.445  0.00  0.00    +0.082 C 
ENDROOT
BRANCH   1   3
ATOM      3  C   UNL     1      34.556 -19.786 -21.108  0.00  0.00    +0.000 C 
ATOM      4  C   UNL     1      33.354 -20.265 -20.584  0.00  0.00    +0.003 C 
ATOM      5  C   UNL     1      35.770 -20.301 -20.653  0.00  0.00    +0.003 C 
ATOM      6  C   UNL     1      34.582 -21.775 -19.151  0.00  0.00    +0.139 C 
ATOM      7  C   UNL     1      33.368 -21.260 -19.605  0.00  0.00    +0.037 C 
ATOM      8  C   UNL     1      35.783 -21.295 -19.675  0.00  0.00    +0.037 C 
BRANCH   6   9
ATOM      9  O   UNL     1      34.596 -22.745 -18.196  0.00  0.00    -0.471 OA
ATOM     10  C   UNL     1      33.336 -23.136 -17.650  0.00  0.00    +0.252 C 
ENDBRANCH   6   9
ENDBRANCH   1   3
BRANCH   2  12
ATOM     11  O   UNL     1      34.484 -17.889 -25.584  0.00  0.00    -0.245 OA
ATOM     12  C   UNL     1      34.716 -17.809 -24.389  0.00  0.00    +0.341 C 
BRANCH  12  13
ATOM     13  O   UNL     1      34.970 -16.675 -23.680  0.00  0.00    -0.443 OA
BRANCH  13  14
ATOM     14  C   UNL     1      34.247 -15.514 -24.097  0.00  0.00    +0.241 C 
BRANCH  14  15
ATOM     15  C   UNL     1      33.543 -14.911 -22.897  0.00  0.00    +0.189 C 
BRANCH  15  16
ATOM     16  O   UNL     1      34.510 -14.596 -21.903  0.00  0.00    -0.350 OA
BRANCH  16  17
ATOM     17  C   UNL     1      34.133 -15.102 -20.630  0.00  0.00    +0.142 C 
ATOM     18  C   UNL     1      32.682 -15.531 -20.679  0.00  0.00    +0.035 C 
ENDBRANCH  16  17
ENDBRANCH  15  16
ENDBRANCH  14  15
ENDBRANCH  13  14
ENDBRANCH  12  13
ENDBRANCH   2  12
TORSDOF 8
ENDMDL
MODEL 2
REMARK VINA RESULT:      -8.0      0.094      1.143
REMARK  Name = 5373773
REMARK  8 active torsions:
REMARK  status: ('A' for Active; 'I' for Inactive)
REMARK    1  A    between atoms: C_1  and  C_3
REMARK    2  A    between atoms: C_2  and  C_12
REMARK    3  A    between atoms: C_6  and  O_9
REMARK    4  A    between atoms: C_12  and  O_13
REMARK    5  A    between atoms: O_13  and  C_14
REMARK    6  A    between atoms: C_14  and  C_15
REMARK    7  A    between atoms: C_15  and  O_16
REMARK    8  A    between atoms: O_16  and  C_17
REMARK                            x       y       z     vdW  Elec       q    Type
REMARK                         _______ _______ _______ _____ _____    ______ ____
ROOT
ATOM      1  C   UNL     1      34.509 -18.761 -22.141  0.00  0.00    +0.007 C 
ATOM      2  C   UNL     1      34.789 -18.944 -23.452  0.00  0.00    +0.082 C 
ENDROOT
BRANCH   1   3
ATOM      3  C   UNL     1      34.530 -19.802 -21.125  0.00  0.00    +0.000 C 
ATOM      4  C   UNL     1      35.748 -20.326 -20.692  0.00  0.00    +0.003 C 
ATOM      5  C   UNL     1      33.334 -20.275 -20.585  0.00  0.00    +0.003 C 
ATOM      6  C   UNL     1      34.573 -21.798 -19.177  0.00  0.00    +0.139 C 
ATOM      7  C   UNL     1      35.769 -21.326 -19.717  0.00  0.00    +0.037 C 
ATOM      8  C   UNL     1      33.356 -21.273 -19.612  0.00  0.00    +0.037 C 
BRANCH   6   9
ATOM      9  O   UNL     1      34.592 -22.772 -18.227  0.00  0.00    -0.471 OA
ATOM     10  C   UNL     1      33.342 -23.130 -17.638  0.00  0.00    +0.252 C 
ENDBRANCH   6   9
ENDBRANCH   1   3
BRANCH   2  12
ATOM     11  O   UNL     1      34.578 -17.888 -25.601  0.00  0.00    -0.245 OA
ATOM     12  C   UNL     1      34.724 -17.803 -24.392  0.00  0.00    +0.341 C 
BRANCH  12  13
ATOM     13  O   UNL     1      34.854 -16.661 -23.662  0.00  0.00    -0.443 OA
BRANCH  13  14
ATOM     14  C   UNL     1      34.095 -15.543 -24.131  0.00  0.00    +0.241 C 
BRANCH  14  15
ATOM     15  C   UNL     1      33.574 -14.764 -22.938  0.00  0.00    +0.189 C 
BRANCH  15  16
ATOM     16  O   UNL     1      34.573 -14.740 -21.928  0.00  0.00    -0.350 OA
BRANCH  16  17
ATOM     17  C   UNL     1      34.016 -14.954 -20.638  0.00  0.00    +0.142 C 
ATOM     18  C   UNL     1      32.635 -15.554 -20.790  0.00  0.00    +0.035 C 
ENDBRANCH  16  17
ENDBRANCH  15  16
ENDBRANCH  14  15
ENDBRANCH  13  14
ENDBRANCH  12  13
ENDBRANCH   2  12
TORSDOF 8
ENDMDL
MODEL 3
REMARK VINA RESULT:      -7.8      1.056      1.985
REMARK  Name = 5373773
REMARK  8 active torsions:
REMARK  status: ('A' for Active; 'I' for Inactive)
REMARK    1  A    between atoms: C_1  and  C_3
REMARK    2  A    between atoms: C_2  and  C_12
REMARK    3  A    between atoms: C_6  and  O_9
REMARK    4  A    between atoms: C_12  and  O_13
REMARK    5  A    between atoms: O_13  and  C_14
REMARK    6  A    between atoms: C_14  and  C_15
REMARK    7  A    between atoms: C_15  and  O_16
REMARK    8  A    between atoms: O_16  and  C_17
REMARK                            x       y       z     vdW  Elec       q    Type
REMARK                         _______ _______ _______ _____ _____    ______ ____
ROOT
ATOM      1  C   UNL     1      34.500 -18.758 -22.077  0.00  0.00    +0.007 C 
ATOM      2  C   UNL     1      34.908 -18.897 -23.359  0.00  0.00    +0.082 C 
ENDROOT
BRANCH   1   3
ATOM      3  C   UNL     1      34.523 -19.807 -21.071  0.00  0.00    +0.000 C 
ATOM      4  C   UNL     1      35.742 -20.333 -20.642  0.00  0.00    +0.003 C 
ATOM      5  C   UNL     1      33.328 -20.288 -20.536  0.00  0.00    +0.003 C 
ATOM      6  C   UNL     1      34.569 -21.821 -19.141  0.00  0.00    +0.139 C 
ATOM      7  C   UNL     1      35.765 -21.341 -19.676  0.00  0.00    +0.037 C 
ATOM      8  C   UNL     1      33.351 -21.295 -19.571  0.00  0.00    +0.037 C 
BRANCH   6   9
ATOM      9  O   UNL     1      34.591 -22.804 -18.200  0.00  0.00    -0.471 OA
ATOM     10  C   UNL     1      33.342 -23.165 -17.609  0.00  0.00    +0.252 C 
ENDBRANCH   6   9
ENDBRANCH   1   3
BRANCH   2  12
ATOM     11  O   UNL     1      34.569 -17.826 -25.485  0.00  0.00    -0.245 OA
ATOM     12  C   UNL     1      34.826 -17.752 -24.294  0.00  0.00    +0.341 C 
BRANCH  12  13
ATOM     13  O   UNL     1      35.087 -16.621 -23.583  0.00  0.00    -0.443 OA
BRANCH  13  14
ATOM     14  C   UNL     1      34.302 -15.478 -23.936  0.00  0.00    +0.241 C 
BRANCH  14  15
ATOM     15  C   UNL     1      33.418 -15.103 -22.762  0.00  0.00    +0.189 C 
BRANCH  15  16
ATOM     16  O   UNL     1      32.940 -13.777 -22.947  0.00  0.00    -0.350 OA
BRANCH  16  17
ATOM     17  C   UNL     1      33.345 -13.247 -24.201  0.00  0.00    +0.142 C 
ATOM     18  C   UNL     1      33.687 -11.782 -24.031  0.00  0.00    +0.035 C 
ENDBRANCH  16  17
ENDBRANCH  15  16
ENDBRANCH  14  15
ENDBRANCH  13  14
ENDBRANCH  12  13
ENDBRANCH   2  12
TORSDOF 8
ENDMDL
MODEL 4
REMARK VINA RESULT:      -7.7      1.410      3.167
REMARK  Name = 5373773
REMARK  8 active torsions:
REMARK  status: ('A' for Active; 'I' for Inactive)
REMARK    1  A    between atoms: C_1  and  C_3
REMARK    2  A    between atoms: C_2  and  C_12
REMARK    3  A    between atoms: C_6  and  O_9
REMARK    4  A    between atoms: C_12  and  O_13
REMARK    5  A    between atoms: O_13  and  C_14
REMARK    6  A    between atoms: C_14  and  C_15
REMARK    7  A    between atoms: C_15  and  O_16
REMARK    8  A    between atoms: O_16  and  C_17
REMARK                            x       y       z     vdW  Elec       q    Type
REMARK                         _______ _______ _______ _____ _____    ______ ____
ROOT
ATOM      1  C   UNL     1      34.911 -18.187 -21.456  0.00  0.00    +0.007 C 
ATOM      2  C   UNL     1      34.434 -16.997 -21.023  0.00  0.00    +0.082 C 
ENDROOT
BRANCH   1   3
ATOM      3  C   UNL     1      34.653 -19.473 -20.828  0.00  0.00    +0.000 C 
ATOM      4  C   UNL     1      35.720 -20.287 -20.448  0.00  0.00    +0.003 C 
ATOM      5  C   UNL     1      33.341 -19.892 -20.608  0.00  0.00    +0.003 C 
ATOM      6  C   UNL     1      34.162 -21.941 -19.624  0.00  0.00    +0.139 C 
ATOM      7  C   UNL     1      35.474 -21.523 -19.846  0.00  0.00    +0.037 C 
ATOM      8  C   UNL     1      33.096 -21.126 -20.006  0.00  0.00    +0.037 C 
BRANCH   6   9
ATOM      9  O   UNL     1      33.921 -23.145 -19.038  0.00  0.00    -0.471 OA
ATOM     10  C   UNL     1      33.568 -23.135 -17.654  0.00  0.00    +0.252 C 
ENDBRANCH   6   9
ENDBRANCH   1   3
BRANCH   2  12
ATOM     11  O   UNL     1      34.619 -14.619 -21.319  0.00  0.00    -0.245 OA
ATOM     12  C   UNL     1      34.777 -15.751 -21.745  0.00  0.00    +0.341 C 
BRANCH  12  13
ATOM     13  O   UNL     1      35.295 -16.106 -22.953  0.00  0.00    -0.443 OA
BRANCH  13  14
ATOM     14  C   UNL     1      34.674 -15.498 -24.090  0.00  0.00    +0.241 C 
BRANCH  14  15
ATOM     15  C   UNL     1      34.386 -16.567 -25.126  0.00  0.00    +0.189 C 
BRANCH  15  16
ATOM     16  O   UNL     1      33.832 -15.953 -26.283  0.00  0.00    -0.350 OA
BRANCH  16  17
ATOM     17  C   UNL     1      33.037 -14.825 -25.945  0.00  0.00    +0.142 C 
ATOM     18  C   UNL     1      33.203 -13.765 -27.012  0.00  0.00    +0.035 C 
ENDBRANCH  16  17
ENDBRANCH  15  16
ENDBRANCH  14  15
ENDBRANCH  13  14
ENDBRANCH  12  13
ENDBRANCH   2  12
TORSDOF 8
ENDMDL
MODEL 5
REMARK VINA RESULT:      -7.5      0.990      2.877
REMARK  Name = 5373773
REMARK  8 active torsions:
REMARK  status: ('A' for Active; 'I' for Inactive)
REMARK    1  A    between atoms: C_1  and  C_3
REMARK    2  A    between atoms: C_2  and  C_12
REMARK    3  A    between atoms: C_6  and  O_9
REMARK    4  A    between atoms: C_12  and  O_13
REMARK    5  A    between atoms: O_13  and  C_14
REMARK    6  A    between atoms: C_14  and  C_15
REMARK    7  A    between atoms: C_15  and  O_16
REMARK    8  A    between atoms: O_16  and  C_17
REMARK                            x       y       z     vdW  Elec       q    Type
REMARK                         _______ _______ _______ _____ _____    ______ ____
ROOT
ATOM      1  C   UNL     1      34.237 -18.121 -21.430  0.00  0.00    +0.007 C 
ATOM      2  C   UNL     1      34.884 -17.014 -21.002  0.00  0.00    +0.082 C 
ENDROOT
BRANCH   1   3
ATOM      3  C   UNL     1      34.264 -19.417 -20.770  0.00  0.00    +0.000 C 
ATOM      4  C   UNL     1      33.069 -20.020 -20.374  0.00  0.00    +0.003 C 
ATOM      5  C   UNL     1      35.480 -20.055 -20.531  0.00  0.00    +0.003 C 
ATOM      6  C   UNL     1      34.310 -21.901 -19.502  0.00  0.00    +0.139 C 
ATOM      7  C   UNL     1      33.093 -21.263 -19.739  0.00  0.00    +0.037 C 
ATOM      8  C   UNL     1      35.504 -21.297 -19.896  0.00  0.00    +0.037 C 
BRANCH   6   9
ATOM      9  O   UNL     1      34.334 -23.113 -18.883  0.00  0.00    -0.471 OA
ATOM     10  C   UNL     1      33.476 -23.283 -17.754  0.00  0.00    +0.252 C 
ENDBRANCH   6   9
ENDBRANCH   1   3
BRANCH   2  12
ATOM     11  O   UNL     1      34.591 -14.646 -21.296  0.00  0.00    -0.245 OA
ATOM     12  C   UNL     1      34.787 -15.752 -21.771  0.00  0.00    +0.341 C 
BRANCH  12  13
ATOM     13  O   UNL     1      34.956 -16.059 -23.086  0.00  0.00    -0.443 OA
BRANCH  13  14
ATOM     14  C   UNL     1      34.035 -15.435 -23.986  0.00  0.00    +0.241 C 
BRANCH  14  15
ATOM     15  C   UNL     1      34.103 -16.136 -25.329  0.00  0.00    +0.189 C 
BRANCH  15  16
ATOM     16  O   UNL     1      34.869 -17.326 -25.192  0.00  0.00    -0.350 OA
BRANCH  16  17
ATOM     17  C   UNL     1      34.037 -18.477 -25.131  0.00  0.00    +0.142 C 
ATOM     18  C   UNL     1      34.866 -19.662 -24.686  0.00  0.00    +0.035 C 
ENDBRANCH  16  17
ENDBRANCH  15  16
ENDBRANCH  14  15
ENDBRANCH  13  14
ENDBRANCH  12  13
ENDBRANCH   2  12
TORSDOF 8
ENDMDL
MODEL 6
REMARK VINA RESULT:      -7.5      1.447      2.376
REMARK  Name = 5373773
REMARK  8 active torsions:
REMARK  status: ('A' for Active; 'I' for Inactive)
REMARK    1  A    between atoms: C_1  and  C_3
REMARK    2  A    between atoms: C_2  and  C_12
REMARK    3  A    between atoms: C_6  and  O_9
REMARK    4  A    between atoms: C_12  and  O_13
REMARK    5  A    between atoms: O_13  and  C_14
REMARK    6  A    between atoms: C_14  and  C_15
REMARK    7  A    between atoms: C_15  and  O_16
REMARK    8  A    between atoms: O_16  and  C_17
REMARK                            x       y       z     vdW  Elec       q    Type
REMARK                         _______ _______ _______ _____ _____    ______ ____
ROOT
ATOM      1  C   UNL     1      34.866 -18.615 -21.792  0.00  0.00    +0.007 C 
ATOM      2  C   UNL     1      34.764 -17.315 -21.433  0.00  0.00    +0.082 C 
ENDROOT
BRANCH   1   3
ATOM      3  C   UNL     1      34.773 -19.746 -20.884  0.00  0.00    +0.000 C 
ATOM      4  C   UNL     1      35.935 -20.361 -20.417  0.00  0.00    +0.003 C 
ATOM      5  C   UNL     1      33.524 -20.217 -20.479  0.00  0.00    +0.003 C 
ATOM      6  C   UNL     1      34.598 -21.918 -19.141  0.00  0.00    +0.139 C 
ATOM      7  C   UNL     1      35.847 -21.448 -19.545  0.00  0.00    +0.037 C 
ATOM      8  C   UNL     1      33.436 -21.303 -19.608  0.00  0.00    +0.037 C 
BRANCH   6   9
ATOM      9  O   UNL     1      34.511 -22.977 -18.291  0.00  0.00    -0.471 OA
ATOM     10  C   UNL     1      33.265 -23.173 -17.621  0.00  0.00    +0.252 C 
ENDBRANCH   6   9
ENDBRANCH   1   3
BRANCH   2  12
ATOM     11  O   UNL     1      35.200 -16.418 -23.620  0.00  0.00    -0.245 OA
ATOM     12  C   UNL     1      34.887 -16.249 -22.453  0.00  0.00    +0.341 C 
BRANCH  12  13
ATOM     13  O   UNL     1      34.588 -15.066 -21.849  0.00  0.00    -0.443 OA
BRANCH  13  14
ATOM     14  C   UNL     1      33.818 -15.168 -20.647  0.00  0.00    +0.241 C 
BRANCH  14  15
ATOM     15  C   UNL     1      32.728 -14.114 -20.668  0.00  0.00    +0.189 C 
BRANCH  15  16
ATOM     16  O   UNL     1      32.321 -13.894 -22.012  0.00  0.00    -0.350 OA
BRANCH  16  17
ATOM     17  C   UNL     1      32.078 -12.517 -22.264  0.00  0.00    +0.142 C 
ATOM     18  C   UNL     1      31.548 -11.870 -21.003  0.00  0.00    +0.035 C 
ENDBRANCH  16  17
ENDBRANCH  15  16
ENDBRANCH  14  15
ENDBRANCH  13  14
ENDBRANCH  12  13
ENDBRANCH   2  12
TORSDOF 8
ENDMDL
MODEL 7
REMARK VINA RESULT:      -7.5      2.109      7.399
REMARK  Name = 5373773
REMARK  8 active torsions:
REMARK  status: ('A' for Active; 'I' for Inactive)
REMARK    1  A    between atoms: C_1  and  C_3
REMARK    2  A    between atoms: C_2  and  C_12
REMARK    3  A    between atoms: C_6  and  O_9
REMARK    4  A    between atoms: C_12  and  O_13
REMARK    5  A    between atoms: O_13  and  C_14
REMARK    6  A    between atoms: C_14  and  C_15
REMARK    7  A    between atoms: C_15  and  O_16
REMARK    8  A    between atoms: O_16  and  C_17
REMARK                            x       y       z     vdW  Elec       q    Type
REMARK                         _______ _______ _______ _____ _____    ______ ____
ROOT
ATOM      1  C   UNL     1      34.970 -19.467 -22.009  0.00  0.00    +0.007 C 
ATOM      2  C   UNL     1      34.082 -19.725 -21.022  0.00  0.00    +0.082 C 
ENDROOT
BRANCH   1   3
ATOM      3  C   UNL     1      34.780 -18.499 -23.077  0.00  0.00    +0.000 C 
ATOM      4  C   UNL     1      34.511 -18.938 -24.374  0.00  0.00    +0.003 C 
ATOM      5  C   UNL     1      34.866 -17.134 -22.806  0.00  0.00    +0.003 C 
ATOM      6  C   UNL     1      34.415 -16.644 -25.128  0.00  0.00    +0.139 C 
ATOM      7  C   UNL     1      34.329 -18.009 -25.401  0.00  0.00    +0.037 C 
ATOM      8  C   UNL     1      34.684 -16.206 -23.832  0.00  0.00    +0.037 C 
BRANCH   6   9
ATOM      9  O   UNL     1      34.238 -15.738 -26.129  0.00  0.00    -0.471 OA
ATOM     10  C   UNL     1      32.954 -15.121 -26.226  0.00  0.00    +0.252 C 
ENDBRANCH   6   9
ENDBRANCH   1   3
BRANCH   2  12
ATOM     11  O   UNL     1      33.655 -21.665 -19.669  0.00  0.00    -0.245 OA
ATOM     12  C   UNL     1      34.388 -20.746 -19.995  0.00  0.00    +0.341 C 
BRANCH  12  13
ATOM     13  O   UNL     1      35.622 -20.466 -19.493  0.00  0.00    -0.443 OA
BRANCH  13  14
ATOM     14  C   UNL     1      36.470 -21.599 -19.281  0.00  0.00    +0.241 C 
BRANCH  14  15
ATOM     15  C   UNL     1      36.722 -21.757 -17.794  0.00  0.00    +0.189 C 
BRANCH  15  16
ATOM     16  O   UNL     1      35.747 -22.636 -17.249  0.00  0.00    -0.350 OA
BRANCH  16  17
ATOM     17  C   UNL     1      36.000 -22.910 -15.879  0.00  0.00    +0.142 C 
ATOM     18  C   UNL     1      37.495 -22.997 -15.660  0.00  0.00    +0.035 C 
ENDBRANCH  16  17
ENDBRANCH  15  16
ENDBRANCH  14  15
ENDBRANCH  13  14
ENDBRANCH  12  13
ENDBRANCH   2  12
TORSDOF 8
ENDMDL
MODEL 8
REMARK VINA RESULT:      -7.4      2.152      7.505
REMARK  Name = 5373773
REMARK  8 active torsions:
REMARK  status: ('A' for Active; 'I' for Inactive)
REMARK    1  A    between atoms: C_1  and  C_3
REMARK    2  A    between atoms: C_2  and  C_12
REMARK    3  A    between atoms: C_6  and  O_9
REMARK    4  A    between atoms: C_12  and  O_13
REMARK    5  A    between atoms: O_13  and  C_14
REMARK    6  A    between atoms: C_14  and  C_15
REMARK    7  A    between atoms: C_15  and  O_16
REMARK    8  A    between atoms: O_16  and  C_17
REMARK                            x       y       z     vdW  Elec       q    Type
REMARK                         _______ _______ _______ _____ _____    ______ ____
ROOT
ATOM      1  C   UNL     1      34.734 -20.398 -20.717  0.00  0.00    +0.007 C 
ATOM      2  C   UNL     1      33.664 -20.797 -19.993  0.00  0.00    +0.082 C 
ENDROOT
BRANCH   1   3
ATOM      3  C   UNL     1      34.787 -19.207 -21.550  0.00  0.00    +0.000 C 
ATOM      4  C   UNL     1      34.792 -19.330 -22.940  0.00  0.00    +0.003 C 
ATOM      5  C   UNL     1      34.833 -17.944 -20.961  0.00  0.00    +0.003 C 
ATOM      6  C   UNL     1      34.888 -16.924 -23.150  0.00  0.00    +0.139 C 
ATOM      7  C   UNL     1      34.843 -18.187 -23.740  0.00  0.00    +0.037 C 
ATOM      8  C   UNL     1      34.884 -16.803 -21.761  0.00  0.00    +0.037 C 
BRANCH   6   9
ATOM      9  O   UNL     1      34.939 -15.810 -23.930  0.00  0.00    -0.471 OA
ATOM     10  C   UNL     1      34.050 -14.744 -23.597  0.00  0.00    +0.252 C 
ENDBRANCH   6   9
ENDBRANCH   1   3
BRANCH   2  12
ATOM     11  O   UNL     1      34.665 -22.822 -19.172  0.00  0.00    -0.245 OA
ATOM     12  C   UNL     1      33.730 -22.039 -19.190  0.00  0.00    +0.341 C 
BRANCH  12  13
ATOM     13  O   UNL     1      32.568 -22.137 -18.488  0.00  0.00    -0.443 OA
BRANCH  13  14
ATOM     14  C   UNL     1      32.552 -23.135 -17.463  0.00  0.00    +0.241 C 
BRANCH  14  15
ATOM     15  C   UNL     1      31.462 -22.799 -16.463  0.00  0.00    +0.189 C 
BRANCH  15  16
ATOM     16  O   UNL     1      30.310 -22.351 -17.165  0.00  0.00    -0.350 OA
BRANCH  16  17
ATOM     17  C   UNL     1      29.114 -22.787 -16.535  0.00  0.00    +0.142 C 
ATOM     18  C   UNL     1      29.377 -24.099 -15.829  0.00  0.00    +0.035 C 
ENDBRANCH  16  17
ENDBRANCH  15  16
ENDBRANCH  14  15
ENDBRANCH  13  14
ENDBRANCH  12  13
ENDBRANCH   2  12
TORSDOF 8
ENDMDL
MODEL 9
REMARK VINA RESULT:      -7.3      1.836      7.396
REMARK  Name = 5373773
REMARK  8 active torsions:
REMARK  status: ('A' for Active; 'I' for Inactive)
REMARK    1  A    between atoms: C_1  and  C_3
REMARK    2  A    between atoms: C_2  and  C_12
REMARK    3  A    between atoms: C_6  and  O_9
REMARK    4  A    between atoms: C_12  and  O_13
REMARK    5  A    between atoms: O_13  and  C_14
REMARK    6  A    between atoms: C_14  and  C_15
REMARK    7  A    between atoms: C_15  and  O_16
REMARK    8  A    between atoms: O_16  and  C_17
REMARK                            x       y       z     vdW  Elec       q    Type
REMARK                         _______ _______ _______ _____ _____    ______ ____
ROOT
ATOM      1  C   UNL     1      34.662 -19.651 -21.392  0.00  0.00    +0.007 C 
ATOM      2  C   UNL     1      35.780 -20.122 -20.794  0.00  0.00    +0.082 C 
ENDROOT
BRANCH   1   3
ATOM      3  C   UNL     1      34.637 -18.768 -22.547  0.00  0.00    +0.000 C 
ATOM      4  C   UNL     1      34.672 -17.385 -22.366  0.00  0.00    +0.003 C 
ATOM      5  C   UNL     1      34.578 -19.302 -23.834  0.00  0.00    +0.003 C 
ATOM      6  C   UNL     1      34.589 -17.071 -24.761  0.00  0.00    +0.139 C 
ATOM      7  C   UNL     1      34.647 -16.536 -23.474  0.00  0.00    +0.037 C 
ATOM      8  C   UNL     1      34.553 -18.454 -24.941  0.00  0.00    +0.037 C 
BRANCH   6   9
ATOM      9  O   UNL     1      34.564 -16.244 -25.841  0.00  0.00    -0.471 OA
ATOM     10  C   UNL     1      33.460 -15.345 -25.946  0.00  0.00    +0.252 C 
ENDBRANCH   6   9
ENDBRANCH   1   3
BRANCH   2  12
ATOM     11  O   UNL     1      36.610 -21.397 -18.933  0.00  0.00    -0.245 OA
ATOM     12  C   UNL     1      35.675 -21.010 -19.614  0.00  0.00    +0.341 C 
BRANCH  12  13
ATOM     13  O   UNL     1      34.358 -21.305 -19.439  0.00  0.00    -0.443 OA
BRANCH  13  14
ATOM     14  C   UNL     1      34.058 -22.692 -19.253  0.00  0.00    +0.241 C 
BRANCH  14  15
ATOM     15  C   UNL     1      33.486 -22.892 -17.863  0.00  0.00    +0.189 C 
BRANCH  15  16
ATOM     16  O   UNL     1      34.453 -23.550 -17.054  0.00  0.00    -0.350 OA
BRANCH  16  17
ATOM     17  C   UNL     1      34.070 -23.560 -15.687  0.00  0.00    +0.142 C 
ATOM     18  C   UNL     1      32.580 -23.309 -15.589  0.00  0.00    +0.035 C 
ENDBRANCH  16  17
ENDBRANCH  15  16
ENDBRANCH  14  15
ENDBRANCH  13  14
ENDBRANCH  12  13
ENDBRANCH   2  12
TORSDOF 8
ENDMDL
