MODEL 1
REMARK VINA RESULT:      -7.6      0.000      0.000
REMARK  Name = 71969
REMARK  1 active torsions:
REMARK  status: ('A' for Active; 'I' for Inactive)
REMARK    1  A    between atoms: N_2  and  C_11
REMARK                            x       y       z     vdW  Elec       q    Type
REMARK                         _______ _______ _______ _____ _____    ______ ____
ROOT
ATOM      1  N   UNL     1      34.160 -13.334 -23.484  0.00  0.00    -0.284 N 
ATOM      2  N   UNL     1      35.018 -15.367 -22.750  0.00  0.00    -0.284 N 
ATOM      3  N   UNL     1      32.911 -14.517 -22.003  0.00  0.00    -0.214 NA
ATOM      4  C   UNL     1      33.031 -12.467 -23.334  0.00  0.00    +0.085 C 
ATOM      5  C   UNL     1      32.178 -13.259 -22.335  0.00  0.00    +0.117 C 
ATOM      6  C   UNL     1      34.014 -14.447 -22.711  0.00  0.00    +0.190 C 
ATOM      7  H   UNL     1      34.933 -13.152 -24.064  0.00  0.00    +0.155 HD
ATOM      8  H   UNL     1      35.922 -15.021 -22.928  0.00  0.00    +0.155 HD
ENDROOT
BRANCH   2  11
ATOM      9 BR   UNL     1      34.632 -16.994 -25.427  0.00  0.00    -0.048 Br
ATOM     10  F   UNL     1      35.144 -16.447 -20.219  0.00  0.00    -0.203 F 
ATOM     11  C   UNL     1      34.905 -16.749 -22.564  0.00  0.00    +0.084 C 
ATOM     12  C   UNL     1      34.728 -17.629 -23.641  0.00  0.00    +0.050 C 
ATOM     13  C   UNL     1      34.973 -17.269 -21.264  0.00  0.00    +0.154 C 
ATOM     14  C   UNL     1      34.621 -19.003 -23.422  0.00  0.00    +0.008 C 
ATOM     15  C   UNL     1      34.865 -18.643 -21.045  0.00  0.00    +0.031 C 
ATOM     16  C   UNL     1      34.688 -19.510 -22.124  0.00  0.00    +0.003 C 
ENDBRANCH   2  11
TORSDOF 1
ENDMDL
MODEL 2
REMARK VINA RESULT:      -7.5      2.291      4.764
REMARK  Name = 71969
REMARK  1 active torsions:
REMARK  status: ('A' for Active; 'I' for Inactive)
REMARK    1  A    between atoms: N_2  and  C_11
REMARK                            x       y       z     vdW  Elec       q    Type
REMARK                         _______ _______ _______ _____ _____    ______ ____
ROOT
ATOM      1  N   UNL     1      35.528 -19.828 -20.477  0.00  0.00    -0.284 N 
ATOM      2  N   UNL     1      35.371 -17.992 -21.895  0.00  0.00    -0.284 N 
ATOM      3  N   UNL     1      33.467 -19.295 -21.264  0.00  0.00    -0.214 NA
ATOM      4  C   UNL     1      34.735 -20.845 -19.858  0.00  0.00    +0.085 C 
ATOM      5  C   UNL     1      33.337 -20.493 -20.382  0.00  0.00    +0.117 C 
ATOM      6  C   UNL     1      34.748 -19.011 -21.240  0.00  0.00    +0.190 C 
ATOM      7  H   UNL     1      36.501 -19.730 -20.367  0.00  0.00    +0.155 HD
ATOM      8  H   UNL     1      36.306 -18.147 -22.160  0.00  0.00    +0.155 HD
ENDROOT
BRANCH   2  11
ATOM      9 BR   UNL     1      34.625 -17.707 -24.949  0.00  0.00    -0.048 Br
ATOM     10  F   UNL     1      35.027 -16.049 -19.971  0.00  0.00    -0.203 F 
ATOM     11  C   UNL     1      34.827 -16.748 -22.234  0.00  0.00    +0.084 C 
ATOM     12  C   UNL     1      34.438 -16.443 -23.546  0.00  0.00    +0.050 C 
ATOM     13  C   UNL     1      34.665 -15.779 -21.233  0.00  0.00    +0.154 C 
ATOM     14  C   UNL     1      33.897 -15.193 -23.852  0.00  0.00    +0.008 C 
ATOM     15  C   UNL     1      34.124 -14.530 -21.539  0.00  0.00    +0.031 C 
ATOM     16  C   UNL     1      33.741 -14.237 -22.848  0.00  0.00    +0.003 C 
ENDBRANCH   2  11
TORSDOF 1
ENDMDL
MODEL 3
REMARK VINA RESULT:      -7.5      2.903      3.768
REMARK  Name = 71969
REMARK  1 active torsions:
REMARK  status: ('A' for Active; 'I' for Inactive)
REMARK    1  A    between atoms: N_2  and  C_11
REMARK                            x       y       z     vdW  Elec       q    Type
REMARK                         _______ _______ _______ _____ _____    ______ ____
ROOT
ATOM      1  N   UNL     1      34.217 -16.488 -22.453  0.00  0.00    -0.284 N 
ATOM      2  N   UNL     1      35.253 -18.468 -21.807  0.00  0.00    -0.284 N 
ATOM      3  N   UNL     1      35.126 -16.557 -20.374  0.00  0.00    -0.214 NA
ATOM      4  C   UNL     1      33.911 -15.171 -21.984  0.00  0.00    +0.085 C 
ATOM      5  C   UNL     1      34.520 -15.207 -20.577  0.00  0.00    +0.117 C 
ATOM      6  C   UNL     1      34.892 -17.190 -21.499  0.00  0.00    +0.190 C 
ATOM      7  H   UNL     1      33.973 -16.840 -23.339  0.00  0.00    +0.155 HD
ATOM      8  H   UNL     1      35.429 -18.657 -22.757  0.00  0.00    +0.155 HD
ENDROOT
BRANCH   2  11
ATOM      9 BR   UNL     1      32.527 -19.784 -20.912  0.00  0.00    -0.048 Br
ATOM     10  F   UNL     1      37.763 -19.265 -20.996  0.00  0.00    -0.203 F 
ATOM     11  C   UNL     1      35.403 -19.540 -20.921  0.00  0.00    +0.084 C 
ATOM     12  C   UNL     1      34.301 -20.244 -20.418  0.00  0.00    +0.050 C 
ATOM     13  C   UNL     1      36.693 -19.922 -20.526  0.00  0.00    +0.154 C 
ATOM     14  C   UNL     1      34.484 -21.310 -19.536  0.00  0.00    +0.008 C 
ATOM     15  C   UNL     1      36.876 -20.988 -19.644  0.00  0.00    +0.031 C 
ATOM     16  C   UNL     1      35.771 -21.682 -19.149  0.00  0.00    +0.003 C 
ENDBRANCH   2  11
TORSDOF 1
ENDMDL
MODEL 4
REMARK VINA RESULT:      -7.4      7.529      9.898
REMARK  Name = 71969
REMARK  1 active torsions:
REMARK  status: ('A' for Active; 'I' for Inactive)
REMARK    1  A    between atoms: N_2  and  C_11
REMARK                            x       y       z     vdW  Elec       q    Type
REMARK                         _______ _______ _______ _____ _____    ______ ____
ROOT
ATOM      1  N   UNL     1      32.486  -9.064 -19.427  0.00  0.00    -0.284 N 
ATOM      2  N   UNL     1      33.001  -7.617 -21.173  0.00  0.00    -0.284 N 
ATOM      3  N   UNL     1      31.753  -9.631 -21.499  0.00  0.00    -0.214 NA
ATOM      4  C   UNL     1      31.818 -10.298 -19.146  0.00  0.00    +0.085 C 
ATOM      5  C   UNL     1      31.314 -10.690 -20.541  0.00  0.00    +0.117 C 
ATOM      6  C   UNL     1      32.404  -8.768 -20.756  0.00  0.00    +0.190 C 
ATOM      7  H   UNL     1      32.941  -8.507 -18.757  0.00  0.00    +0.155 HD
ATOM      8  H   UNL     1      33.789  -7.322 -20.664  0.00  0.00    +0.155 HD
ENDROOT
BRANCH   2  11
ATOM      9 BR   UNL     1      34.616  -8.162 -23.830  0.00  0.00    -0.048 Br
ATOM     10  F   UNL     1      30.992  -5.755 -20.869  0.00  0.00    -0.203 F 
ATOM     11  C   UNL     1      32.616  -6.808 -22.248  0.00  0.00    +0.084 C 
ATOM     12  C   UNL     1      33.226  -6.911 -23.507  0.00  0.00    +0.050 C 
ATOM     13  C   UNL     1      31.591  -5.869 -22.063  0.00  0.00    +0.154 C 
ATOM     14  C   UNL     1      32.819  -6.090 -24.560  0.00  0.00    +0.008 C 
ATOM     15  C   UNL     1      31.185  -5.049 -23.115  0.00  0.00    +0.031 C 
ATOM     16  C   UNL     1      31.799  -5.159 -24.364  0.00  0.00    +0.003 C 
ENDBRANCH   2  11
TORSDOF 1
ENDMDL
MODEL 5
REMARK VINA RESULT:      -7.4      2.844      5.132
REMARK  Name = 71969
REMARK  1 active torsions:
REMARK  status: ('A' for Active; 'I' for Inactive)
REMARK    1  A    between atoms: N_2  and  C_11
REMARK                            x       y       z     vdW  Elec       q    Type
REMARK                         _______ _______ _______ _____ _____    ______ ____
ROOT
ATOM      1  N   UNL     1      36.276 -18.602 -21.330  0.00  0.00    -0.284 N 
ATOM      2  N   UNL     1      35.693 -17.142 -23.044  0.00  0.00    -0.284 N 
ATOM      3  N   UNL     1      34.323 -19.000 -22.417  0.00  0.00    -0.214 NA
ATOM      4  C   UNL     1      35.821 -19.770 -20.641  0.00  0.00    +0.085 C 
ATOM      5  C   UNL     1      34.498 -20.048 -21.366  0.00  0.00    +0.117 C 
ATOM      6  C   UNL     1      35.388 -18.242 -22.300  0.00  0.00    +0.190 C 
ATOM      7  H   UNL     1      37.113 -18.123 -21.132  0.00  0.00    +0.155 HD
ATOM      8  H   UNL     1      36.649 -16.953 -23.175  0.00  0.00    +0.155 HD
ENDROOT
BRANCH   2  11
ATOM      9 BR   UNL     1      34.556 -14.948 -21.081  0.00  0.00    -0.048 Br
ATOM     10  F   UNL     1      35.060 -17.389 -25.715  0.00  0.00    -0.203 F 
ATOM     11  C   UNL     1      34.794 -16.253 -23.644  0.00  0.00    +0.084 C 
ATOM     12  C   UNL     1      34.189 -15.214 -22.924  0.00  0.00    +0.050 C 
ATOM     13  C   UNL     1      34.491 -16.404 -25.005  0.00  0.00    +0.154 C 
ATOM     14  C   UNL     1      33.298 -14.342 -23.552  0.00  0.00    +0.008 C 
ATOM     15  C   UNL     1      33.601 -15.534 -25.633  0.00  0.00    +0.031 C 
ATOM     16  C   UNL     1      33.003 -14.503 -24.906  0.00  0.00    +0.003 C 
ENDBRANCH   2  11
TORSDOF 1
ENDMDL
MODEL 6
REMARK VINA RESULT:      -7.3      3.300      5.581
REMARK  Name = 71969
REMARK  1 active torsions:
REMARK  status: ('A' for Active; 'I' for Inactive)
REMARK    1  A    between atoms: N_2  and  C_11
REMARK                            x       y       z     vdW  Elec       q    Type
REMARK                         _______ _______ _______ _____ _____    ______ ____
ROOT
ATOM      1  N   UNL     1      34.537 -20.647 -20.110  0.00  0.00    -0.284 N 
ATOM      2  N   UNL     1      34.202 -18.683 -21.309  0.00  0.00    -0.284 N 
ATOM      3  N   UNL     1      36.376 -19.430 -20.648  0.00  0.00    -0.214 NA
ATOM      4  C   UNL     1      35.568 -21.450 -19.528  0.00  0.00    +0.085 C 
ATOM      5  C   UNL     1      36.818 -20.637 -19.888  0.00  0.00    +0.117 C 
ATOM      6  C   UNL     1      35.070 -19.545 -20.710  0.00  0.00    +0.190 C 
ATOM      7  H   UNL     1      33.577 -20.860 -20.082  0.00  0.00    +0.155 HD
ATOM      8  H   UNL     1      33.300 -18.628 -20.919  0.00  0.00    +0.155 HD
ENDROOT
BRANCH   2  11
ATOM      9 BR   UNL     1      34.328 -15.604 -20.626  0.00  0.00    -0.048 Br
ATOM     10  F   UNL     1      34.542 -19.788 -23.810  0.00  0.00    -0.203 F 
ATOM     11  C   UNL     1      34.452 -17.865 -22.416  0.00  0.00    +0.084 C 
ATOM     12  C   UNL     1      34.541 -16.471 -22.301  0.00  0.00    +0.050 C 
ATOM     13  C   UNL     1      34.620 -18.456 -23.676  0.00  0.00    +0.154 C 
ATOM     14  C   UNL     1      34.793 -15.682 -23.424  0.00  0.00    +0.008 C 
ATOM     15  C   UNL     1      34.872 -17.668 -24.799  0.00  0.00    +0.031 C 
ATOM     16  C   UNL     1      34.958 -16.281 -24.674  0.00  0.00    +0.003 C 
ENDBRANCH   2  11
TORSDOF 1
ENDMDL
MODEL 7
REMARK VINA RESULT:      -7.1      2.932      3.763
REMARK  Name = 71969
REMARK  1 active torsions:
REMARK  status: ('A' for Active; 'I' for Inactive)
REMARK    1  A    between atoms: N_2  and  C_11
REMARK                            x       y       z     vdW  Elec       q    Type
REMARK                         _______ _______ _______ _____ _____    ______ ____
ROOT
ATOM      1  N   UNL     1      33.850 -16.314 -22.415  0.00  0.00    -0.284 N 
ATOM      2  N   UNL     1      34.498 -18.483 -21.882  0.00  0.00    -0.284 N 
ATOM      3  N   UNL     1      34.974 -16.615 -20.466  0.00  0.00    -0.214 NA
ATOM      4  C   UNL     1      33.902 -14.970 -21.927  0.00  0.00    +0.085 C 
ATOM      5  C   UNL     1      34.659 -15.161 -20.607  0.00  0.00    +0.117 C 
ATOM      6  C   UNL     1      34.468 -17.163 -21.546  0.00  0.00    +0.190 C 
ATOM      7  H   UNL     1      33.426 -16.588 -23.260  0.00  0.00    +0.155 HD
ATOM      8  H   UNL     1      34.508 -18.690 -22.844  0.00  0.00    +0.155 HD
ENDROOT
BRANCH   2  11
ATOM      9 BR   UNL     1      37.399 -19.415 -21.060  0.00  0.00    -0.048 Br
ATOM     10  F   UNL     1      32.141 -19.627 -21.027  0.00  0.00    -0.203 F 
ATOM     11  C   UNL     1      34.518 -19.576 -21.010  0.00  0.00    +0.084 C 
ATOM     12  C   UNL     1      35.718 -20.127 -20.540  0.00  0.00    +0.050 C 
ATOM     13  C   UNL     1      33.302 -20.138 -20.593  0.00  0.00    +0.154 C 
ATOM     14  C   UNL     1      35.704 -21.217 -19.669  0.00  0.00    +0.008 C 
ATOM     15  C   UNL     1      33.288 -21.228 -19.723  0.00  0.00    +0.031 C 
ATOM     16  C   UNL     1      34.490 -21.769 -19.261  0.00  0.00    +0.003 C 
ENDBRANCH   2  11
TORSDOF 1
ENDMDL
MODEL 8
REMARK VINA RESULT:      -7.1      2.698      3.545
REMARK  Name = 71969
REMARK  1 active torsions:
REMARK  status: ('A' for Active; 'I' for Inactive)
REMARK    1  A    between atoms: N_2  and  C_11
REMARK                            x       y       z     vdW  Elec       q    Type
REMARK                         _______ _______ _______ _____ _____    ______ ____
ROOT
ATOM      1  N   UNL     1      32.701 -11.702 -23.013  0.00  0.00    -0.284 N 
ATOM      2  N   UNL     1      32.878 -13.968 -23.503  0.00  0.00    -0.284 N 
ATOM      3  N   UNL     1      34.072 -12.292 -24.723  0.00  0.00    -0.214 NA
ATOM      4  C   UNL     1      33.177 -10.418 -23.428  0.00  0.00    +0.085 C 
ATOM      5  C   UNL     1      34.109 -10.805 -24.584  0.00  0.00    +0.117 C 
ATOM      6  C   UNL     1      33.245 -12.686 -23.784  0.00  0.00    +0.190 C 
ATOM      7  H   UNL     1      32.069 -11.854 -22.274  0.00  0.00    +0.155 HD
ATOM      8  H   UNL     1      31.977 -14.095 -23.129  0.00  0.00    +0.155 HD
ENDROOT
BRANCH   2  11
ATOM      9 BR   UNL     1      34.319 -14.992 -20.888  0.00  0.00    -0.048 Br
ATOM     10  F   UNL     1      33.024 -15.154 -25.986  0.00  0.00    -0.203 F 
ATOM     11  C   UNL     1      33.642 -15.125 -23.691  0.00  0.00    +0.084 C 
ATOM     12  C   UNL     1      34.352 -15.722 -22.640  0.00  0.00    +0.050 C 
ATOM     13  C   UNL     1      33.698 -15.706 -24.966  0.00  0.00    +0.154 C 
ATOM     14  C   UNL     1      35.105 -16.877 -22.860  0.00  0.00    +0.008 C 
ATOM     15  C   UNL     1      34.449 -16.860 -25.186  0.00  0.00    +0.031 C 
ATOM     16  C   UNL     1      35.154 -17.445 -24.133  0.00  0.00    +0.003 C 
ENDBRANCH   2  11
TORSDOF 1
ENDMDL
MODEL 9
REMARK VINA RESULT:      -7.1      5.027      7.323
REMARK  Name = 71969
REMARK  1 active torsions:
REMARK  status: ('A' for Active; 'I' for Inactive)
REMARK    1  A    between atoms: N_2  and  C_11
REMARK                            x       y       z     vdW  Elec       q    Type
REMARK                         _______ _______ _______ _____ _____    ______ ____
ROOT
ATOM      1  N   UNL     1      33.363 -13.880 -24.812  0.00  0.00    -0.284 N 
ATOM      2  N   UNL     1      34.046 -11.847 -23.914  0.00  0.00    -0.284 N 
ATOM      3  N   UNL     1      33.634 -12.145 -26.251  0.00  0.00    -0.214 NA
ATOM      4  C   UNL     1      33.019 -14.506 -26.052  0.00  0.00    +0.085 C 
ATOM      5  C   UNL     1      33.197 -13.340 -27.033  0.00  0.00    +0.117 C 
ATOM      6  C   UNL     1      33.693 -12.573 -25.011  0.00  0.00    +0.190 C 
ATOM      7  H   UNL     1      33.362 -14.330 -23.937  0.00  0.00    +0.155 HD
ATOM      8  H   UNL     1      34.474 -12.343 -23.179  0.00  0.00    +0.155 HD
ENDROOT
BRANCH   2  11
ATOM      9 BR   UNL     1      31.532 -11.117 -22.150  0.00  0.00    -0.048 Br
ATOM     10  F   UNL     1      35.812 -10.042 -25.017  0.00  0.00    -0.203 F 
ATOM     11  C   UNL     1      33.870 -10.473 -23.717  0.00  0.00    +0.084 C 
ATOM     12  C   UNL     1      32.805  -9.965 -22.960  0.00  0.00    +0.050 C 
ATOM     13  C   UNL     1      34.784  -9.579 -24.291  0.00  0.00    +0.154 C 
ATOM     14  C   UNL     1      32.656  -8.589 -22.781  0.00  0.00    +0.008 C 
ATOM     15  C   UNL     1      34.636  -8.203 -24.112  0.00  0.00    +0.031 C 
ATOM     16  C   UNL     1      33.572  -7.708 -23.357  0.00  0.00    +0.003 C 
ENDBRANCH   2  11
TORSDOF 1
ENDMDL
