MODEL 1
REMARK VINA RESULT:      -9.4      0.000      0.000
REMARK  Name = 5356
REMARK  3 active torsions:
REMARK  status: ('A' for Active; 'I' for Inactive)
REMARK    1  A    between atoms: C_1  and  N_10
REMARK    2  A    between atoms: C_4  and  S_15
REMARK    3  A    between atoms: S_15  and  N_18
REMARK                            x       y       z     vdW  Elec       q    Type
REMARK                         _______ _______ _______ _____ _____    ______ ____
ROOT
ATOM      1  C   UNL     1      34.185 -19.255 -21.042  0.00  0.00    +0.069 C 
ATOM      2  C   UNL     1      32.933 -19.736 -20.670  0.00  0.00    +0.017 C 
ATOM      3  C   UNL     1      35.344 -19.901 -20.625  0.00  0.00    +0.017 C 
ATOM      4  C   UNL     1      34.000 -21.528 -19.450  0.00  0.00    +0.122 C 
ATOM      5  C   UNL     1      32.841 -20.876 -19.872  0.00  0.00    +0.021 C 
ATOM      6  C   UNL     1      35.251 -21.040 -19.826  0.00  0.00    +0.021 C 
ENDROOT
BRANCH   1  10
ATOM      7  S   UNL     1      35.219 -18.297 -23.305  0.00  0.00    +0.057 S 
ATOM      8  O   UNL     1      36.630 -18.182 -22.987  0.00  0.00    -0.154 OA
ATOM      9  O   UNL     1      34.718 -19.439 -24.044  0.00  0.00    -0.154 OA
ATOM     10  N   UNL     1      34.281 -18.073 -21.870  0.00  0.00    -0.194 N 
ATOM     11  C   UNL     1      34.912 -15.573 -23.345  0.00  0.00    +0.029 C 
ATOM     12  C   UNL     1      34.724 -16.828 -24.183  0.00  0.00    +0.173 C 
ATOM     13  C   UNL     1      34.100 -15.619 -22.051  0.00  0.00    +0.025 C 
ATOM     14  C   UNL     1      34.500 -16.784 -21.150  0.00  0.00    +0.116 C 
ENDBRANCH   1  10
BRANCH   4  15
ATOM     15  S   UNL     1      33.883 -22.955 -18.451  0.00  0.00    +0.057 S 
ATOM     16  O   UNL     1      33.868 -24.124 -19.319  0.00  0.00    -0.153 OA
ATOM     17  O   UNL     1      34.872 -22.857 -17.386  0.00  0.00    -0.153 OA
BRANCH  15  18
ATOM     18  N   UNL     1      32.327 -22.752 -17.773  0.00  0.00    -0.203 NA
ATOM     19  H   UNL     1      32.302 -23.177 -16.847  0.00  0.00    +0.144 HD
ATOM     20  H   UNL     1      31.634 -23.201 -18.372  0.00  0.00    +0.144 HD
ENDBRANCH  15  18
ENDBRANCH   4  15
TORSDOF 3
ENDMDL
MODEL 2
REMARK VINA RESULT:      -9.3      1.562      1.996
REMARK  Name = 5356
REMARK  3 active torsions:
REMARK  status: ('A' for Active; 'I' for Inactive)
REMARK    1  A    between atoms: C_1  and  N_10
REMARK    2  A    between atoms: C_4  and  S_15
REMARK    3  A    between atoms: S_15  and  N_18
REMARK                            x       y       z     vdW  Elec       q    Type
REMARK                         _______ _______ _______ _____ _____    ______ ____
ROOT
ATOM      1  C   UNL     1      34.510 -19.437 -21.275  0.00  0.00    +0.069 C 
ATOM      2  C   UNL     1      33.219 -19.802 -20.907  0.00  0.00    +0.017 C 
ATOM      3  C   UNL     1      35.610 -20.124 -20.773  0.00  0.00    +0.017 C 
ATOM      4  C   UNL     1      34.127 -21.560 -19.520  0.00  0.00    +0.122 C 
ATOM      5  C   UNL     1      33.027 -20.867 -20.027  0.00  0.00    +0.021 C 
ATOM      6  C   UNL     1      35.418 -21.188 -19.893  0.00  0.00    +0.021 C 
ENDROOT
BRANCH   1  10
ATOM      7  S   UNL     1      34.408 -16.781 -21.490  0.00  0.00    +0.057 S 
ATOM      8  O   UNL     1      32.982 -16.515 -21.489  0.00  0.00    -0.154 OA
ATOM      9  O   UNL     1      35.188 -16.631 -20.277  0.00  0.00    -0.154 OA
ATOM     10  N   UNL     1      34.709 -18.333 -22.189  0.00  0.00    -0.194 N 
ATOM     11  C   UNL     1      34.630 -16.089 -24.133  0.00  0.00    +0.029 C 
ATOM     12  C   UNL     1      35.164 -15.768 -22.745  0.00  0.00    +0.173 C 
ATOM     13  C   UNL     1      34.878 -17.546 -24.521  0.00  0.00    +0.025 C 
ATOM     14  C   UNL     1      34.192 -18.528 -23.575  0.00  0.00    +0.116 C 
ENDBRANCH   1  10
BRANCH   4  15
ATOM     15  S   UNL     1      33.885 -22.892 -18.418  0.00  0.00    +0.057 S 
ATOM     16  O   UNL     1      33.834 -24.125 -19.191  0.00  0.00    -0.153 OA
ATOM     17  O   UNL     1      34.837 -22.765 -17.322  0.00  0.00    -0.153 OA
BRANCH  15  18
ATOM     18  N   UNL     1      32.319 -22.547 -17.826  0.00  0.00    -0.203 NA
ATOM     19  H   UNL     1      32.286 -21.583 -17.496  0.00  0.00    +0.144 HD
ATOM     20  H   UNL     1      32.101 -23.178 -17.056  0.00  0.00    +0.144 HD
ENDBRANCH  15  18
ENDBRANCH   4  15
TORSDOF 3
ENDMDL
MODEL 3
REMARK VINA RESULT:      -9.2      2.005      2.656
REMARK  Name = 5356
REMARK  3 active torsions:
REMARK  status: ('A' for Active; 'I' for Inactive)
REMARK    1  A    between atoms: C_1  and  N_10
REMARK    2  A    between atoms: C_4  and  S_15
REMARK    3  A    between atoms: S_15  and  N_18
REMARK                            x       y       z     vdW  Elec       q    Type
REMARK                         _______ _______ _______ _____ _____    ______ ____
ROOT
ATOM      1  C   UNL     1      34.442 -18.858 -21.261  0.00  0.00    +0.069 C 
ATOM      2  C   UNL     1      35.559 -19.583 -20.858  0.00  0.00    +0.017 C 
ATOM      3  C   UNL     1      33.161 -19.289 -20.931  0.00  0.00    +0.017 C 
ATOM      4  C   UNL     1      34.111 -21.189 -19.782  0.00  0.00    +0.122 C 
ATOM      5  C   UNL     1      35.393 -20.751 -20.116  0.00  0.00    +0.021 C 
ATOM      6  C   UNL     1      32.995 -20.458 -20.190  0.00  0.00    +0.021 C 
ENDROOT
BRANCH   1  10
ATOM      7  S   UNL     1      34.174 -16.206 -21.178  0.00  0.00    +0.057 S 
ATOM      8  O   UNL     1      32.735 -16.029 -21.232  0.00  0.00    -0.154 OA
ATOM      9  O   UNL     1      34.879 -16.152 -19.912  0.00  0.00    -0.154 OA
ATOM     10  N   UNL     1      34.614 -17.645 -22.030  0.00  0.00    -0.194 N 
ATOM     11  C   UNL     1      34.486 -15.197 -23.708  0.00  0.00    +0.029 C 
ATOM     12  C   UNL     1      34.924 -15.009 -22.264  0.00  0.00    +0.173 C 
ATOM     13  C   UNL     1      34.849 -16.581 -24.244  0.00  0.00    +0.025 C 
ATOM     14  C   UNL     1      34.183 -17.707 -23.458  0.00  0.00    +0.116 C 
ENDBRANCH   1  10
BRANCH   4  15
ATOM     15  S   UNL     1      33.904 -22.653 -18.853  0.00  0.00    +0.057 S 
ATOM     16  O   UNL     1      32.659 -22.550 -18.104  0.00  0.00    -0.153 OA
ATOM     17  O   UNL     1      34.126 -23.794 -19.732  0.00  0.00    -0.153 OA
BRANCH  15  18
ATOM     18  N   UNL     1      35.215 -22.537 -17.764  0.00  0.00    -0.203 NA
ATOM     19  H   UNL     1      35.452 -23.466 -17.417  0.00  0.00    +0.144 HD
ATOM     20  H   UNL     1      34.954 -21.938 -16.981  0.00  0.00    +0.144 HD
ENDBRANCH  15  18
ENDBRANCH   4  15
TORSDOF 3
ENDMDL
MODEL 4
REMARK VINA RESULT:      -8.2      7.640      8.960
REMARK  Name = 5356
REMARK  3 active torsions:
REMARK  status: ('A' for Active; 'I' for Inactive)
REMARK    1  A    between atoms: C_1  and  N_10
REMARK    2  A    between atoms: C_4  and  S_15
REMARK    3  A    between atoms: S_15  and  N_18
REMARK                            x       y       z     vdW  Elec       q    Type
REMARK                         _______ _______ _______ _____ _____    ______ ____
ROOT
ATOM      1  C   UNL     1      34.680 -23.887 -15.113  0.00  0.00    +0.069 C 
ATOM      2  C   UNL     1      35.654 -22.940 -14.812  0.00  0.00    +0.017 C 
ATOM      3  C   UNL     1      35.006 -25.238 -15.184  0.00  0.00    +0.017 C 
ATOM      4  C   UNL     1      37.299 -24.701 -14.650  0.00  0.00    +0.122 C 
ATOM      5  C   UNL     1      36.966 -23.348 -14.579  0.00  0.00    +0.021 C 
ATOM      6  C   UNL     1      36.319 -25.646 -14.953  0.00  0.00    +0.021 C 
ENDROOT
BRANCH   1  10
ATOM      7  S   UNL     1      32.205 -23.952 -14.123  0.00  0.00    +0.057 S 
ATOM      8  O   UNL     1      31.810 -25.331 -14.344  0.00  0.00    -0.154 OA
ATOM      9  O   UNL     1      32.688 -23.520 -12.826  0.00  0.00    -0.154 OA
ATOM     10  N   UNL     1      33.318 -23.464 -15.353  0.00  0.00    -0.194 N 
ATOM     11  C   UNL     1      30.456 -23.048 -16.032  0.00  0.00    +0.029 C 
ATOM     12  C   UNL     1      30.836 -22.902 -14.565  0.00  0.00    +0.173 C 
ATOM     13  C   UNL     1      31.614 -22.694 -16.964  0.00  0.00    +0.025 C 
ATOM     14  C   UNL     1      32.828 -23.597 -16.757  0.00  0.00    +0.116 C 
ENDBRANCH   1  10
BRANCH   4  15
ATOM     15  S   UNL     1      38.943 -25.211 -14.360  0.00  0.00    +0.057 S 
ATOM     16  O   UNL     1      39.390 -24.626 -13.103  0.00  0.00    -0.153 OA
ATOM     17  O   UNL     1      39.023 -26.652 -14.556  0.00  0.00    -0.153 OA
BRANCH  15  18
ATOM     18  N   UNL     1      39.757 -24.437 -15.648  0.00  0.00    -0.203 NA
ATOM     19  H   UNL     1      39.155 -24.424 -16.471  0.00  0.00    +0.144 HD
ATOM     20  H   UNL     1      40.615 -24.946 -15.862  0.00  0.00    +0.144 HD
ENDBRANCH  15  18
ENDBRANCH   4  15
TORSDOF 3
ENDMDL
MODEL 5
REMARK VINA RESULT:      -8.0      7.430      9.419
REMARK  Name = 5356
REMARK  3 active torsions:
REMARK  status: ('A' for Active; 'I' for Inactive)
REMARK    1  A    between atoms: C_1  and  N_10
REMARK    2  A    between atoms: C_4  and  S_15
REMARK    3  A    between atoms: S_15  and  N_18
REMARK                            x       y       z     vdW  Elec       q    Type
REMARK                         _______ _______ _______ _____ _____    ______ ____
ROOT
ATOM      1  C   UNL     1      34.755 -24.458 -14.475  0.00  0.00    +0.069 C 
ATOM      2  C   UNL     1      33.668 -24.645 -13.626  0.00  0.00    +0.017 C 
ATOM      3  C   UNL     1      34.586 -23.864 -15.721  0.00  0.00    +0.017 C 
ATOM      4  C   UNL     1      32.222 -23.637 -15.279  0.00  0.00    +0.122 C 
ATOM      5  C   UNL     1      32.399 -24.233 -14.030  0.00  0.00    +0.021 C 
ATOM      6  C   UNL     1      33.316 -23.453 -16.125  0.00  0.00    +0.021 C 
ENDROOT
BRANCH   1  10
ATOM      7  S   UNL     1      37.011 -23.636 -13.313  0.00  0.00    +0.057 S 
ATOM      8  O   UNL     1      37.612 -22.803 -14.338  0.00  0.00    -0.154 OA
ATOM      9  O   UNL     1      36.259 -23.041 -12.224  0.00  0.00    -0.154 OA
ATOM     10  N   UNL     1      36.073 -24.884 -14.056  0.00  0.00    -0.194 N 
ATOM     11  C   UNL     1      38.931 -25.567 -13.625  0.00  0.00    +0.029 C 
ATOM     12  C   UNL     1      38.288 -24.648 -12.596  0.00  0.00    +0.173 C 
ATOM     13  C   UNL     1      37.915 -26.512 -14.266  0.00  0.00    +0.025 C 
ATOM     14  C   UNL     1      36.810 -25.765 -15.009  0.00  0.00    +0.116 C 
ENDBRANCH   1  10
BRANCH   4  15
ATOM     15  S   UNL     1      30.632 -23.123 -15.783  0.00  0.00    +0.057 S 
ATOM     16  O   UNL     1      30.007 -22.411 -14.677  0.00  0.00    -0.153 OA
ATOM     17  O   UNL     1      30.745 -22.479 -17.086  0.00  0.00    -0.153 OA
BRANCH  15  18
ATOM     18  N   UNL     1      29.850 -24.629 -15.983  0.00  0.00    -0.203 NA
ATOM     19  H   UNL     1      28.855 -24.523 -15.788  0.00  0.00    +0.144 HD
ATOM     20  H   UNL     1      30.252 -25.309 -15.337  0.00  0.00    +0.144 HD
ENDBRANCH  15  18
ENDBRANCH   4  15
TORSDOF 3
ENDMDL
MODEL 6
REMARK VINA RESULT:      -7.8      7.708      9.189
REMARK  Name = 5356
REMARK  3 active torsions:
REMARK  status: ('A' for Active; 'I' for Inactive)
REMARK    1  A    between atoms: C_1  and  N_10
REMARK    2  A    between atoms: C_4  and  S_15
REMARK    3  A    between atoms: S_15  and  N_18
REMARK                            x       y       z     vdW  Elec       q    Type
REMARK                         _______ _______ _______ _____ _____    ______ ____
ROOT
ATOM      1  C   UNL     1      34.032 -23.645 -14.467  0.00  0.00    +0.069 C 
ATOM      2  C   UNL     1      34.122 -24.169 -13.181  0.00  0.00    +0.017 C 
ATOM      3  C   UNL     1      35.179 -23.416 -15.220  0.00  0.00    +0.017 C 
ATOM      4  C   UNL     1      36.527 -24.241 -13.394  0.00  0.00    +0.122 C 
ATOM      5  C   UNL     1      35.373 -24.468 -12.644  0.00  0.00    +0.021 C 
ATOM      6  C   UNL     1      36.430 -23.715 -14.682  0.00  0.00    +0.021 C 
ENDROOT
BRANCH   1  10
ATOM      7  S   UNL     1      31.407 -23.933 -14.091  0.00  0.00    +0.057 S 
ATOM      8  O   UNL     1      31.195 -25.337 -14.390  0.00  0.00    -0.154 OA
ATOM      9  O   UNL     1      31.532 -23.481 -12.719  0.00  0.00    -0.154 OA
ATOM     10  N   UNL     1      32.734 -23.335 -15.025  0.00  0.00    -0.194 N 
ATOM     11  C   UNL     1      30.088 -23.153 -16.364  0.00  0.00    +0.029 C 
ATOM     12  C   UNL     1      30.097 -22.996 -14.850  0.00  0.00    +0.173 C 
ATOM     13  C   UNL     1      31.399 -22.689 -16.998  0.00  0.00    +0.025 C 
ATOM     14  C   UNL     1      32.603 -23.488 -16.504  0.00  0.00    +0.116 C 
ENDBRANCH   1  10
BRANCH   4  15
ATOM     15  S   UNL     1      38.094 -24.616 -12.720  0.00  0.00    +0.057 S 
ATOM     16  O   UNL     1      37.960 -25.794 -11.875  0.00  0.00    -0.153 OA
ATOM     17  O   UNL     1      39.076 -24.605 -13.796  0.00  0.00    -0.153 OA
BRANCH  15  18
ATOM     18  N   UNL     1      38.356 -23.250 -11.726  0.00  0.00    -0.203 NA
ATOM     19  H   UNL     1      39.142 -22.712 -12.088  0.00  0.00    +0.144 HD
ATOM     20  H   UNL     1      38.562 -23.557 -10.775  0.00  0.00    +0.144 HD
ENDBRANCH  15  18
ENDBRANCH   4  15
TORSDOF 3
ENDMDL
MODEL 7
REMARK VINA RESULT:      -7.8      4.445      6.687
REMARK  Name = 5356
REMARK  3 active torsions:
REMARK  status: ('A' for Active; 'I' for Inactive)
REMARK    1  A    between atoms: C_1  and  N_10
REMARK    2  A    between atoms: C_4  and  S_15
REMARK    3  A    between atoms: S_15  and  N_18
REMARK                            x       y       z     vdW  Elec       q    Type
REMARK                         _______ _______ _______ _____ _____    ______ ____
ROOT
ATOM      1  C   UNL     1      35.406 -22.800 -16.376  0.00  0.00    +0.069 C 
ATOM      2  C   UNL     1      36.603 -22.534 -15.719  0.00  0.00    +0.017 C 
ATOM      3  C   UNL     1      34.491 -23.703 -15.844  0.00  0.00    +0.017 C 
ATOM      4  C   UNL     1      35.976 -24.087 -13.977  0.00  0.00    +0.122 C 
ATOM      5  C   UNL     1      36.889 -23.180 -14.516  0.00  0.00    +0.021 C 
ATOM      6  C   UNL     1      34.777 -24.349 -14.642  0.00  0.00    +0.021 C 
ENDROOT
BRANCH   1  10
ATOM      7  S   UNL     1      33.666 -22.690 -18.394  0.00  0.00    +0.057 S 
ATOM      8  O   UNL     1      33.948 -23.912 -19.124  0.00  0.00    -0.154 OA
ATOM      9  O   UNL     1      32.556 -22.624 -17.464  0.00  0.00    -0.154 OA
ATOM     10  N   UNL     1      35.109 -22.130 -17.623  0.00  0.00    -0.194 N 
ATOM     11  C   UNL     1      34.718 -21.141 -20.397  0.00  0.00    +0.029 C 
ATOM     12  C   UNL     1      33.460 -21.371 -19.573  0.00  0.00    +0.173 C 
ATOM     13  C   UNL     1      35.919 -20.780 -19.523  0.00  0.00    +0.025 C 
ATOM     14  C   UNL     1      36.270 -21.883 -18.527  0.00  0.00    +0.116 C 
ENDBRANCH   1  10
BRANCH   4  15
ATOM     15  S   UNL     1      36.335 -24.896 -12.472  0.00  0.00    +0.057 S 
ATOM     16  O   UNL     1      37.535 -24.296 -11.904  0.00  0.00    -0.153 OA
ATOM     17  O   UNL     1      35.114 -24.961 -11.679  0.00  0.00    -0.153 OA
BRANCH  15  18
ATOM     18  N   UNL     1      36.713 -26.467 -13.027  0.00  0.00    -0.203 NA
ATOM     19  H   UNL     1      37.560 -26.796 -12.566  0.00  0.00    +0.144 HD
ATOM     20  H   UNL     1      36.862 -26.444 -14.036  0.00  0.00    +0.144 HD
ENDBRANCH  15  18
ENDBRANCH   4  15
TORSDOF 3
ENDMDL
MODEL 8
REMARK VINA RESULT:      -7.8      7.243      8.850
REMARK  Name = 5356
REMARK  3 active torsions:
REMARK  status: ('A' for Active; 'I' for Inactive)
REMARK    1  A    between atoms: C_1  and  N_10
REMARK    2  A    between atoms: C_4  and  S_15
REMARK    3  A    between atoms: S_15  and  N_18
REMARK                            x       y       z     vdW  Elec       q    Type
REMARK                         _______ _______ _______ _____ _____    ______ ____
ROOT
ATOM      1  C   UNL     1      33.245 -23.433 -14.569  0.00  0.00    +0.069 C 
ATOM      2  C   UNL     1      32.216 -23.381 -13.634  0.00  0.00    +0.017 C 
ATOM      3  C   UNL     1      32.972 -23.315 -15.928  0.00  0.00    +0.017 C 
ATOM      4  C   UNL     1      30.621 -23.089 -15.425  0.00  0.00    +0.122 C 
ATOM      5  C   UNL     1      30.901 -23.208 -14.063  0.00  0.00    +0.021 C 
ATOM      6  C   UNL     1      31.657 -23.143 -16.357  0.00  0.00    +0.021 C 
ENDROOT
BRANCH   1  10
ATOM      7  S   UNL     1      35.693 -24.123 -15.372  0.00  0.00    +0.057 S 
ATOM      8  O   UNL     1      35.574 -25.556 -15.563  0.00  0.00    -0.154 OA
ATOM      9  O   UNL     1      35.603 -23.216 -16.500  0.00  0.00    -0.154 OA
ATOM     10  N   UNL     1      34.610 -23.612 -14.124  0.00  0.00    -0.194 N 
ATOM     11  C   UNL     1      37.293 -24.456 -13.171  0.00  0.00    +0.029 C 
ATOM     12  C   UNL     1      37.234 -23.797 -14.541  0.00  0.00    +0.173 C 
ATOM     13  C   UNL     1      36.174 -23.970 -12.250  0.00  0.00    +0.025 C 
ATOM     14  C   UNL     1      34.786 -24.282 -12.802  0.00  0.00    +0.116 C 
ENDBRANCH   1  10
BRANCH   4  15
ATOM     15  S   UNL     1      28.973 -22.873 -15.961  0.00  0.00    +0.057 S 
ATOM     16  O   UNL     1      28.362 -21.826 -15.155  0.00  0.00    -0.153 OA
ATOM     17  O   UNL     1      28.970 -22.763 -17.414  0.00  0.00    -0.153 OA
BRANCH  15  18
ATOM     18  N   UNL     1      28.289 -24.377 -15.524  0.00  0.00    -0.203 NA
ATOM     19  H   UNL     1      28.675 -24.680 -14.631  0.00  0.00    +0.144 HD
ATOM     20  H   UNL     1      28.505 -25.070 -16.241  0.00  0.00    +0.144 HD
ENDBRANCH  15  18
ENDBRANCH   4  15
TORSDOF 3
ENDMDL
MODEL 9
REMARK VINA RESULT:      -7.7      7.150      9.561
REMARK  Name = 5356
REMARK  3 active torsions:
REMARK  status: ('A' for Active; 'I' for Inactive)
REMARK    1  A    between atoms: C_1  and  N_10
REMARK    2  A    between atoms: C_4  and  S_15
REMARK    3  A    between atoms: S_15  and  N_18
REMARK                            x       y       z     vdW  Elec       q    Type
REMARK                         _______ _______ _______ _____ _____    ______ ____
ROOT
ATOM      1  C   UNL     1      32.679 -10.469 -23.332  0.00  0.00    +0.069 C 
ATOM      2  C   UNL     1      31.949 -11.010 -22.278  0.00  0.00    +0.017 C 
ATOM      3  C   UNL     1      33.564 -11.258 -24.059  0.00  0.00    +0.017 C 
ATOM      4  C   UNL     1      32.994 -13.152 -22.672  0.00  0.00    +0.122 C 
ATOM      5  C   UNL     1      32.107 -12.355 -21.947  0.00  0.00    +0.021 C 
ATOM      6  C   UNL     1      33.723 -12.603 -23.727  0.00  0.00    +0.021 C 
ENDROOT
BRANCH   1  10
ATOM      7  S   UNL     1      33.842  -8.073 -23.202  0.00  0.00    +0.057 S 
ATOM      8  O   UNL     1      33.720  -7.735 -21.797  0.00  0.00    -0.154 OA
ATOM      9  O   UNL     1      35.078  -8.620 -23.726  0.00  0.00    -0.154 OA
ATOM     10  N   UNL     1      32.514  -9.073 -23.676  0.00  0.00    -0.194 N 
ATOM     11  C   UNL     1      32.019  -6.155 -23.918  0.00  0.00    +0.029 C 
ATOM     12  C   UNL     1      33.445  -6.625 -24.161  0.00  0.00    +0.173 C 
ATOM     13  C   UNL     1      30.991  -7.227 -24.276  0.00  0.00    +0.025 C 
ATOM     14  C   UNL     1      31.156  -8.497 -23.445  0.00  0.00    +0.116 C 
ENDBRANCH   1  10
BRANCH   4  15
ATOM     15  S   UNL     1      33.192 -14.836 -22.256  0.00  0.00    +0.057 S 
ATOM     16  O   UNL     1      32.039 -15.253 -21.470  0.00  0.00    -0.153 OA
ATOM     17  O   UNL     1      33.550 -15.572 -23.461  0.00  0.00    -0.153 OA
BRANCH  15  18
ATOM     18  N   UNL     1      34.559 -14.761 -21.233  0.00  0.00    -0.203 NA
ATOM     19  H   UNL     1      35.143 -15.582 -21.386  0.00  0.00    +0.144 HD
ATOM     20  H   UNL     1      34.254 -14.737 -20.260  0.00  0.00    +0.144 HD
ENDBRANCH  15  18
ENDBRANCH   4  15
TORSDOF 3
ENDMDL
