MODEL 1
REMARK VINA RESULT:      -8.8      0.000      0.000
REMARK  Name = 3647
REMARK  3 active torsions:
REMARK  status: ('A' for Active; 'I' for Inactive)
REMARK    1  A    between atoms: C_8  and  S_19
REMARK    2  A    between atoms: C_9  and  C_18
REMARK    3  A    between atoms: S_19  and  N_22
REMARK                            x       y       z     vdW  Elec       q    Type
REMARK                         _______ _______ _______ _____ _____    ______ ____
ROOT
ATOM      1  S   UNL     1      31.026 -24.171 -13.920  0.00  0.00    +0.063 S 
ATOM      2  O   UNL     1      30.697 -25.551 -14.218  0.00  0.00    -0.153 OA
ATOM      3  O   UNL     1      30.836 -23.610 -12.596  0.00  0.00    -0.153 OA
ATOM      4  N   UNL     1      32.154 -23.054 -16.581  0.00  0.00    -0.317 N 
ATOM      5  N   UNL     1      30.269 -23.142 -15.055  0.00  0.00    -0.160 NA
ATOM      6  C   UNL     1      32.723 -23.960 -14.360  0.00  0.00    +0.136 C 
ATOM      7  C   UNL     1      33.072 -23.439 -15.616  0.00  0.00    +0.064 C 
ATOM      8  C   UNL     1      35.031 -24.139 -13.698  0.00  0.00    +0.127 C 
ATOM      9  C   UNL     1      35.412 -23.619 -14.932  0.00  0.00    +0.091 C 
ATOM     10  C   UNL     1      33.682 -24.309 -13.405  0.00  0.00    +0.041 C 
ATOM     11  C   UNL     1      30.736 -23.301 -16.444  0.00  0.00    +0.182 C 
ATOM     12  C   UNL     1      34.442 -23.270 -15.876  0.00  0.00    +0.021 C 
ATOM     13  H   UNL     1      32.480 -22.594 -17.389  0.00  0.00    +0.148 HD
ATOM     14  H   UNL     1      30.440 -22.177 -14.772  0.00  0.00    +0.151 HD
ENDROOT
BRANCH   9  18
ATOM     15  F   UNL     1      37.498 -22.556 -14.441  0.00  0.00    -0.166 F 
ATOM     16  F   UNL     1      37.585 -24.570 -15.243  0.00  0.00    -0.166 F 
ATOM     17  F   UNL     1      37.021 -22.911 -16.533  0.00  0.00    -0.166 F 
ATOM     18  C   UNL     1      36.852 -23.419 -15.278  0.00  0.00    +0.420 C 
ENDBRANCH   9  18
BRANCH   8  19
ATOM     19  S   UNL     1      36.219 -24.584 -12.493  0.00  0.00    +0.057 S 
ATOM     20  O   UNL     1      36.914 -25.758 -13.018  0.00  0.00    -0.153 OA
ATOM     21  O   UNL     1      36.958 -23.359 -12.207  0.00  0.00    -0.153 OA
BRANCH  19  22
ATOM     22  N   UNL     1      35.404 -25.065 -11.057  0.00  0.00    -0.203 NA
ATOM     23  H   UNL     1      36.040 -25.604 -10.469  0.00  0.00    +0.144 HD
ATOM     24  H   UNL     1      34.597 -25.641 -11.300  0.00  0.00    +0.144 HD
ENDBRANCH  19  22
ENDBRANCH   8  19
TORSDOF 3
ENDMDL
MODEL 2
REMARK VINA RESULT:      -8.0     11.620     12.536
REMARK  Name = 3647
REMARK  3 active torsions:
REMARK  status: ('A' for Active; 'I' for Inactive)
REMARK    1  A    between atoms: C_8  and  S_19
REMARK    2  A    between atoms: C_9  and  C_18
REMARK    3  A    between atoms: S_19  and  N_22
REMARK                            x       y       z     vdW  Elec       q    Type
REMARK                         _______ _______ _______ _____ _____    ______ ____
ROOT
ATOM      1  S   UNL     1      33.293 -13.136 -24.127  0.00  0.00    +0.063 S 
ATOM      2  O   UNL     1      31.886 -13.083 -23.784  0.00  0.00    -0.153 OA
ATOM      3  O   UNL     1      34.292 -12.408 -23.369  0.00  0.00    -0.153 OA
ATOM      4  N   UNL     1      33.425 -15.066 -26.549  0.00  0.00    -0.317 N 
ATOM      5  N   UNL     1      33.495 -12.764 -25.782  0.00  0.00    -0.160 NA
ATOM      6  C   UNL     1      33.741 -14.844 -24.114  0.00  0.00    +0.136 C 
ATOM      7  C   UNL     1      33.749 -15.586 -25.306  0.00  0.00    +0.064 C 
ATOM      8  C   UNL     1      34.487 -16.740 -22.829  0.00  0.00    +0.127 C 
ATOM      9  C   UNL     1      34.512 -17.502 -23.993  0.00  0.00    +0.091 C 
ATOM     10  C   UNL     1      34.104 -15.404 -22.885  0.00  0.00    +0.041 C 
ATOM     11  C   UNL     1      32.890 -13.732 -26.715  0.00  0.00    +0.182 C 
ATOM     12  C   UNL     1      34.151 -16.929 -25.216  0.00  0.00    +0.021 C 
ATOM     13  H   UNL     1      33.565 -15.623 -27.349  0.00  0.00    +0.148 HD
ATOM     14  H   UNL     1      34.495 -12.719 -25.977  0.00  0.00    +0.151 HD
ENDROOT
BRANCH   9  18
ATOM     15  F   UNL     1      36.254 -19.121 -23.730  0.00  0.00    -0.166 F 
ATOM     16  F   UNL     1      34.282 -19.673 -23.014  0.00  0.00    -0.166 F 
ATOM     17  F   UNL     1      34.671 -19.573 -25.152  0.00  0.00    -0.166 F 
ATOM     18  C   UNL     1      34.922 -18.939 -23.970  0.00  0.00    +0.420 C 
ENDBRANCH   9  18
BRANCH   8  19
ATOM     19  S   UNL     1      34.935 -17.425 -21.283  0.00  0.00    +0.057 S 
ATOM     20  O   UNL     1      33.831 -18.297 -20.887  0.00  0.00    -0.153 OA
ATOM     21  O   UNL     1      36.272 -17.975 -21.476  0.00  0.00    -0.153 OA
BRANCH  19  22
ATOM     22  N   UNL     1      35.037 -16.161 -20.121  0.00  0.00    -0.203 NA
ATOM     23  H   UNL     1      34.796 -16.526 -19.199  0.00  0.00    +0.144 HD
ATOM     24  H   UNL     1      34.387 -15.415 -20.371  0.00  0.00    +0.144 HD
ENDBRANCH  19  22
ENDBRANCH   8  19
TORSDOF 3
ENDMDL
MODEL 3
REMARK VINA RESULT:      -8.0      3.863      5.653
REMARK  Name = 3647
REMARK  3 active torsions:
REMARK  status: ('A' for Active; 'I' for Inactive)
REMARK    1  A    between atoms: C_8  and  S_19
REMARK    2  A    between atoms: C_9  and  C_18
REMARK    3  A    between atoms: S_19  and  N_22
REMARK                            x       y       z     vdW  Elec       q    Type
REMARK                         _______ _______ _______ _____ _____    ______ ____
ROOT
ATOM      1  S   UNL     1      33.977 -22.258 -19.218  0.00  0.00    +0.063 S 
ATOM      2  O   UNL     1      34.188 -23.480 -19.968  0.00  0.00    -0.153 OA
ATOM      3  O   UNL     1      32.975 -21.286 -19.610  0.00  0.00    -0.153 OA
ATOM      4  N   UNL     1      35.982 -22.441 -16.862  0.00  0.00    -0.317 N 
ATOM      5  N   UNL     1      35.466 -21.445 -19.014  0.00  0.00    -0.160 NA
ATOM      6  C   UNL     1      33.637 -22.750 -17.557  0.00  0.00    +0.136 C 
ATOM      7  C   UNL     1      34.665 -22.783 -16.601  0.00  0.00    +0.064 C 
ATOM      8  C   UNL     1      31.994 -23.445 -15.939  0.00  0.00    +0.127 C 
ATOM      9  C   UNL     1      32.987 -23.483 -14.965  0.00  0.00    +0.091 C 
ATOM     10  C   UNL     1      32.314 -23.075 -17.241  0.00  0.00    +0.041 C 
ATOM     11  C   UNL     1      36.460 -22.166 -18.199  0.00  0.00    +0.182 C 
ATOM     12  C   UNL     1      34.306 -23.150 -15.294  0.00  0.00    +0.021 C 
ATOM     13  H   UNL     1      36.616 -22.383 -16.110  0.00  0.00    +0.148 HD
ATOM     14  H   UNL     1      35.279 -20.549 -18.566  0.00  0.00    +0.151 HD
ENDROOT
BRANCH   9  18
ATOM     15  F   UNL     1      31.856 -22.989 -12.916  0.00  0.00    -0.166 F 
ATOM     16  F   UNL     1      32.056 -25.082 -13.450  0.00  0.00    -0.166 F 
ATOM     17  F   UNL     1      33.797 -23.962 -12.781  0.00  0.00    -0.166 F 
ATOM     18  C   UNL     1      32.678 -23.872 -13.556  0.00  0.00    +0.420 C 
ENDBRANCH   9  18
BRANCH   8  19
ATOM     19  S   UNL     1      30.334 -23.852 -15.562  0.00  0.00    +0.057 S 
ATOM     20  O   UNL     1      30.296 -25.304 -15.402  0.00  0.00    -0.153 OA
ATOM     21  O   UNL     1      29.965 -22.980 -14.452  0.00  0.00    -0.153 OA
BRANCH  19  22
ATOM     22  N   UNL     1      29.342 -23.454 -16.909  0.00  0.00    -0.203 NA
ATOM     23  H   UNL     1      29.918 -23.047 -17.647  0.00  0.00    +0.144 HD
ATOM     24  H   UNL     1      28.633 -22.780 -16.622  0.00  0.00    +0.144 HD
ENDBRANCH  19  22
ENDBRANCH   8  19
TORSDOF 3
ENDMDL
MODEL 4
REMARK VINA RESULT:      -7.8      3.400      4.657
REMARK  Name = 3647
REMARK  3 active torsions:
REMARK  status: ('A' for Active; 'I' for Inactive)
REMARK    1  A    between atoms: C_8  and  S_19
REMARK    2  A    between atoms: C_9  and  C_18
REMARK    3  A    between atoms: S_19  and  N_22
REMARK                            x       y       z     vdW  Elec       q    Type
REMARK                         _______ _______ _______ _____ _____    ______ ____
ROOT
ATOM      1  S   UNL     1      33.870 -22.324 -18.968  0.00  0.00    +0.063 S 
ATOM      2  O   UNL     1      34.008 -23.544 -19.738  0.00  0.00    -0.153 OA
ATOM      3  O   UNL     1      32.638 -21.560 -18.961  0.00  0.00    -0.153 OA
ATOM      4  N   UNL     1      36.596 -22.009 -17.527  0.00  0.00    -0.317 N 
ATOM      5  N   UNL     1      35.159 -21.264 -19.335  0.00  0.00    -0.160 NA
ATOM      6  C   UNL     1      34.256 -22.747 -17.297  0.00  0.00    +0.136 C 
ATOM      7  C   UNL     1      35.549 -22.544 -16.792  0.00  0.00    +0.064 C 
ATOM      8  C   UNL     1      33.470 -23.590 -15.182  0.00  0.00    +0.127 C 
ATOM      9  C   UNL     1      34.741 -23.395 -14.648  0.00  0.00    +0.091 C 
ATOM     10  C   UNL     1      33.221 -23.263 -16.511  0.00  0.00    +0.041 C 
ATOM     11  C   UNL     1      36.494 -21.752 -18.947  0.00  0.00    +0.182 C 
ATOM     12  C   UNL     1      35.765 -22.873 -15.444  0.00  0.00    +0.021 C 
ATOM     13  H   UNL     1      37.439 -21.794 -17.065  0.00  0.00    +0.148 HD
ATOM     14  H   UNL     1      34.991 -20.382 -18.852  0.00  0.00    +0.151 HD
ENDROOT
BRANCH   9  18
ATOM     15  F   UNL     1      34.061 -23.350 -12.355  0.00  0.00    -0.166 F 
ATOM     16  F   UNL     1      35.219 -25.066 -13.004  0.00  0.00    -0.166 F 
ATOM     17  F   UNL     1      36.183 -23.129 -12.776  0.00  0.00    -0.166 F 
ATOM     18  C   UNL     1      35.043 -23.730 -13.223  0.00  0.00    +0.420 C 
ENDBRANCH   9  18
BRANCH   8  19
ATOM     19  S   UNL     1      32.166 -24.238 -14.213  0.00  0.00    +0.057 S 
ATOM     20  O   UNL     1      32.573 -25.588 -13.829  0.00  0.00    -0.153 OA
ATOM     21  O   UNL     1      31.906 -23.230 -13.190  0.00  0.00    -0.153 OA
BRANCH  19  22
ATOM     22  N   UNL     1      30.760 -24.381 -15.193  0.00  0.00    -0.203 NA
ATOM     23  H   UNL     1      29.983 -24.719 -14.626  0.00  0.00    +0.144 HD
ATOM     24  H   UNL     1      30.939 -25.041 -15.951  0.00  0.00    +0.144 HD
ENDBRANCH  19  22
ENDBRANCH   8  19
TORSDOF 3
ENDMDL
MODEL 5
REMARK VINA RESULT:      -7.5      4.394      6.217
REMARK  Name = 3647
REMARK  3 active torsions:
REMARK  status: ('A' for Active; 'I' for Inactive)
REMARK    1  A    between atoms: C_8  and  S_19
REMARK    2  A    between atoms: C_9  and  C_18
REMARK    3  A    between atoms: S_19  and  N_22
REMARK                            x       y       z     vdW  Elec       q    Type
REMARK                         _______ _______ _______ _____ _____    ______ ____
ROOT
ATOM      1  S   UNL     1      33.738 -22.522 -18.774  0.00  0.00    +0.063 S 
ATOM      2  O   UNL     1      33.913 -23.802 -19.431  0.00  0.00    -0.153 OA
ATOM      3  O   UNL     1      33.008 -21.437 -19.400  0.00  0.00    -0.153 OA
ATOM      4  N   UNL     1      35.132 -22.866 -16.028  0.00  0.00    -0.317 N 
ATOM      5  N   UNL     1      35.255 -21.927 -18.262  0.00  0.00    -0.160 NA
ATOM      6  C   UNL     1      32.974 -22.864 -17.220  0.00  0.00    +0.136 C 
ATOM      7  C   UNL     1      33.752 -22.995 -16.058  0.00  0.00    +0.064 C 
ATOM      8  C   UNL     1      30.932 -23.219 -15.993  0.00  0.00    +0.127 C 
ATOM      9  C   UNL     1      31.673 -23.348 -14.822  0.00  0.00    +0.091 C 
ATOM     10  C   UNL     1      31.580 -22.973 -17.199  0.00  0.00    +0.041 C 
ATOM     11  C   UNL     1      35.925 -22.739 -17.231  0.00  0.00    +0.182 C 
ATOM     12  C   UNL     1      33.066 -23.232 -14.856  0.00  0.00    +0.021 C 
ATOM     13  H   UNL     1      35.589 -22.859 -15.155  0.00  0.00    +0.148 HD
ATOM     14  H   UNL     1      35.117 -20.989 -17.887  0.00  0.00    +0.151 HD
ENDROOT
BRANCH   9  18
ATOM     15  F   UNL     1      29.831 -22.935 -13.352  0.00  0.00    -0.166 F 
ATOM     16  F   UNL     1      30.702 -24.922 -13.305  0.00  0.00    -0.166 F 
ATOM     17  F   UNL     1      31.786 -23.241 -12.449  0.00  0.00    -0.166 F 
ATOM     18  C   UNL     1      31.009 -23.607 -13.509  0.00  0.00    +0.420 C 
ENDBRANCH   9  18
BRANCH   8  19
ATOM     19  S   UNL     1      29.188 -23.356 -15.986  0.00  0.00    +0.057 S 
ATOM     20  O   UNL     1      28.882 -24.654 -15.389  0.00  0.00    -0.153 OA
ATOM     21  O   UNL     1      28.706 -22.129 -15.362  0.00  0.00    -0.153 OA
BRANCH  19  22
ATOM     22  N   UNL     1      28.623 -23.389 -17.610  0.00  0.00    -0.203 NA
ATOM     23  H   UNL     1      28.189 -24.292 -17.801  0.00  0.00    +0.144 HD
ATOM     24  H   UNL     1      29.409 -23.249 -18.246  0.00  0.00    +0.144 HD
ENDBRANCH  19  22
ENDBRANCH   8  19
TORSDOF 3
ENDMDL
MODEL 6
REMARK VINA RESULT:      -7.5      3.698      5.870
REMARK  Name = 3647
REMARK  3 active torsions:
REMARK  status: ('A' for Active; 'I' for Inactive)
REMARK    1  A    between atoms: C_8  and  S_19
REMARK    2  A    between atoms: C_9  and  C_18
REMARK    3  A    between atoms: S_19  and  N_22
REMARK                            x       y       z     vdW  Elec       q    Type
REMARK                         _______ _______ _______ _____ _____    ______ ____
ROOT
ATOM      1  S   UNL     1      37.250 -24.064 -14.131  0.00  0.00    +0.063 S 
ATOM      2  O   UNL     1      37.688 -25.400 -14.485  0.00  0.00    -0.153 OA
ATOM      3  O   UNL     1      37.918 -22.883 -14.642  0.00  0.00    -0.153 OA
ATOM      4  N   UNL     1      34.787 -24.515 -12.305  0.00  0.00    -0.317 N 
ATOM      5  N   UNL     1      37.139 -23.927 -12.432  0.00  0.00    -0.160 NA
ATOM      6  C   UNL     1      35.547 -23.965 -14.585  0.00  0.00    +0.136 C 
ATOM      7  C   UNL     1      34.543 -24.201 -13.633  0.00  0.00    +0.064 C 
ATOM      8  C   UNL     1      33.926 -23.508 -16.307  0.00  0.00    +0.127 C 
ATOM      9  C   UNL     1      32.906 -23.730 -15.387  0.00  0.00    +0.091 C 
ATOM     10  C   UNL     1      35.254 -23.621 -15.908  0.00  0.00    +0.041 C 
ATOM     11  C   UNL     1      36.117 -24.786 -11.806  0.00  0.00    +0.182 C 
ATOM     12  C   UNL     1      33.213 -24.067 -14.065  0.00  0.00    +0.021 C 
ATOM     13  H   UNL     1      34.028 -24.554 -11.679  0.00  0.00    +0.148 HD
ATOM     14  H   UNL     1      36.919 -22.957 -12.206  0.00  0.00    +0.151 HD
ENDROOT
BRANCH   9  18
ATOM     15  F   UNL     1      31.105 -22.346 -16.139  0.00  0.00    -0.166 F 
ATOM     16  F   UNL     1      31.128 -24.399 -16.841  0.00  0.00    -0.166 F 
ATOM     17  F   UNL     1      30.621 -23.965 -14.770  0.00  0.00    -0.166 F 
ATOM     18  C   UNL     1      31.469 -23.612 -15.779  0.00  0.00    +0.420 C 
ENDBRANCH   9  18
BRANCH   8  19
ATOM     19  S   UNL     1      33.577 -23.081 -17.968  0.00  0.00    +0.057 S 
ATOM     20  O   UNL     1      33.421 -24.342 -18.689  0.00  0.00    -0.153 OA
ATOM     21  O   UNL     1      32.471 -22.132 -17.899  0.00  0.00    -0.153 OA
BRANCH  19  22
ATOM     22  N   UNL     1      34.939 -22.270 -18.633  0.00  0.00    -0.203 NA
ATOM     23  H   UNL     1      35.132 -22.638 -19.565  0.00  0.00    +0.144 HD
ATOM     24  H   UNL     1      35.752 -22.421 -18.034  0.00  0.00    +0.144 HD
ENDBRANCH  19  22
ENDBRANCH   8  19
TORSDOF 3
ENDMDL
MODEL 7
REMARK VINA RESULT:      -7.4      3.284      4.093
REMARK  Name = 3647
REMARK  3 active torsions:
REMARK  status: ('A' for Active; 'I' for Inactive)
REMARK    1  A    between atoms: C_8  and  S_19
REMARK    2  A    between atoms: C_9  and  C_18
REMARK    3  A    between atoms: S_19  and  N_22
REMARK                            x       y       z     vdW  Elec       q    Type
REMARK                         _______ _______ _______ _____ _____    ______ ____
ROOT
ATOM      1  S   UNL     1      33.754 -22.665 -18.636  0.00  0.00    +0.063 S 
ATOM      2  O   UNL     1      33.918 -23.914 -19.352  0.00  0.00    -0.153 OA
ATOM      3  O   UNL     1      32.442 -22.120 -18.344  0.00  0.00    -0.153 OA
ATOM      4  N   UNL     1      36.645 -21.761 -17.983  0.00  0.00    -0.317 N 
ATOM      5  N   UNL     1      34.689 -21.446 -19.384  0.00  0.00    -0.160 NA
ATOM      6  C   UNL     1      34.617 -22.854 -17.107  0.00  0.00    +0.136 C 
ATOM      7  C   UNL     1      35.934 -22.389 -16.972  0.00  0.00    +0.064 C 
ATOM      8  C   UNL     1      34.557 -23.605 -14.819  0.00  0.00    +0.127 C 
ATOM      9  C   UNL     1      35.861 -23.150 -14.650  0.00  0.00    +0.091 C 
ATOM     10  C   UNL     1      33.927 -23.455 -16.050  0.00  0.00    +0.041 C 
ATOM     11  C   UNL     1      36.146 -21.665 -19.337  0.00  0.00    +0.182 C 
ATOM     12  C   UNL     1      36.538 -22.545 -15.714  0.00  0.00    +0.021 C 
ATOM     13  H   UNL     1      37.522 -21.366 -17.772  0.00  0.00    +0.148 HD
ATOM     14  H   UNL     1      34.486 -20.561 -18.920  0.00  0.00    +0.151 HD
ENDROOT
BRANCH   9  18
ATOM     15  F   UNL     1      37.705 -22.540 -13.253  0.00  0.00    -0.166 F 
ATOM     16  F   UNL     1      35.808 -22.916 -12.270  0.00  0.00    -0.166 F 
ATOM     17  F   UNL     1      36.954 -24.574 -13.090  0.00  0.00    -0.166 F 
ATOM     18  C   UNL     1      36.568 -23.290 -13.341  0.00  0.00    +0.420 C 
ENDBRANCH   9  18
BRANCH   8  19
ATOM     19  S   UNL     1      33.681 -24.363 -13.509  0.00  0.00    +0.057 S 
ATOM     20  O   UNL     1      34.648 -25.199 -12.801  0.00  0.00    -0.153 OA
ATOM     21  O   UNL     1      33.003 -23.274 -12.814  0.00  0.00    -0.153 OA
BRANCH  19  22
ATOM     22  N   UNL     1      32.482 -25.406 -14.168  0.00  0.00    -0.203 NA
ATOM     23  H   UNL     1      32.060 -25.955 -13.420  0.00  0.00    +0.144 HD
ATOM     24  H   UNL     1      32.913 -26.033 -14.848  0.00  0.00    +0.144 HD
ENDBRANCH  19  22
ENDBRANCH   8  19
TORSDOF 3
ENDMDL
MODEL 8
REMARK VINA RESULT:      -7.3      2.526      5.246
REMARK  Name = 3647
REMARK  3 active torsions:
REMARK  status: ('A' for Active; 'I' for Inactive)
REMARK    1  A    between atoms: C_8  and  S_19
REMARK    2  A    between atoms: C_9  and  C_18
REMARK    3  A    between atoms: S_19  and  N_22
REMARK                            x       y       z     vdW  Elec       q    Type
REMARK                         _______ _______ _______ _____ _____    ______ ____
ROOT
ATOM      1  S   UNL     1      36.226 -24.353 -12.061  0.00  0.00    +0.063 S 
ATOM      2  O   UNL     1      36.496 -23.045 -11.496  0.00  0.00    -0.153 OA
ATOM      3  O   UNL     1      35.594 -25.402 -11.285  0.00  0.00    -0.153 OA
ATOM      4  N   UNL     1      37.205 -24.146 -14.993  0.00  0.00    -0.317 N 
ATOM      5  N   UNL     1      37.652 -24.983 -12.759  0.00  0.00    -0.160 NA
ATOM      6  C   UNL     1      35.244 -24.077 -13.502  0.00  0.00    +0.136 C 
ATOM      7  C   UNL     1      35.845 -24.006 -14.769  0.00  0.00    +0.064 C 
ATOM      8  C   UNL     1      33.045 -23.763 -14.433  0.00  0.00    +0.127 C 
ATOM      9  C   UNL     1      33.608 -23.694 -15.704  0.00  0.00    +0.091 C 
ATOM     10  C   UNL     1      33.862 -23.958 -13.324  0.00  0.00    +0.041 C 
ATOM     11  C   UNL     1      38.165 -24.224 -13.914  0.00  0.00    +0.182 C 
ATOM     12  C   UNL     1      34.991 -23.819 -15.868  0.00  0.00    +0.021 C 
ATOM     13  H   UNL     1      37.531 -24.196 -15.922  0.00  0.00    +0.148 HD
ATOM     14  H   UNL     1      37.460 -25.936 -13.067  0.00  0.00    +0.151 HD
ENDROOT
BRANCH   9  18
ATOM     15  F   UNL     1      31.619 -24.241 -16.917  0.00  0.00    -0.166 F 
ATOM     16  F   UNL     1      32.341 -22.201 -17.078  0.00  0.00    -0.166 F 
ATOM     17  F   UNL     1      33.412 -23.813 -18.071  0.00  0.00    -0.166 F 
ATOM     18  C   UNL     1      32.760 -23.490 -16.918  0.00  0.00    +0.420 C 
ENDBRANCH   9  18
BRANCH   8  19
ATOM     19  S   UNL     1      31.318 -23.613 -14.193  0.00  0.00    +0.057 S 
ATOM     20  O   UNL     1      30.931 -22.342 -14.799  0.00  0.00    -0.153 OA
ATOM     21  O   UNL     1      30.750 -24.865 -14.683  0.00  0.00    -0.153 OA
BRANCH  19  22
ATOM     22  N   UNL     1      30.997 -23.502 -12.508  0.00  0.00    -0.203 NA
ATOM     23  H   UNL     1      31.773 -23.030 -12.044  0.00  0.00    +0.144 HD
ATOM     24  H   UNL     1      30.889 -24.439 -12.119  0.00  0.00    +0.144 HD
ENDBRANCH  19  22
ENDBRANCH   8  19
TORSDOF 3
ENDMDL
MODEL 9
REMARK VINA RESULT:      -7.2      2.945      5.337
REMARK  Name = 3647
REMARK  3 active torsions:
REMARK  status: ('A' for Active; 'I' for Inactive)
REMARK    1  A    between atoms: C_8  and  S_19
REMARK    2  A    between atoms: C_9  and  C_18
REMARK    3  A    between atoms: S_19  and  N_22
REMARK                            x       y       z     vdW  Elec       q    Type
REMARK                         _______ _______ _______ _____ _____    ______ ____
ROOT
ATOM      1  S   UNL     1      36.638 -24.341 -13.709  0.00  0.00    +0.063 S 
ATOM      2  O   UNL     1      36.855 -23.306 -12.717  0.00  0.00    -0.153 OA
ATOM      3  O   UNL     1      36.586 -25.745 -13.348  0.00  0.00    -0.153 OA
ATOM      4  N   UNL     1      36.300 -22.798 -16.375  0.00  0.00    -0.317 N 
ATOM      5  N   UNL     1      37.757 -24.155 -14.987  0.00  0.00    -0.160 NA
ATOM      6  C   UNL     1      35.128 -23.934 -14.527  0.00  0.00    +0.136 C 
ATOM      7  C   UNL     1      35.145 -23.222 -15.737  0.00  0.00    +0.064 C 
ATOM      8  C   UNL     1      32.725 -24.091 -14.554  0.00  0.00    +0.127 C 
ATOM      9  C   UNL     1      32.706 -23.393 -15.758  0.00  0.00    +0.091 C 
ATOM     10  C   UNL     1      33.939 -24.368 -13.934  0.00  0.00    +0.041 C 
ATOM     11  C   UNL     1      37.607 -22.913 -15.766  0.00  0.00    +0.182 C 
ATOM     12  C   UNL     1      33.903 -22.969 -16.343  0.00  0.00    +0.021 C 
ATOM     13  H   UNL     1      36.229 -22.405 -17.275  0.00  0.00    +0.148 HD
ATOM     14  H   UNL     1      37.645 -24.944 -15.623  0.00  0.00    +0.151 HD
ENDROOT
BRANCH   9  18
ATOM     15  F   UNL     1      31.586 -22.391 -17.620  0.00  0.00    -0.166 F 
ATOM     16  F   UNL     1      30.704 -24.193 -16.795  0.00  0.00    -0.166 F 
ATOM     17  F   UNL     1      30.583 -22.322 -15.691  0.00  0.00    -0.166 F 
ATOM     18  C   UNL     1      31.420 -23.082 -16.454  0.00  0.00    +0.420 C 
ENDBRANCH   9  18
BRANCH   8  19
ATOM     19  S   UNL     1      31.246 -24.639 -13.797  0.00  0.00    +0.057 S 
ATOM     20  O   UNL     1      31.649 -25.494 -12.684  0.00  0.00    -0.153 OA
ATOM     21  O   UNL     1      30.466 -23.430 -13.550  0.00  0.00    -0.153 OA
BRANCH  19  22
ATOM     22  N   UNL     1      30.377 -25.618 -14.913  0.00  0.00    -0.203 NA
ATOM     23  H   UNL     1      31.018 -26.273 -15.361  0.00  0.00    +0.144 HD
ATOM     24  H   UNL     1      29.946 -25.025 -15.622  0.00  0.00    +0.144 HD
ENDBRANCH  19  22
ENDBRANCH   8  19
TORSDOF 3
ENDMDL
