MODEL 1
REMARK VINA RESULT:      -3.3      0.000      0.000
REMARK  Name = 11457650
REMARK  0 active torsions:
REMARK  status: ('A' for Active; 'I' for Inactive)
REMARK                            x       y       z     vdW  Elec       q    Type
REMARK                         _______ _______ _______ _____ _____    ______ ____
ROOT
ATOM      1  O   UNL     1      38.412 -27.068 -14.748  0.00  0.00    -0.253 OA
ATOM      2  N   UNL     1      36.940 -26.491 -13.077  0.00  0.00    -0.314 N 
ATOM      3  N   UNL     1      36.165 -26.872 -15.205  0.00  0.00    -0.314 N 
ATOM      4  C   UNL     1      37.266 -26.830 -14.374  0.00  0.00    +0.294 C 
ATOM      5  H   UNL     1      37.645 -26.430 -12.393  0.00  0.00    +0.146 HD
ATOM      6  H   UNL     1      36.002 -26.312 -12.835  0.00  0.00    +0.146 HD
ATOM      7  H   UNL     1      36.275 -27.103 -16.156  0.00  0.00    +0.146 HD
ATOM      8  H   UNL     1      35.270 -26.673 -14.847  0.00  0.00    +0.146 HD
ENDROOT
TORSDOF 0
ENDMDL
MODEL 2
REMARK VINA RESULT:      -3.3      0.036      1.625
REMARK  Name = 11457650
REMARK  0 active torsions:
REMARK  status: ('A' for Active; 'I' for Inactive)
REMARK                            x       y       z     vdW  Elec       q    Type
REMARK                         _______ _______ _______ _____ _____    ______ ____
ROOT
ATOM      1  O   UNL     1      38.395 -27.121 -14.727  0.00  0.00    -0.253 OA
ATOM      2  N   UNL     1      36.159 -26.847 -15.191  0.00  0.00    -0.314 N 
ATOM      3  N   UNL     1      36.941 -26.482 -13.063  0.00  0.00    -0.314 N 
ATOM      4  C   UNL     1      37.257 -26.840 -14.357  0.00  0.00    +0.294 C 
ATOM      5  H   UNL     1      36.262 -27.088 -16.140  0.00  0.00    +0.146 HD
ATOM      6  H   UNL     1      35.270 -26.611 -14.838  0.00  0.00    +0.146 HD
ATOM      7  H   UNL     1      37.646 -26.441 -12.377  0.00  0.00    +0.146 HD
ATOM      8  H   UNL     1      36.010 -26.266 -12.825  0.00  0.00    +0.146 HD
ENDROOT
TORSDOF 0
ENDMDL
MODEL 3
REMARK VINA RESULT:      -3.2      1.686      1.913
REMARK  Name = 11457650
REMARK  0 active torsions:
REMARK  status: ('A' for Active; 'I' for Inactive)
REMARK                            x       y       z     vdW  Elec       q    Type
REMARK                         _______ _______ _______ _____ _____    ______ ____
ROOT
ATOM      1  O   UNL     1      36.636 -27.201 -16.163  0.00  0.00    -0.253 OA
ATOM      2  N   UNL     1      37.634 -25.353 -15.226  0.00  0.00    -0.314 N 
ATOM      3  N   UNL     1      36.886 -27.058 -13.881  0.00  0.00    -0.314 N 
ATOM      4  C   UNL     1      37.020 -26.587 -15.171  0.00  0.00    +0.294 C 
ATOM      5  H   UNL     1      37.784 -24.916 -16.095  0.00  0.00    +0.146 HD
ATOM      6  H   UNL     1      37.922 -24.908 -14.396  0.00  0.00    +0.146 HD
ATOM      7  H   UNL     1      36.462 -27.931 -13.717  0.00  0.00    +0.146 HD
ATOM      8  H   UNL     1      37.215 -26.521 -13.124  0.00  0.00    +0.146 HD
ENDROOT
TORSDOF 0
ENDMDL
MODEL 4
REMARK VINA RESULT:      -3.1      2.990      2.997
REMARK  Name = 11457650
REMARK  0 active torsions:
REMARK  status: ('A' for Active; 'I' for Inactive)
REMARK                            x       y       z     vdW  Elec       q    Type
REMARK                         _______ _______ _______ _____ _____    ______ ____
ROOT
ATOM      1  O   UNL     1      40.946 -26.251 -15.124  0.00  0.00    -0.253 OA
ATOM      2  N   UNL     1      39.324 -25.991 -13.514  0.00  0.00    -0.314 N 
ATOM      3  N   UNL     1      39.246 -24.733 -15.435  0.00  0.00    -0.314 N 
ATOM      4  C   UNL     1      39.922 -25.703 -14.724  0.00  0.00    +0.294 C 
ATOM      5  H   UNL     1      39.717 -26.668 -12.919  0.00  0.00    +0.146 HD
ATOM      6  H   UNL     1      38.501 -25.519 -13.247  0.00  0.00    +0.146 HD
ATOM      7  H   UNL     1      39.580 -24.445 -16.315  0.00  0.00    +0.146 HD
ATOM      8  H   UNL     1      38.428 -24.330 -15.063  0.00  0.00    +0.146 HD
ENDROOT
TORSDOF 0
ENDMDL
MODEL 5
REMARK VINA RESULT:      -3.1     13.596     13.688
REMARK  Name = 11457650
REMARK  0 active torsions:
REMARK  status: ('A' for Active; 'I' for Inactive)
REMARK                            x       y       z     vdW  Elec       q    Type
REMARK                         _______ _______ _______ _____ _____    ______ ____
ROOT
ATOM      1  O   UNL     1      40.743 -15.081 -14.600  0.00  0.00    -0.253 OA
ATOM      2  N   UNL     1      41.695 -13.225 -15.570  0.00  0.00    -0.314 N 
ATOM      3  N   UNL     1      40.580 -13.029 -13.571  0.00  0.00    -0.314 N 
ATOM      4  C   UNL     1      40.986 -13.876 -14.582  0.00  0.00    +0.294 C 
ATOM      5  H   UNL     1      42.036 -13.728 -16.344  0.00  0.00    +0.146 HD
ATOM      6  H   UNL     1      41.860 -12.256 -15.501  0.00  0.00    +0.146 HD
ATOM      7  H   UNL     1      40.066 -13.382 -12.810  0.00  0.00    +0.146 HD
ATOM      8  H   UNL     1      40.806 -12.072 -13.611  0.00  0.00    +0.146 HD
ENDROOT
TORSDOF 0
ENDMDL
MODEL 6
REMARK VINA RESULT:      -3.1     10.079     10.319
REMARK  Name = 11457650
REMARK  0 active torsions:
REMARK  status: ('A' for Active; 'I' for Inactive)
REMARK                            x       y       z     vdW  Elec       q    Type
REMARK                         _______ _______ _______ _____ _____    ______ ____
ROOT
ATOM      1  O   UNL     1      27.571 -23.728 -17.740  0.00  0.00    -0.253 OA
ATOM      2  N   UNL     1      29.429 -22.686 -16.871  0.00  0.00    -0.314 N 
ATOM      3  N   UNL     1      27.380 -22.394 -15.874  0.00  0.00    -0.314 N 
ATOM      4  C   UNL     1      28.085 -22.995 -16.897  0.00  0.00    +0.294 C 
ATOM      5  H   UNL     1      30.033 -23.058 -17.552  0.00  0.00    +0.146 HD
ATOM      6  H   UNL     1      29.785 -22.093 -16.169  0.00  0.00    +0.146 HD
ATOM      7  H   UNL     1      26.410 -22.543 -15.791  0.00  0.00    +0.146 HD
ATOM      8  H   UNL     1      27.847 -21.818 -15.227  0.00  0.00    +0.146 HD
ENDROOT
TORSDOF 0
ENDMDL
MODEL 7
REMARK VINA RESULT:      -3.0      4.144      4.340
REMARK  Name = 11457650
REMARK  0 active torsions:
REMARK  status: ('A' for Active; 'I' for Inactive)
REMARK                            x       y       z     vdW  Elec       q    Type
REMARK                         _______ _______ _______ _____ _____    ______ ____
ROOT
ATOM      1  O   UNL     1      35.246 -25.077 -10.235  0.00  0.00    -0.253 OA
ATOM      2  N   UNL     1      36.803 -23.624 -11.106  0.00  0.00    -0.314 N 
ATOM      3  N   UNL     1      35.499 -24.887 -12.515  0.00  0.00    -0.314 N 
ATOM      4  C   UNL     1      35.804 -24.571 -11.206  0.00  0.00    +0.294 C 
ATOM      5  H   UNL     1      37.105 -23.320 -10.221  0.00  0.00    +0.146 HD
ATOM      6  H   UNL     1      37.213 -23.253 -11.921  0.00  0.00    +0.146 HD
ATOM      7  H   UNL     1      34.800 -25.552 -12.710  0.00  0.00    +0.146 HD
ATOM      8  H   UNL     1      35.980 -24.447 -13.252  0.00  0.00    +0.146 HD
ENDROOT
TORSDOF 0
ENDMDL
MODEL 8
REMARK VINA RESULT:      -3.0      2.193      2.249
REMARK  Name = 11457650
REMARK  0 active torsions:
REMARK  status: ('A' for Active; 'I' for Inactive)
REMARK                            x       y       z     vdW  Elec       q    Type
REMARK                         _______ _______ _______ _____ _____    ______ ____
ROOT
ATOM      1  O   UNL     1      36.753 -26.003 -11.830  0.00  0.00    -0.253 OA
ATOM      2  N   UNL     1      38.675 -25.951 -13.093  0.00  0.00    -0.314 N 
ATOM      3  N   UNL     1      36.769 -26.907 -13.946  0.00  0.00    -0.314 N 
ATOM      4  C   UNL     1      37.350 -26.266 -12.872  0.00  0.00    +0.294 C 
ATOM      5  H   UNL     1      39.195 -25.491 -12.396  0.00  0.00    +0.146 HD
ATOM      6  H   UNL     1      39.101 -26.186 -13.950  0.00  0.00    +0.146 HD
ATOM      7  H   UNL     1      35.824 -27.181 -13.903  0.00  0.00    +0.146 HD
ATOM      8  H   UNL     1      37.298 -27.090 -14.755  0.00  0.00    +0.146 HD
ENDROOT
TORSDOF 0
ENDMDL
MODEL 9
REMARK VINA RESULT:      -3.0     13.435     13.536
REMARK  Name = 11457650
REMARK  0 active torsions:
REMARK  status: ('A' for Active; 'I' for Inactive)
REMARK                            x       y       z     vdW  Elec       q    Type
REMARK                         _______ _______ _______ _____ _____    ______ ____
ROOT
ATOM      1  O   UNL     1      41.693 -13.270 -15.820  0.00  0.00    -0.253 OA
ATOM      2  N   UNL     1      40.656 -13.238 -13.767  0.00  0.00    -0.314 N 
ATOM      3  N   UNL     1      40.540 -15.119 -15.080  0.00  0.00    -0.314 N 
ATOM      4  C   UNL     1      41.018 -13.830 -14.959  0.00  0.00    +0.294 C 
ATOM      5  H   UNL     1      40.940 -12.317 -13.568  0.00  0.00    +0.146 HD
ATOM      6  H   UNL     1      40.114 -13.737 -13.113  0.00  0.00    +0.146 HD
ATOM      7  H   UNL     1      40.735 -15.642 -15.891  0.00  0.00    +0.146 HD
ATOM      8  H   UNL     1      40.004 -15.515 -14.356  0.00  0.00    +0.146 HD
ENDROOT
TORSDOF 0
ENDMDL
