MODEL 1
REMARK VINA RESULT:      -8.9      0.000      0.000
REMARK  Name = 34055
REMARK  6 active torsions:
REMARK  status: ('A' for Active; 'I' for Inactive)
REMARK    1  A    between atoms: C_1  and  C_2
REMARK    2  A    between atoms: C_1  and  C_8
REMARK    3  A    between atoms: C_1  and  C_14
REMARK    4  A    between atoms: C_14  and  C_15
REMARK    5  A    between atoms: C_15  and  N_17
REMARK    6  A    between atoms: N_17  and  C_20
REMARK                            x       y       z     vdW  Elec       q    Type
REMARK                         _______ _______ _______ _____ _____    ______ ____
ROOT
ATOM      1  C   UNL     1      34.400 -23.752 -15.734  0.00  0.00    +0.043 C 
ENDROOT
BRANCH   1   2
ATOM      2  C   UNL     1      32.928 -23.435 -15.511  0.00  0.00    -0.019 C 
ATOM      3  C   UNL     1      32.455 -23.345 -14.218  0.00  0.00    -0.004 C 
ATOM      4  C   UNL     1      32.112 -23.248 -16.608  0.00  0.00    -0.004 C 
ATOM      5  C   UNL     1      31.106 -23.055 -14.012  0.00  0.00    -0.000 C 
ATOM      6  C   UNL     1      30.763 -22.958 -16.402  0.00  0.00    -0.000 C 
ATOM      7  C   UNL     1      30.260 -22.861 -15.104  0.00  0.00    -0.000 C 
ENDBRANCH   1   2
BRANCH   1   8
ATOM      8  C   UNL     1      34.972 -22.934 -16.891  0.00  0.00    -0.019 C 
ATOM      9  C   UNL     1      34.229 -22.811 -18.044  0.00  0.00    -0.004 C 
ATOM     10  C   UNL     1      36.210 -22.351 -16.739  0.00  0.00    -0.004 C 
ATOM     11  C   UNL     1      34.750 -22.064 -19.100  0.00  0.00    -0.000 C 
ATOM     12  C   UNL     1      36.732 -21.603 -17.797  0.00  0.00    -0.000 C 
ATOM     13  C   UNL     1      36.002 -21.461 -18.976  0.00  0.00    -0.000 C 
ENDBRANCH   1   8
BRANCH   1  14
ATOM     14  C   UNL     1      35.260 -23.664 -14.443  0.00  0.00    -0.012 C 
BRANCH  14  15
ATOM     15  C   UNL     1      35.932 -24.978 -14.011  0.00  0.00    -0.054 C 
ATOM     16  C   UNL     1      36.064 -25.945 -15.182  0.00  0.00    -0.022 C 
BRANCH  15  17
ATOM     17  N   UNL     1      37.301 -24.705 -13.490  0.00  0.00    +0.388 N 
ATOM     18  C   UNL     1      37.356 -23.332 -12.811  0.00  0.00    -0.096 C 
ATOM     19  C   UNL     1      37.708 -25.767 -12.462  0.00  0.00    -0.096 C 
BRANCH  17  20
ATOM     20  C   UNL     1      38.326 -24.721 -14.629  0.00  0.00    -0.073 C 
ATOM     21  C   UNL     1      39.588 -25.407 -14.155  0.00  0.00    -0.024 C 
ENDBRANCH  17  20
ENDBRANCH  15  17
ENDBRANCH  14  15
ENDBRANCH   1  14
TORSDOF 6
ENDMDL
MODEL 2
REMARK VINA RESULT:      -8.9      0.054      1.492
REMARK  Name = 34055
REMARK  6 active torsions:
REMARK  status: ('A' for Active; 'I' for Inactive)
REMARK    1  A    between atoms: C_1  and  C_2
REMARK    2  A    between atoms: C_1  and  C_8
REMARK    3  A    between atoms: C_1  and  C_14
REMARK    4  A    between atoms: C_14  and  C_15
REMARK    5  A    between atoms: C_15  and  N_17
REMARK    6  A    between atoms: N_17  and  C_20
REMARK                            x       y       z     vdW  Elec       q    Type
REMARK                         _______ _______ _______ _____ _____    ______ ____
ROOT
ATOM      1  C   UNL     1      34.408 -23.762 -15.739  0.00  0.00    +0.043 C 
ENDROOT
BRANCH   1   2
ATOM      2  C   UNL     1      32.938 -23.433 -15.517  0.00  0.00    -0.019 C 
ATOM      3  C   UNL     1      32.113 -23.294 -16.614  0.00  0.00    -0.004 C 
ATOM      4  C   UNL     1      32.475 -23.285 -14.225  0.00  0.00    -0.004 C 
ATOM      5  C   UNL     1      30.766 -22.993 -16.412  0.00  0.00    -0.000 C 
ATOM      6  C   UNL     1      31.129 -22.984 -14.023  0.00  0.00    -0.000 C 
ATOM      7  C   UNL     1      30.274 -22.839 -15.116  0.00  0.00    -0.000 C 
ENDBRANCH   1   2
BRANCH   1   8
ATOM      8  C   UNL     1      34.994 -22.930 -16.879  0.00  0.00    -0.019 C 
ATOM      9  C   UNL     1      36.231 -22.350 -16.706  0.00  0.00    -0.004 C 
ATOM     10  C   UNL     1      34.264 -22.791 -18.038  0.00  0.00    -0.004 C 
ATOM     11  C   UNL     1      36.766 -21.591 -17.746  0.00  0.00    -0.000 C 
ATOM     12  C   UNL     1      34.799 -22.031 -19.079  0.00  0.00    -0.000 C 
ATOM     13  C   UNL     1      36.050 -21.432 -18.933  0.00  0.00    -0.000 C 
ENDBRANCH   1   8
BRANCH   1  14
ATOM     14  C   UNL     1      35.262 -23.705 -14.442  0.00  0.00    -0.012 C 
BRANCH  14  15
ATOM     15  C   UNL     1      35.935 -25.027 -14.040  0.00  0.00    -0.054 C 
ATOM     16  C   UNL     1      36.085 -25.960 -15.237  0.00  0.00    -0.022 C 
BRANCH  15  17
ATOM     17  N   UNL     1      37.295 -24.765 -13.494  0.00  0.00    +0.388 N 
ATOM     18  C   UNL     1      37.347 -23.395 -12.810  0.00  0.00    -0.096 C 
ATOM     19  C   UNL     1      37.678 -25.832 -12.463  0.00  0.00    -0.096 C 
BRANCH  17  20
ATOM     20  C   UNL     1      38.340 -24.783 -14.615  0.00  0.00    -0.073 C 
ATOM     21  C   UNL     1      39.620 -25.399 -14.095  0.00  0.00    -0.024 C 
ENDBRANCH  17  20
ENDBRANCH  15  17
ENDBRANCH  14  15
ENDBRANCH   1  14
TORSDOF 6
ENDMDL
MODEL 3
REMARK VINA RESULT:      -8.8      1.001      4.144
REMARK  Name = 34055
REMARK  6 active torsions:
REMARK  status: ('A' for Active; 'I' for Inactive)
REMARK    1  A    between atoms: C_1  and  C_2
REMARK    2  A    between atoms: C_1  and  C_8
REMARK    3  A    between atoms: C_1  and  C_14
REMARK    4  A    between atoms: C_14  and  C_15
REMARK    5  A    between atoms: C_15  and  N_17
REMARK    6  A    between atoms: N_17  and  C_20
REMARK                            x       y       z     vdW  Elec       q    Type
REMARK                         _______ _______ _______ _____ _____    ______ ____
ROOT
ATOM      1  C   UNL     1      34.782 -23.458 -15.196  0.00  0.00    +0.043 C 
ENDROOT
BRANCH   1   2
ATOM      2  C   UNL     1      34.837 -22.943 -16.627  0.00  0.00    -0.019 C 
ATOM      3  C   UNL     1      33.762 -23.176 -17.460  0.00  0.00    -0.004 C 
ATOM      4  C   UNL     1      35.959 -22.260 -17.048  0.00  0.00    -0.004 C 
ATOM      5  C   UNL     1      33.811 -22.705 -18.772  0.00  0.00    -0.000 C 
ATOM      6  C   UNL     1      36.008 -21.789 -18.360  0.00  0.00    -0.000 C 
ATOM      7  C   UNL     1      34.933 -22.011 -19.222  0.00  0.00    -0.000 C 
ENDBRANCH   1   2
BRANCH   1   8
ATOM      8  C   UNL     1      33.340 -23.671 -14.739  0.00  0.00    -0.019 C 
ATOM      9  C   UNL     1      32.421 -22.670 -14.962  0.00  0.00    -0.004 C 
ATOM     10  C   UNL     1      33.011 -24.857 -14.121  0.00  0.00    -0.004 C 
ATOM     11  C   UNL     1      31.104 -22.864 -14.546  0.00  0.00    -0.000 C 
ATOM     12  C   UNL     1      31.693 -25.051 -13.705  0.00  0.00    -0.000 C 
ATOM     13  C   UNL     1      30.741 -24.055 -13.917  0.00  0.00    -0.000 C 
ENDBRANCH   1   8
BRANCH   1  14
ATOM     14  C   UNL     1      35.690 -24.694 -14.942  0.00  0.00    -0.012 C 
BRANCH  14  15
ATOM     15  C   UNL     1      37.086 -24.379 -14.379  0.00  0.00    -0.054 C 
ATOM     16  C   UNL     1      37.018 -23.311 -13.293  0.00  0.00    -0.022 C 
BRANCH  15  17
ATOM     17  N   UNL     1      37.683 -25.603 -13.777  0.00  0.00    +0.388 N 
ATOM     18  C   UNL     1      37.049 -25.897 -12.413  0.00  0.00    -0.096 C 
ATOM     19  C   UNL     1      37.456 -26.817 -14.685  0.00  0.00    -0.096 C 
BRANCH  17  20
ATOM     20  C   UNL     1      39.192 -25.427 -13.578  0.00  0.00    -0.073 C 
ATOM     21  C   UNL     1      39.869 -25.359 -14.930  0.00  0.00    -0.024 C 
ENDBRANCH  17  20
ENDBRANCH  15  17
ENDBRANCH  14  15
ENDBRANCH   1  14
TORSDOF 6
ENDMDL
MODEL 4
REMARK VINA RESULT:      -8.8      1.009      4.133
REMARK  Name = 34055
REMARK  6 active torsions:
REMARK  status: ('A' for Active; 'I' for Inactive)
REMARK    1  A    between atoms: C_1  and  C_2
REMARK    2  A    between atoms: C_1  and  C_8
REMARK    3  A    between atoms: C_1  and  C_14
REMARK    4  A    between atoms: C_14  and  C_15
REMARK    5  A    between atoms: C_15  and  N_17
REMARK    6  A    between atoms: N_17  and  C_20
REMARK                            x       y       z     vdW  Elec       q    Type
REMARK                         _______ _______ _______ _____ _____    ______ ____
ROOT
ATOM      1  C   UNL     1      34.758 -23.474 -15.210  0.00  0.00    +0.043 C 
ENDROOT
BRANCH   1   2
ATOM      2  C   UNL     1      34.801 -22.961 -16.642  0.00  0.00    -0.019 C 
ATOM      3  C   UNL     1      35.917 -22.272 -17.070  0.00  0.00    -0.004 C 
ATOM      4  C   UNL     1      33.723 -23.202 -17.469  0.00  0.00    -0.004 C 
ATOM      5  C   UNL     1      35.957 -21.802 -18.382  0.00  0.00    -0.000 C 
ATOM      6  C   UNL     1      33.763 -22.731 -18.782  0.00  0.00    -0.000 C 
ATOM      7  C   UNL     1      34.881 -22.032 -19.239  0.00  0.00    -0.000 C 
ENDBRANCH   1   2
BRANCH   1   8
ATOM      8  C   UNL     1      33.319 -23.686 -14.741  0.00  0.00    -0.019 C 
ATOM      9  C   UNL     1      32.993 -24.872 -14.123  0.00  0.00    -0.004 C 
ATOM     10  C   UNL     1      32.400 -22.683 -14.955  0.00  0.00    -0.004 C 
ATOM     11  C   UNL     1      31.680 -25.066 -13.695  0.00  0.00    -0.000 C 
ATOM     12  C   UNL     1      31.086 -22.876 -14.527  0.00  0.00    -0.000 C 
ATOM     13  C   UNL     1      30.726 -24.068 -13.898  0.00  0.00    -0.000 C 
ENDBRANCH   1   8
BRANCH   1  14
ATOM     14  C   UNL     1      35.667 -24.710 -14.963  0.00  0.00    -0.012 C 
BRANCH  14  15
ATOM     15  C   UNL     1      37.074 -24.395 -14.430  0.00  0.00    -0.054 C 
ATOM     16  C   UNL     1      37.035 -23.287 -13.382  0.00  0.00    -0.022 C 
BRANCH  15  17
ATOM     17  N   UNL     1      37.663 -25.604 -13.791  0.00  0.00    +0.388 N 
ATOM     18  C   UNL     1      37.012 -25.866 -12.428  0.00  0.00    -0.096 C 
ATOM     19  C   UNL     1      37.447 -26.840 -14.672  0.00  0.00    -0.096 C 
BRANCH  17  20
ATOM     20  C   UNL     1      39.170 -25.424 -13.578  0.00  0.00    -0.073 C 
ATOM     21  C   UNL     1      39.858 -25.341 -14.923  0.00  0.00    -0.024 C 
ENDBRANCH  17  20
ENDBRANCH  15  17
ENDBRANCH  14  15
ENDBRANCH   1  14
TORSDOF 6
ENDMDL
MODEL 5
REMARK VINA RESULT:      -8.6      6.603     10.092
REMARK  Name = 34055
REMARK  6 active torsions:
REMARK  status: ('A' for Active; 'I' for Inactive)
REMARK    1  A    between atoms: C_1  and  C_2
REMARK    2  A    between atoms: C_1  and  C_8
REMARK    3  A    between atoms: C_1  and  C_14
REMARK    4  A    between atoms: C_14  and  C_15
REMARK    5  A    between atoms: C_15  and  N_17
REMARK    6  A    between atoms: N_17  and  C_20
REMARK                            x       y       z     vdW  Elec       q    Type
REMARK                         _______ _______ _______ _____ _____    ______ ____
ROOT
ATOM      1  C   UNL     1      35.301 -17.788 -21.485  0.00  0.00    +0.043 C 
ENDROOT
BRANCH   1   2
ATOM      2  C   UNL     1      35.059 -19.142 -20.833  0.00  0.00    -0.019 C 
ATOM      3  C   UNL     1      36.145 -19.904 -20.458  0.00  0.00    -0.004 C 
ATOM      4  C   UNL     1      33.760 -19.565 -20.638  0.00  0.00    -0.004 C 
ATOM      5  C   UNL     1      35.925 -21.145 -19.860  0.00  0.00    -0.000 C 
ATOM      6  C   UNL     1      33.539 -20.806 -20.040  0.00  0.00    -0.000 C 
ATOM      7  C   UNL     1      34.622 -21.596 -19.651  0.00  0.00    -0.000 C 
ENDBRANCH   1   2
BRANCH   1   8
ATOM      8  C   UNL     1      34.991 -17.831 -22.981  0.00  0.00    -0.019 C 
ATOM      9  C   UNL     1      34.570 -19.020 -23.534  0.00  0.00    -0.004 C 
ATOM     10  C   UNL     1      35.145 -16.680 -23.721  0.00  0.00    -0.004 C 
ATOM     11  C   UNL     1      34.287 -19.060 -24.900  0.00  0.00    -0.000 C 
ATOM     12  C   UNL     1      34.862 -16.720 -25.088  0.00  0.00    -0.000 C 
ATOM     13  C   UNL     1      34.434 -17.910 -25.676  0.00  0.00    -0.000 C 
ENDBRANCH   1   8
BRANCH   1  14
ATOM     14  C   UNL     1      34.601 -16.609 -20.753  0.00  0.00    -0.012 C 
BRANCH  14  15
ATOM     15  C   UNL     1      33.318 -16.089 -21.421  0.00  0.00    -0.054 C 
ATOM     16  C   UNL     1      32.079 -16.479 -20.623  0.00  0.00    -0.022 C 
BRANCH  15  17
ATOM     17  N   UNL     1      33.353 -14.603 -21.510  0.00  0.00    +0.388 N 
ATOM     18  C   UNL     1      32.538 -13.975 -20.374  0.00  0.00    -0.096 C 
ATOM     19  C   UNL     1      34.794 -14.090 -21.408  0.00  0.00    -0.096 C 
BRANCH  17  20
ATOM     20  C   UNL     1      32.767 -14.127 -22.844  0.00  0.00    -0.073 C 
ATOM     21  C   UNL     1      33.798 -13.296 -23.575  0.00  0.00    -0.024 C 
ENDBRANCH  17  20
ENDBRANCH  15  17
ENDBRANCH  14  15
ENDBRANCH   1  14
TORSDOF 6
ENDMDL
MODEL 6
REMARK VINA RESULT:      -8.6     11.563     15.000
REMARK  Name = 34055
REMARK  6 active torsions:
REMARK  status: ('A' for Active; 'I' for Inactive)
REMARK    1  A    between atoms: C_1  and  C_2
REMARK    2  A    between atoms: C_1  and  C_8
REMARK    3  A    between atoms: C_1  and  C_14
REMARK    4  A    between atoms: C_14  and  C_15
REMARK    5  A    between atoms: C_15  and  N_17
REMARK    6  A    between atoms: N_17  and  C_20
REMARK                            x       y       z     vdW  Elec       q    Type
REMARK                         _______ _______ _______ _____ _____    ______ ____
ROOT
ATOM      1  C   UNL     1      32.678 -12.703 -23.306  0.00  0.00    +0.043 C 
ENDROOT
BRANCH   1   2
ATOM      2  C   UNL     1      33.024 -13.010 -24.756  0.00  0.00    -0.019 C 
ATOM      3  C   UNL     1      32.702 -14.249 -25.270  0.00  0.00    -0.004 C 
ATOM      4  C   UNL     1      33.648 -12.039 -25.513  0.00  0.00    -0.004 C 
ATOM      5  C   UNL     1      33.019 -14.531 -26.599  0.00  0.00    -0.000 C 
ATOM      6  C   UNL     1      33.964 -12.321 -26.842  0.00  0.00    -0.000 C 
ATOM      7  C   UNL     1      33.649 -13.567 -27.385  0.00  0.00    -0.000 C 
ENDBRANCH   1   2
BRANCH   1   8
ATOM      8  C   UNL     1      33.182 -13.803 -22.373  0.00  0.00    -0.019 C 
ATOM      9  C   UNL     1      34.381 -14.415 -22.661  0.00  0.00    -0.004 C 
ATOM     10  C   UNL     1      32.418 -14.142 -21.278  0.00  0.00    -0.004 C 
ATOM     11  C   UNL     1      34.842 -15.419 -21.809  0.00  0.00    -0.000 C 
ATOM     12  C   UNL     1      32.879 -15.147 -20.426  0.00  0.00    -0.000 C 
ATOM     13  C   UNL     1      34.090 -15.785 -20.692  0.00  0.00    -0.000 C 
ENDBRANCH   1   8
BRANCH   1  14
ATOM     14  C   UNL     1      33.100 -11.278 -22.852  0.00  0.00    -0.012 C 
BRANCH  14  15
ATOM     15  C   UNL     1      31.942 -10.332 -22.495  0.00  0.00    -0.054 C 
ATOM     16  C   UNL     1      31.535 -10.480 -21.033  0.00  0.00    -0.022 C 
BRANCH  15  17
ATOM     17  N   UNL     1      32.352  -8.917 -22.712  0.00  0.00    +0.388 N 
ATOM     18  C   UNL     1      31.246  -8.141 -23.437  0.00  0.00    -0.096 C 
ATOM     19  C   UNL     1      32.627  -8.223 -21.373  0.00  0.00    -0.096 C 
BRANCH  17  20
ATOM     20  C   UNL     1      33.625  -8.846 -23.562  0.00  0.00    -0.073 C 
ATOM     21  C   UNL     1      34.427  -7.628 -23.159  0.00  0.00    -0.024 C 
ENDBRANCH  17  20
ENDBRANCH  15  17
ENDBRANCH  14  15
ENDBRANCH   1  14
TORSDOF 6
ENDMDL
MODEL 7
REMARK VINA RESULT:      -8.6     11.572     14.999
REMARK  Name = 34055
REMARK  6 active torsions:
REMARK  status: ('A' for Active; 'I' for Inactive)
REMARK    1  A    between atoms: C_1  and  C_2
REMARK    2  A    between atoms: C_1  and  C_8
REMARK    3  A    between atoms: C_1  and  C_14
REMARK    4  A    between atoms: C_14  and  C_15
REMARK    5  A    between atoms: C_15  and  N_17
REMARK    6  A    between atoms: N_17  and  C_20
REMARK                            x       y       z     vdW  Elec       q    Type
REMARK                         _______ _______ _______ _____ _____    ______ ____
ROOT
ATOM      1  C   UNL     1      32.671 -12.694 -23.311  0.00  0.00    +0.043 C 
ENDROOT
BRANCH   1   2
ATOM      2  C   UNL     1      33.018 -13.008 -24.760  0.00  0.00    -0.019 C 
ATOM      3  C   UNL     1      33.644 -12.041 -25.520  0.00  0.00    -0.004 C 
ATOM      4  C   UNL     1      32.695 -14.249 -25.269  0.00  0.00    -0.004 C 
ATOM      5  C   UNL     1      33.962 -12.328 -26.847  0.00  0.00    -0.000 C 
ATOM      6  C   UNL     1      33.013 -14.536 -26.596  0.00  0.00    -0.000 C 
ATOM      7  C   UNL     1      33.647 -13.576 -27.385  0.00  0.00    -0.000 C 
ENDBRANCH   1   2
BRANCH   1   8
ATOM      8  C   UNL     1      33.174 -13.790 -22.373  0.00  0.00    -0.019 C 
ATOM      9  C   UNL     1      32.410 -14.123 -21.277  0.00  0.00    -0.004 C 
ATOM     10  C   UNL     1      34.373 -14.404 -22.657  0.00  0.00    -0.004 C 
ATOM     11  C   UNL     1      32.868 -15.123 -20.420  0.00  0.00    -0.000 C 
ATOM     12  C   UNL     1      34.832 -15.406 -21.799  0.00  0.00    -0.000 C 
ATOM     13  C   UNL     1      34.079 -15.764 -20.681  0.00  0.00    -0.000 C 
ENDBRANCH   1   8
BRANCH   1  14
ATOM     14  C   UNL     1      33.096 -11.267 -22.864  0.00  0.00    -0.012 C 
BRANCH  14  15
ATOM     15  C   UNL     1      31.939 -10.321 -22.503  0.00  0.00    -0.054 C 
ATOM     16  C   UNL     1      31.535 -10.470 -21.040  0.00  0.00    -0.022 C 
BRANCH  15  17
ATOM     17  N   UNL     1      32.348  -8.906 -22.720  0.00  0.00    +0.388 N 
ATOM     18  C   UNL     1      31.243  -8.129 -23.445  0.00  0.00    -0.096 C 
ATOM     19  C   UNL     1      32.623  -8.212 -21.381  0.00  0.00    -0.096 C 
BRANCH  17  20
ATOM     20  C   UNL     1      33.622  -8.835 -23.569  0.00  0.00    -0.073 C 
ATOM     21  C   UNL     1      34.428  -7.622 -23.159  0.00  0.00    -0.024 C 
ENDBRANCH  17  20
ENDBRANCH  15  17
ENDBRANCH  14  15
ENDBRANCH   1  14
TORSDOF 6
ENDMDL
MODEL 8
REMARK VINA RESULT:      -8.5      9.207     11.972
REMARK  Name = 34055
REMARK  6 active torsions:
REMARK  status: ('A' for Active; 'I' for Inactive)
REMARK    1  A    between atoms: C_1  and  C_2
REMARK    2  A    between atoms: C_1  and  C_8
REMARK    3  A    between atoms: C_1  and  C_14
REMARK    4  A    between atoms: C_14  and  C_15
REMARK    5  A    between atoms: C_15  and  N_17
REMARK    6  A    between atoms: N_17  and  C_20
REMARK                            x       y       z     vdW  Elec       q    Type
REMARK                         _______ _______ _______ _____ _____    ______ ____
ROOT
ATOM      1  C   UNL     1      33.029 -14.452 -23.261  0.00  0.00    +0.043 C 
ENDROOT
BRANCH   1   2
ATOM      2  C   UNL     1      32.503 -13.501 -22.195  0.00  0.00    -0.019 C 
ATOM      3  C   UNL     1      31.833 -12.362 -22.591  0.00  0.00    -0.004 C 
ATOM      4  C   UNL     1      32.713 -13.807 -20.866  0.00  0.00    -0.004 C 
ATOM      5  C   UNL     1      31.351 -11.490 -21.615  0.00  0.00    -0.000 C 
ATOM      6  C   UNL     1      32.231 -12.935 -19.890  0.00  0.00    -0.000 C 
ATOM      7  C   UNL     1      31.549 -11.777 -20.265  0.00  0.00    -0.000 C 
ENDBRANCH   1   2
BRANCH   1   8
ATOM      8  C   UNL     1      33.244 -13.729 -24.590  0.00  0.00    -0.019 C 
ATOM      9  C   UNL     1      32.849 -14.352 -25.753  0.00  0.00    -0.004 C 
ATOM     10  C   UNL     1      33.825 -12.480 -24.576  0.00  0.00    -0.004 C 
ATOM     11  C   UNL     1      33.045 -13.692 -26.966  0.00  0.00    -0.000 C 
ATOM     12  C   UNL     1      34.021 -11.820 -25.790  0.00  0.00    -0.000 C 
ATOM     13  C   UNL     1      33.631 -12.426 -26.984  0.00  0.00    -0.000 C 
ENDBRANCH   1   8
BRANCH   1  14
ATOM     14  C   UNL     1      34.268 -15.273 -22.808  0.00  0.00    -0.012 C 
BRANCH  14  15
ATOM     15  C   UNL     1      34.179 -16.788 -23.057  0.00  0.00    -0.054 C 
ATOM     16  C   UNL     1      34.928 -17.187 -24.324  0.00  0.00    -0.022 C 
BRANCH  15  17
ATOM     17  N   UNL     1      34.785 -17.531 -21.917  0.00  0.00    +0.388 N 
ATOM     18  C   UNL     1      36.122 -18.156 -22.330  0.00  0.00    -0.096 C 
ATOM     19  C   UNL     1      35.039 -16.590 -20.734  0.00  0.00    -0.096 C 
BRANCH  17  20
ATOM     20  C   UNL     1      33.853 -18.653 -21.447  0.00  0.00    -0.073 C 
ATOM     21  C   UNL     1      34.683 -19.828 -20.979  0.00  0.00    -0.024 C 
ENDBRANCH  17  20
ENDBRANCH  15  17
ENDBRANCH  14  15
ENDBRANCH   1  14
TORSDOF 6
ENDMDL
MODEL 9
REMARK VINA RESULT:      -8.4      9.362     12.522
REMARK  Name = 34055
REMARK  6 active torsions:
REMARK  status: ('A' for Active; 'I' for Inactive)
REMARK    1  A    between atoms: C_1  and  C_2
REMARK    2  A    between atoms: C_1  and  C_8
REMARK    3  A    between atoms: C_1  and  C_14
REMARK    4  A    between atoms: C_14  and  C_15
REMARK    5  A    between atoms: C_15  and  N_17
REMARK    6  A    between atoms: N_17  and  C_20
REMARK                            x       y       z     vdW  Elec       q    Type
REMARK                         _______ _______ _______ _____ _____    ______ ____
ROOT
ATOM      1  C   UNL     1      33.593 -13.814 -22.867  0.00  0.00    +0.043 C 
ENDROOT
BRANCH   1   2
ATOM      2  C   UNL     1      33.486 -13.556 -24.364  0.00  0.00    -0.019 C 
ATOM      3  C   UNL     1      32.976 -14.547 -25.176  0.00  0.00    -0.004 C 
ATOM      4  C   UNL     1      33.903 -12.338 -24.862  0.00  0.00    -0.004 C 
ATOM      5  C   UNL     1      32.877 -14.311 -26.547  0.00  0.00    -0.000 C 
ATOM      6  C   UNL     1      33.804 -12.102 -26.233  0.00  0.00    -0.000 C 
ATOM      7  C   UNL     1      33.291 -13.089 -27.076  0.00  0.00    -0.000 C 
ENDBRANCH   1   2
BRANCH   1   8
ATOM      8  C   UNL     1      32.652 -12.903 -22.081  0.00  0.00    -0.019 C 
ATOM      9  C   UNL     1      31.949 -11.933 -22.760  0.00  0.00    -0.004 C 
ATOM     10  C   UNL     1      32.540 -13.086 -20.720  0.00  0.00    -0.004 C 
ATOM     11  C   UNL     1      31.089 -11.102 -22.043  0.00  0.00    -0.000 C 
ATOM     12  C   UNL     1      31.679 -12.254 -20.002  0.00  0.00    -0.000 C 
ATOM     13  C   UNL     1      30.955 -11.263 -20.663  0.00  0.00    -0.000 C 
ENDBRANCH   1   8
BRANCH   1  14
ATOM     14  C   UNL     1      33.454 -15.313 -22.482  0.00  0.00    -0.012 C 
BRANCH  14  15
ATOM     15  C   UNL     1      34.721 -15.962 -21.900  0.00  0.00    -0.054 C 
ATOM     16  C   UNL     1      34.753 -15.848 -20.379  0.00  0.00    -0.022 C 
BRANCH  15  17
ATOM     17  N   UNL     1      34.762 -17.409 -22.249  0.00  0.00    +0.388 N 
ATOM     18  C   UNL     1      34.477 -17.612 -23.741  0.00  0.00    -0.096 C 
ATOM     19  C   UNL     1      36.142 -18.000 -21.938  0.00  0.00    -0.096 C 
BRANCH  17  20
ATOM     20  C   UNL     1      33.713 -18.188 -21.448  0.00  0.00    -0.073 C 
ATOM     21  C   UNL     1      34.283 -19.534 -21.057  0.00  0.00    -0.024 C 
ENDBRANCH  17  20
ENDBRANCH  15  17
ENDBRANCH  14  15
ENDBRANCH   1  14
TORSDOF 6
ENDMDL
