MODEL 1
REMARK VINA RESULT:      -9.4      0.000      0.000
REMARK  Name = 1549120
REMARK  5 active torsions:
REMARK  status: ('A' for Active; 'I' for Inactive)
REMARK    1  A    between atoms: N_4  and  C_18
REMARK    2  A    between atoms: C_7  and  C_9
REMARK    3  A    between atoms: C_10  and  C_12
REMARK    4  A    between atoms: C_18  and  C_20
REMARK    5  A    between atoms: C_20  and  O_21
REMARK                            x       y       z     vdW  Elec       q    Type
REMARK                         _______ _______ _______ _____ _____    ______ ____
ROOT
ATOM      1  S   UNL     1      33.780 -15.552 -22.456  0.00  0.00    -0.060 S 
ATOM      2  S   UNL     1      32.418 -12.878 -22.650  0.00  0.00    -0.027 S 
ATOM      3  O   UNL     1      33.838 -16.226 -26.211  0.00  0.00    -0.269 OA
ATOM      4  N   UNL     1      33.110 -14.549 -24.734  0.00  0.00    -0.233 N 
ATOM      5  C   UNL     1      34.138 -16.469 -23.860  0.00  0.00    +0.085 C 
ATOM      6  C   UNL     1      33.694 -15.766 -25.086  0.00  0.00    +0.260 C 
ATOM      7  C   UNL     1      34.735 -17.663 -23.875  0.00  0.00    +0.007 C 
ATOM      8  C   UNL     1      33.052 -14.240 -23.380  0.00  0.00    +0.122 C 
ENDROOT
BRANCH   7   9
ATOM      9  C   UNL     1      35.205 -18.428 -22.717  0.00  0.00    -0.021 C 
ATOM     10  C   UNL     1      34.375 -19.336 -22.161  0.00  0.00    -0.004 C 
ATOM     11  C   UNL     1      36.605 -18.158 -22.224  0.00  0.00    +0.031 C 
BRANCH  10  12
ATOM     12  C   UNL     1      34.676 -20.176 -20.997  0.00  0.00    -0.000 C 
ATOM     13  C   UNL     1      35.997 -20.369 -20.615  0.00  0.00    -0.000 C 
ATOM     14  C   UNL     1      33.637 -20.767 -20.291  0.00  0.00    -0.000 C 
ATOM     15  C   UNL     1      36.284 -21.169 -19.508  0.00  0.00    -0.000 C 
ATOM     16  C   UNL     1      33.923 -21.566 -19.184  0.00  0.00    -0.000 C 
ATOM     17  C   UNL     1      35.247 -21.767 -18.793  0.00  0.00    -0.000 C 
ENDBRANCH  10  12
ENDBRANCH   7   9
BRANCH   4  18
ATOM     18  C   UNL     1      32.580 -13.638 -25.745  0.00  0.00    +0.209 C 
BRANCH  18  20
ATOM     19  O   UNL     1      34.214 -11.896 -26.048  0.00  0.00    -0.248 OA
ATOM     20  C   UNL     1      33.660 -12.895 -26.489  0.00  0.00    +0.335 C 
BRANCH  20  21
ATOM     21  O   UNL     1      33.958 -13.437 -27.694  0.00  0.00    -0.479 OA
ATOM     22  H   UNL     1      33.662 -14.301 -27.904  0.00  0.00    +0.295 HD
ENDBRANCH  20  21
ENDBRANCH  18  20
ENDBRANCH   4  18
TORSDOF 5
ENDMDL
MODEL 2
REMARK VINA RESULT:      -9.2      7.053     10.334
REMARK  Name = 1549120
REMARK  5 active torsions:
REMARK  status: ('A' for Active; 'I' for Inactive)
REMARK    1  A    between atoms: N_4  and  C_18
REMARK    2  A    between atoms: C_7  and  C_9
REMARK    3  A    between atoms: C_10  and  C_12
REMARK    4  A    between atoms: C_18  and  C_20
REMARK    5  A    between atoms: C_20  and  O_21
REMARK                            x       y       z     vdW  Elec       q    Type
REMARK                         _______ _______ _______ _____ _____    ______ ____
ROOT
ATOM      1  S   UNL     1      36.189 -22.032 -17.249  0.00  0.00    -0.060 S 
ATOM      2  S   UNL     1      37.167 -23.239 -14.673  0.00  0.00    -0.027 S 
ATOM      3  O   UNL     1      32.773 -23.733 -17.196  0.00  0.00    -0.269 OA
ATOM      4  N   UNL     1      34.716 -23.642 -15.875  0.00  0.00    -0.233 N 
ATOM      5  C   UNL     1      34.628 -22.392 -17.861  0.00  0.00    +0.085 C 
ATOM      6  C   UNL     1      33.905 -23.327 -16.967  0.00  0.00    +0.260 C 
ATOM      7  C   UNL     1      34.109 -21.910 -18.991  0.00  0.00    +0.007 C 
ATOM      8  C   UNL     1      35.977 -23.059 -15.832  0.00  0.00    +0.122 C 
ENDROOT
BRANCH   7   9
ATOM      9  C   UNL     1      34.748 -20.986 -19.932  0.00  0.00    -0.021 C 
ATOM     10  C   UNL     1      33.984 -20.058 -20.547  0.00  0.00    -0.004 C 
ATOM     11  C   UNL     1      36.234 -21.125 -20.145  0.00  0.00    +0.031 C 
BRANCH  10  12
ATOM     12  C   UNL     1      34.455 -19.068 -21.522  0.00  0.00    -0.000 C 
ATOM     13  C   UNL     1      34.648 -17.752 -21.123  0.00  0.00    -0.000 C 
ATOM     14  C   UNL     1      34.699 -19.459 -22.832  0.00  0.00    -0.000 C 
ATOM     15  C   UNL     1      35.095 -16.811 -22.050  0.00  0.00    -0.000 C 
ATOM     16  C   UNL     1      35.145 -18.517 -23.759  0.00  0.00    -0.000 C 
ATOM     17  C   UNL     1      35.343 -17.193 -23.368  0.00  0.00    -0.000 C 
ENDBRANCH  10  12
ENDBRANCH   7   9
BRANCH   4  18
ATOM     18  C   UNL     1      34.260 -24.546 -14.824  0.00  0.00    +0.209 C 
BRANCH  18  20
ATOM     19  O   UNL     1      32.284 -23.538 -13.888  0.00  0.00    -0.248 OA
ATOM     20  C   UNL     1      33.461 -23.847 -13.754  0.00  0.00    +0.335 C 
BRANCH  20  21
ATOM     21  O   UNL     1      34.171 -23.590 -12.629  0.00  0.00    -0.479 OA
ATOM     22  H   UNL     1      34.951 -24.077 -12.447  0.00  0.00    +0.295 HD
ENDBRANCH  20  21
ENDBRANCH  18  20
ENDBRANCH   4  18
TORSDOF 5
ENDMDL
MODEL 3
REMARK VINA RESULT:      -9.2      2.383      2.901
REMARK  Name = 1549120
REMARK  5 active torsions:
REMARK  status: ('A' for Active; 'I' for Inactive)
REMARK    1  A    between atoms: N_4  and  C_18
REMARK    2  A    between atoms: C_7  and  C_9
REMARK    3  A    between atoms: C_10  and  C_12
REMARK    4  A    between atoms: C_18  and  C_20
REMARK    5  A    between atoms: C_20  and  O_21
REMARK                            x       y       z     vdW  Elec       q    Type
REMARK                         _______ _______ _______ _____ _____    ______ ____
ROOT
ATOM      1  S   UNL     1      32.621 -13.762 -21.194  0.00  0.00    -0.060 S 
ATOM      2  S   UNL     1      31.054 -11.196 -21.133  0.00  0.00    -0.027 S 
ATOM      3  O   UNL     1      34.349 -13.078 -24.526  0.00  0.00    -0.269 OA
ATOM      4  N   UNL     1      32.811 -12.028 -23.092  0.00  0.00    -0.233 N 
ATOM      5  C   UNL     1      33.675 -14.128 -22.496  0.00  0.00    +0.085 C 
ATOM      6  C   UNL     1      33.677 -13.042 -23.504  0.00  0.00    +0.260 C 
ATOM      7  C   UNL     1      34.407 -15.237 -22.613  0.00  0.00    +0.007 C 
ATOM      8  C   UNL     1      32.145 -12.213 -21.886  0.00  0.00    +0.122 C 
ENDROOT
BRANCH   7   9
ATOM      9  C   UNL     1      34.467 -16.357 -21.670  0.00  0.00    -0.021 C 
ATOM     10  C   UNL     1      34.355 -17.614 -22.150  0.00  0.00    -0.004 C 
ATOM     11  C   UNL     1      34.665 -16.031 -20.211  0.00  0.00    +0.031 C 
BRANCH  10  12
ATOM     12  C   UNL     1      34.381 -18.844 -21.351  0.00  0.00    -0.000 C 
ATOM     13  C   UNL     1      35.597 -19.450 -21.066  0.00  0.00    -0.000 C 
ATOM     14  C   UNL     1      33.188 -19.387 -20.890  0.00  0.00    -0.000 C 
ATOM     15  C   UNL     1      35.621 -20.621 -20.307  0.00  0.00    -0.000 C 
ATOM     16  C   UNL     1      33.212 -20.557 -20.132  0.00  0.00    -0.000 C 
ATOM     17  C   UNL     1      34.429 -21.174 -19.840  0.00  0.00    -0.000 C 
ENDBRANCH  10  12
ENDBRANCH   7   9
BRANCH   4  18
ATOM     18  C   UNL     1      32.613 -10.824 -23.893  0.00  0.00    +0.209 C 
BRANCH  18  20
ATOM     19  O   UNL     1      33.306  -8.671 -23.066  0.00  0.00    -0.248 OA
ATOM     20  C   UNL     1      33.612  -9.739 -23.580  0.00  0.00    +0.335 C 
BRANCH  20  21
ATOM     21  O   UNL     1      34.882 -10.058 -23.924  0.00  0.00    -0.479 OA
ATOM     22  H   UNL     1      35.165  -9.961 -24.813  0.00  0.00    +0.295 HD
ENDBRANCH  20  21
ENDBRANCH  18  20
ENDBRANCH   4  18
TORSDOF 5
ENDMDL
MODEL 4
REMARK VINA RESULT:      -8.9     10.112     12.599
REMARK  Name = 1549120
REMARK  5 active torsions:
REMARK  status: ('A' for Active; 'I' for Inactive)
REMARK    1  A    between atoms: N_4  and  C_18
REMARK    2  A    between atoms: C_7  and  C_9
REMARK    3  A    between atoms: C_10  and  C_12
REMARK    4  A    between atoms: C_18  and  C_20
REMARK    5  A    between atoms: C_20  and  O_21
REMARK                            x       y       z     vdW  Elec       q    Type
REMARK                         _______ _______ _______ _____ _____    ______ ____
ROOT
ATOM      1  S   UNL     1      35.540 -25.011 -14.473  0.00  0.00    -0.060 S 
ATOM      2  S   UNL     1      37.420 -26.464 -12.630  0.00  0.00    -0.027 S 
ATOM      3  O   UNL     1      38.194 -22.747 -16.020  0.00  0.00    -0.269 OA
ATOM      4  N   UNL     1      38.057 -24.458 -14.414  0.00  0.00    -0.233 N 
ATOM      5  C   UNL     1      36.104 -23.779 -15.525  0.00  0.00    +0.085 C 
ATOM      6  C   UNL     1      37.564 -23.576 -15.376  0.00  0.00    +0.260 C 
ATOM      7  C   UNL     1      35.349 -23.079 -16.373  0.00  0.00    +0.007 C 
ATOM      8  C   UNL     1      37.143 -25.311 -13.807  0.00  0.00    +0.122 C 
ENDROOT
BRANCH   7   9
ATOM      9  C   UNL     1      33.905 -23.213 -16.586  0.00  0.00    -0.021 C 
ATOM     10  C   UNL     1      33.104 -23.366 -15.510  0.00  0.00    -0.004 C 
ATOM     11  C   UNL     1      33.401 -23.156 -18.006  0.00  0.00    +0.031 C 
BRANCH  10  12
ATOM     12  C   UNL     1      31.646 -23.526 -15.540  0.00  0.00    -0.000 C 
ATOM     13  C   UNL     1      30.883 -22.700 -16.355  0.00  0.00    -0.000 C 
ATOM     14  C   UNL     1      31.047 -24.502 -14.753  0.00  0.00    -0.000 C 
ATOM     15  C   UNL     1      29.497 -22.852 -16.383  0.00  0.00    -0.000 C 
ATOM     16  C   UNL     1      29.661 -24.653 -14.781  0.00  0.00    -0.000 C 
ATOM     17  C   UNL     1      28.886 -23.828 -15.596  0.00  0.00    -0.000 C 
ENDBRANCH  10  12
ENDBRANCH   7   9
BRANCH   4  18
ATOM     18  C   UNL     1      39.473 -24.484 -14.059  0.00  0.00    +0.209 C 
BRANCH  18  20
ATOM     19  O   UNL     1      40.823 -26.477 -14.044  0.00  0.00    -0.248 OA
ATOM     20  C   UNL     1      40.216 -25.633 -14.691  0.00  0.00    +0.335 C 
BRANCH  20  21
ATOM     21  O   UNL     1      40.150 -25.642 -16.043  0.00  0.00    -0.479 OA
ATOM     22  H   UNL     1      40.900 -25.892 -16.546  0.00  0.00    +0.295 HD
ENDBRANCH  20  21
ENDBRANCH  18  20
ENDBRANCH   4  18
TORSDOF 5
ENDMDL
MODEL 5
REMARK VINA RESULT:      -8.8      8.196     11.519
REMARK  Name = 1549120
REMARK  5 active torsions:
REMARK  status: ('A' for Active; 'I' for Inactive)
REMARK    1  A    between atoms: N_4  and  C_18
REMARK    2  A    between atoms: C_7  and  C_9
REMARK    3  A    between atoms: C_10  and  C_12
REMARK    4  A    between atoms: C_18  and  C_20
REMARK    5  A    between atoms: C_20  and  O_21
REMARK                            x       y       z     vdW  Elec       q    Type
REMARK                         _______ _______ _______ _____ _____    ______ ____
ROOT
ATOM      1  S   UNL     1      34.879 -22.939 -15.687  0.00  0.00    -0.060 S 
ATOM      2  S   UNL     1      34.173 -24.167 -13.034  0.00  0.00    -0.027 S 
ATOM      3  O   UNL     1      38.649 -23.414 -15.339  0.00  0.00    -0.269 OA
ATOM      4  N   UNL     1      36.697 -23.858 -14.107  0.00  0.00    -0.233 N 
ATOM      5  C   UNL     1      36.510 -22.822 -16.205  0.00  0.00    +0.085 C 
ATOM      6  C   UNL     1      37.434 -23.388 -15.195  0.00  0.00    +0.260 C 
ATOM      7  C   UNL     1      36.921 -22.292 -17.359  0.00  0.00    +0.007 C 
ATOM      8  C   UNL     1      35.316 -23.714 -14.166  0.00  0.00    +0.122 C 
ENDROOT
BRANCH   7   9
ATOM      9  C   UNL     1      36.082 -21.712 -18.411  0.00  0.00    -0.021 C 
ATOM     10  C   UNL     1      36.602 -20.741 -19.191  0.00  0.00    -0.004 C 
ATOM     11  C   UNL     1      34.682 -22.252 -18.564  0.00  0.00    +0.031 C 
BRANCH  10  12
ATOM     12  C   UNL     1      35.903 -20.045 -20.277  0.00  0.00    -0.000 C 
ATOM     13  C   UNL     1      34.547 -20.269 -20.473  0.00  0.00    -0.000 C 
ATOM     14  C   UNL     1      36.607 -19.170 -21.095  0.00  0.00    -0.000 C 
ATOM     15  C   UNL     1      33.883 -19.607 -21.506  0.00  0.00    -0.000 C 
ATOM     16  C   UNL     1      35.943 -18.509 -22.128  0.00  0.00    -0.000 C 
ATOM     17  C   UNL     1      34.580 -18.728 -22.333  0.00  0.00    -0.000 C 
ENDBRANCH  10  12
ENDBRANCH   7   9
BRANCH   4  18
ATOM     18  C   UNL     1      37.348 -24.474 -12.955  0.00  0.00    +0.209 C 
BRANCH  18  20
ATOM     19  O   UNL     1      38.342 -22.529 -11.942  0.00  0.00    -0.248 OA
ATOM     20  C   UNL     1      37.603 -23.499 -11.834  0.00  0.00    +0.335 C 
BRANCH  20  21
ATOM     21  O   UNL     1      36.939 -23.800 -10.693  0.00  0.00    -0.479 OA
ATOM     22  H   UNL     1      37.242 -24.498 -10.145  0.00  0.00    +0.295 HD
ENDBRANCH  20  21
ENDBRANCH  18  20
ENDBRANCH   4  18
TORSDOF 5
ENDMDL
MODEL 6
REMARK VINA RESULT:      -8.8      2.049      2.781
REMARK  Name = 1549120
REMARK  5 active torsions:
REMARK  status: ('A' for Active; 'I' for Inactive)
REMARK    1  A    between atoms: N_4  and  C_18
REMARK    2  A    between atoms: C_7  and  C_9
REMARK    3  A    between atoms: C_10  and  C_12
REMARK    4  A    between atoms: C_18  and  C_20
REMARK    5  A    between atoms: C_20  and  O_21
REMARK                            x       y       z     vdW  Elec       q    Type
REMARK                         _______ _______ _______ _____ _____    ______ ____
ROOT
ATOM      1  S   UNL     1      32.961 -14.453 -22.123  0.00  0.00    -0.060 S 
ATOM      2  S   UNL     1      31.559 -12.018 -21.051  0.00  0.00    -0.027 S 
ATOM      3  O   UNL     1      34.088 -12.839 -25.392  0.00  0.00    -0.269 OA
ATOM      4  N   UNL     1      32.889 -12.249 -23.458  0.00  0.00    -0.233 N 
ATOM      5  C   UNL     1      33.742 -14.427 -23.649  0.00  0.00    +0.085 C 
ATOM      6  C   UNL     1      33.614 -13.099 -24.294  0.00  0.00    +0.260 C 
ATOM      7  C   UNL     1      34.385 -15.454 -24.208  0.00  0.00    +0.007 C 
ATOM      8  C   UNL     1      32.444 -12.773 -22.250  0.00  0.00    +0.122 C 
ENDROOT
BRANCH   7   9
ATOM      9  C   UNL     1      34.561 -16.796 -23.646  0.00  0.00    -0.021 C 
ATOM     10  C   UNL     1      34.725 -16.923 -22.312  0.00  0.00    -0.004 C 
ATOM     11  C   UNL     1      34.533 -17.962 -24.603  0.00  0.00    +0.031 C 
BRANCH  10  12
ATOM     12  C   UNL     1      34.926 -18.182 -21.587  0.00  0.00    -0.000 C 
ATOM     13  C   UNL     1      36.216 -18.614 -21.308  0.00  0.00    -0.000 C 
ATOM     14  C   UNL     1      33.823 -18.928 -21.190  0.00  0.00    -0.000 C 
ATOM     15  C   UNL     1      36.406 -19.812 -20.619  0.00  0.00    -0.000 C 
ATOM     16  C   UNL     1      34.014 -20.125 -20.502  0.00  0.00    -0.000 C 
ATOM     17  C   UNL     1      35.306 -20.568 -20.217  0.00  0.00    -0.000 C 
ENDBRANCH  10  12
ENDBRANCH   7   9
BRANCH   4  18
ATOM     18  C   UNL     1      32.608 -10.867 -23.837  0.00  0.00    +0.209 C 
BRANCH  18  20
ATOM     19  O   UNL     1      33.561  -8.895 -22.837  0.00  0.00    -0.248 OA
ATOM     20  C   UNL     1      33.727  -9.922 -23.482  0.00  0.00    +0.335 C 
BRANCH  20  21
ATOM     21  O   UNL     1      34.936 -10.317 -23.947  0.00  0.00    -0.479 OA
ATOM     22  H   UNL     1      35.070 -11.208 -24.205  0.00  0.00    +0.295 HD
ENDBRANCH  20  21
ENDBRANCH  18  20
ENDBRANCH   4  18
TORSDOF 5
ENDMDL
MODEL 7
REMARK VINA RESULT:      -8.8      3.531      5.306
REMARK  Name = 1549120
REMARK  5 active torsions:
REMARK  status: ('A' for Active; 'I' for Inactive)
REMARK    1  A    between atoms: N_4  and  C_18
REMARK    2  A    between atoms: C_7  and  C_9
REMARK    3  A    between atoms: C_10  and  C_12
REMARK    4  A    between atoms: C_18  and  C_20
REMARK    5  A    between atoms: C_20  and  O_21
REMARK                            x       y       z     vdW  Elec       q    Type
REMARK                         _______ _______ _______ _____ _____    ______ ____
ROOT
ATOM      1  S   UNL     1      32.165 -12.739 -21.762  0.00  0.00    -0.060 S 
ATOM      2  S   UNL     1      30.746 -10.854 -19.897  0.00  0.00    -0.027 S 
ATOM      3  O   UNL     1      33.367 -10.047 -24.186  0.00  0.00    -0.269 OA
ATOM      4  N   UNL     1      32.127 -10.198 -22.194  0.00  0.00    -0.233 N 
ATOM      5  C   UNL     1      32.979 -12.161 -23.157  0.00  0.00    +0.085 C 
ATOM      6  C   UNL     1      32.869 -10.689 -23.270  0.00  0.00    +0.260 C 
ATOM      7  C   UNL     1      33.632 -12.918 -24.042  0.00  0.00    +0.007 C 
ATOM      8  C   UNL     1      31.655 -11.125 -21.272  0.00  0.00    +0.122 C 
ENDROOT
BRANCH   7   9
ATOM      9  C   UNL     1      33.791 -14.374 -24.010  0.00  0.00    -0.021 C 
ATOM     10  C   UNL     1      34.360 -14.939 -22.925  0.00  0.00    -0.004 C 
ATOM     11  C   UNL     1      33.292 -15.156 -25.199  0.00  0.00    +0.031 C 
BRANCH  10  12
ATOM     12  C   UNL     1      34.608 -16.372 -22.732  0.00  0.00    -0.000 C 
ATOM     13  C   UNL     1      34.264 -16.971 -21.528  0.00  0.00    -0.000 C 
ATOM     14  C   UNL     1      35.184 -17.112 -23.757  0.00  0.00    -0.000 C 
ATOM     15  C   UNL     1      34.500 -18.334 -21.345  0.00  0.00    -0.000 C 
ATOM     16  C   UNL     1      35.421 -18.474 -23.574  0.00  0.00    -0.000 C 
ATOM     17  C   UNL     1      35.079 -19.085 -22.368  0.00  0.00    -0.000 C 
ENDBRANCH  10  12
ENDBRANCH   7   9
BRANCH   4  18
ATOM     18  C   UNL     1      31.858  -8.771 -22.043  0.00  0.00    +0.209 C 
BRANCH  18  20
ATOM     19  O   UNL     1      33.883  -7.468 -22.079  0.00  0.00    -0.248 OA
ATOM     20  C   UNL     1      33.008  -8.019 -21.423  0.00  0.00    +0.335 C 
BRANCH  20  21
ATOM     21  O   UNL     1      32.983  -8.013 -20.069  0.00  0.00    -0.479 OA
ATOM     22  H   UNL     1      32.887  -8.818 -19.599  0.00  0.00    +0.295 HD
ENDBRANCH  20  21
ENDBRANCH  18  20
ENDBRANCH   4  18
TORSDOF 5
ENDMDL
MODEL 8
REMARK VINA RESULT:      -8.8      4.599      8.322
REMARK  Name = 1549120
REMARK  5 active torsions:
REMARK  status: ('A' for Active; 'I' for Inactive)
REMARK    1  A    between atoms: N_4  and  C_18
REMARK    2  A    between atoms: C_7  and  C_9
REMARK    3  A    between atoms: C_10  and  C_12
REMARK    4  A    between atoms: C_18  and  C_20
REMARK    5  A    between atoms: C_20  and  O_21
REMARK                            x       y       z     vdW  Elec       q    Type
REMARK                         _______ _______ _______ _____ _____    ______ ____
ROOT
ATOM      1  S   UNL     1      33.891 -19.018 -20.967  0.00  0.00    -0.060 S 
ATOM      2  S   UNL     1      33.312 -21.588 -19.516  0.00  0.00    -0.027 S 
ATOM      3  O   UNL     1      37.689 -19.388 -20.900  0.00  0.00    -0.269 OA
ATOM      4  N   UNL     1      35.791 -20.572 -20.178  0.00  0.00    -0.233 N 
ATOM      5  C   UNL     1      35.502 -18.530 -21.298  0.00  0.00    +0.085 C 
ATOM      6  C   UNL     1      36.477 -19.520 -20.786  0.00  0.00    +0.260 C 
ATOM      7  C   UNL     1      35.857 -17.410 -21.931  0.00  0.00    +0.007 C 
ATOM      8  C   UNL     1      34.403 -20.501 -20.163  0.00  0.00    +0.122 C 
ENDROOT
BRANCH   7   9
ATOM      9  C   UNL     1      34.965 -16.380 -22.469  0.00  0.00    -0.021 C 
ATOM     10  C   UNL     1      34.663 -15.317 -21.694  0.00  0.00    -0.004 C 
ATOM     11  C   UNL     1      34.448 -16.569 -23.873  0.00  0.00    +0.031 C 
BRANCH  10  12
ATOM     12  C   UNL     1      33.781 -14.206 -22.067  0.00  0.00    -0.000 C 
ATOM     13  C   UNL     1      32.714 -13.873 -21.243  0.00  0.00    -0.000 C 
ATOM     14  C   UNL     1      34.023 -13.501 -23.239  0.00  0.00    -0.000 C 
ATOM     15  C   UNL     1      31.874 -12.816 -21.598  0.00  0.00    -0.000 C 
ATOM     16  C   UNL     1      33.184 -12.445 -23.594  0.00  0.00    -0.000 C 
ATOM     17  C   UNL     1      32.109 -12.103 -22.773  0.00  0.00    -0.000 C 
ENDBRANCH  10  12
ENDBRANCH   7   9
BRANCH   4  18
ATOM     18  C   UNL     1      36.500 -21.700 -19.581  0.00  0.00    +0.209 C 
BRANCH  18  20
ATOM     19  O   UNL     1      36.063 -22.483 -17.346  0.00  0.00    -0.248 OA
ATOM     20  C   UNL     1      36.553 -21.631 -18.076  0.00  0.00    +0.335 C 
BRANCH  20  21
ATOM     21  O   UNL     1      37.193 -20.533 -17.607  0.00  0.00    -0.479 OA
ATOM     22  H   UNL     1      38.083 -20.370 -17.853  0.00  0.00    +0.295 HD
ENDBRANCH  20  21
ENDBRANCH  18  20
ENDBRANCH   4  18
TORSDOF 5
ENDMDL
MODEL 9
REMARK VINA RESULT:      -8.4      4.615      9.139
REMARK  Name = 1549120
REMARK  5 active torsions:
REMARK  status: ('A' for Active; 'I' for Inactive)
REMARK    1  A    between atoms: N_4  and  C_18
REMARK    2  A    between atoms: C_7  and  C_9
REMARK    3  A    between atoms: C_10  and  C_12
REMARK    4  A    between atoms: C_18  and  C_20
REMARK    5  A    between atoms: C_20  and  O_21
REMARK                            x       y       z     vdW  Elec       q    Type
REMARK                         _______ _______ _______ _____ _____    ______ ____
ROOT
ATOM      1  S   UNL     1      33.068 -12.517 -22.393  0.00  0.00    -0.060 S 
ATOM      2  S   UNL     1      32.853 -15.335 -21.364  0.00  0.00    -0.027 S 
ATOM      3  O   UNL     1      33.721 -13.485 -26.026  0.00  0.00    -0.269 OA
ATOM      4  N   UNL     1      33.329 -14.544 -23.964  0.00  0.00    -0.233 N 
ATOM      5  C   UNL     1      33.372 -12.199 -24.050  0.00  0.00    +0.085 C 
ATOM      6  C   UNL     1      33.499 -13.457 -24.822  0.00  0.00    +0.260 C 
ATOM      7  C   UNL     1      33.487 -10.988 -24.598  0.00  0.00    +0.007 C 
ATOM      8  C   UNL     1      33.091 -14.264 -22.624  0.00  0.00    +0.122 C 
ENDROOT
BRANCH   7   9
ATOM      9  C   UNL     1      33.377  -9.696 -23.915  0.00  0.00    -0.021 C 
ATOM     10  C   UNL     1      32.204  -9.370 -23.332  0.00  0.00    -0.004 C 
ATOM     11  C   UNL     1      34.598  -8.811 -23.896  0.00  0.00    +0.031 C 
BRANCH  10  12
ATOM     12  C   UNL     1      31.916  -8.120 -22.620  0.00  0.00    -0.000 C 
ATOM     13  C   UNL     1      31.230  -7.104 -23.271  0.00  0.00    -0.000 C 
ATOM     14  C   UNL     1      32.335  -7.968 -21.304  0.00  0.00    -0.000 C 
ATOM     15  C   UNL     1      30.957  -5.915 -22.595  0.00  0.00    -0.000 C 
ATOM     16  C   UNL     1      32.062  -6.779 -20.629  0.00  0.00    -0.000 C 
ATOM     17  C   UNL     1      31.373  -5.752 -21.274  0.00  0.00    -0.000 C 
ENDBRANCH  10  12
ENDBRANCH   7   9
BRANCH   4  18
ATOM     18  C   UNL     1      33.401 -15.918 -24.453  0.00  0.00    +0.209 C 
BRANCH  18  20
ATOM     19  O   UNL     1      35.152 -16.840 -25.825  0.00  0.00    -0.248 OA
ATOM     20  C   UNL     1      34.810 -16.363 -24.750  0.00  0.00    +0.335 C 
BRANCH  20  21
ATOM     21  O   UNL     1      35.663 -16.187 -23.713  0.00  0.00    -0.479 OA
ATOM     22  H   UNL     1      35.514 -16.635 -22.903  0.00  0.00    +0.295 HD
ENDBRANCH  20  21
ENDBRANCH  18  20
ENDBRANCH   4  18
TORSDOF 5
ENDMDL
