MODEL 1
REMARK VINA RESULT:     -10.5      0.000      0.000
REMARK  Name = 447815
REMARK  6 active torsions:
REMARK  status: ('A' for Active; 'I' for Inactive)
REMARK    1  A    between atoms: C_6  and  C_18
REMARK    2  A    between atoms: C_18  and  N_19
REMARK    3  A    between atoms: N_19  and  C_21
REMARK    4  A    between atoms: C_24  and  O_27
REMARK    5  A    between atoms: C_25  and  O_29
REMARK    6  A    between atoms: C_26  and  O_31
REMARK                            x       y       z     vdW  Elec       q    Type
REMARK                         _______ _______ _______ _____ _____    ______ ____
ROOT
ATOM      1  N   UNL     1      32.920 -20.193 -20.924  0.00  0.00    -0.182 NA
ATOM      2  N   UNL     1      32.780 -21.788 -19.253  0.00  0.00    -0.273 NA
ATOM      3  N   UNL     1      34.741 -22.569 -18.090  0.00  0.00    -0.312 NA
ATOM      4  N   UNL     1      36.851 -21.745 -18.609  0.00  0.00    -0.332 N 
ATOM      5  N   UNL     1      32.620 -23.408 -17.560  0.00  0.00    -0.283 N 
ATOM      6  C   UNL     1      35.047 -19.246 -21.570  0.00  0.00    +0.014 C 
ATOM      7  C   UNL     1      35.672 -20.038 -20.623  0.00  0.00    -0.008 C 
ATOM      8  C   UNL     1      34.906 -20.906 -19.831  0.00  0.00    +0.115 C 
ATOM      9  C   UNL     1      33.677 -19.362 -21.680  0.00  0.00    +0.108 C 
ATOM     10  C   UNL     1      33.517 -20.963 -20.004  0.00  0.00    +0.104 C 
ATOM     11  C   UNL     1      37.160 -19.902 -20.516  0.00  0.00    +0.032 C 
ATOM     12  C   UNL     1      35.461 -21.733 -18.858  0.00  0.00    +0.201 C 
ATOM     13  C   UNL     1      33.424 -22.546 -18.338  0.00  0.00    +0.206 C 
ATOM     14  H   UNL     1      37.221 -22.339 -17.916  0.00  0.00    +0.145 HD
ATOM     15  H   UNL     1      37.449 -21.161 -19.129  0.00  0.00    +0.145 HD
ATOM     16  H   UNL     1      31.646 -23.432 -17.700  0.00  0.00    +0.156 HD
ATOM     17  H   UNL     1      33.034 -23.984 -16.878  0.00  0.00    +0.156 HD
ENDROOT
BRANCH   6  18
ATOM     18  C   UNL     1      35.788 -18.302 -22.451  0.00  0.00    +0.119 C 
BRANCH  18  19
ATOM     19  N   UNL     1      34.979 -17.905 -23.585  0.00  0.00    -0.302 N 
ATOM     20  C   UNL     1      34.780 -18.865 -24.669  0.00  0.00    +0.112 C 
BRANCH  19  21
ATOM     21  C   UNL     1      34.407 -16.629 -23.658  0.00  0.00    +0.054 C 
ATOM     22  C   UNL     1      33.862 -16.165 -24.861  0.00  0.00    +0.055 C 
ATOM     23  C   UNL     1      34.374 -15.804 -22.527  0.00  0.00    +0.055 C 
ATOM     24  C   UNL     1      33.803 -14.533 -22.600  0.00  0.00    +0.177 C 
ATOM     25  C   UNL     1      33.292 -14.894 -24.933  0.00  0.00    +0.177 C 
ATOM     26  C   UNL     1      33.262 -14.078 -23.802  0.00  0.00    +0.206 C 
BRANCH  24  27
ATOM     27  O   UNL     1      33.781 -13.745 -21.488  0.00  0.00    -0.468 OA
ATOM     28  C   UNL     1      32.744 -13.989 -20.541  0.00  0.00    +0.253 C 
ENDBRANCH  24  27
BRANCH  25  29
ATOM     29  O   UNL     1      32.766 -14.462 -26.113  0.00  0.00    -0.468 OA
ATOM     30  C   UNL     1      33.661 -13.836 -27.031  0.00  0.00    +0.253 C 
ENDBRANCH  25  29
BRANCH  26  31
ATOM     31  O   UNL     1      32.704 -12.836 -23.873  0.00  0.00    -0.465 OA
ATOM     32  C   UNL     1      33.594 -11.736 -24.052  0.00  0.00    +0.253 C 
ENDBRANCH  26  31
ENDBRANCH  19  21
ENDBRANCH  18  19
ENDBRANCH   6  18
TORSDOF 6
ENDMDL
MODEL 2
REMARK VINA RESULT:     -10.5      0.008      2.353
REMARK  Name = 447815
REMARK  6 active torsions:
REMARK  status: ('A' for Active; 'I' for Inactive)
REMARK    1  A    between atoms: C_6  and  C_18
REMARK    2  A    between atoms: C_18  and  N_19
REMARK    3  A    between atoms: N_19  and  C_21
REMARK    4  A    between atoms: C_24  and  O_27
REMARK    5  A    between atoms: C_25  and  O_29
REMARK    6  A    between atoms: C_26  and  O_31
REMARK                            x       y       z     vdW  Elec       q    Type
REMARK                         _______ _______ _______ _____ _____    ______ ____
ROOT
ATOM      1  N   UNL     1      32.922 -20.196 -20.923  0.00  0.00    -0.182 NA
ATOM      2  N   UNL     1      32.779 -21.788 -19.249  0.00  0.00    -0.273 NA
ATOM      3  N   UNL     1      34.738 -22.566 -18.082  0.00  0.00    -0.312 NA
ATOM      4  N   UNL     1      36.848 -21.743 -18.598  0.00  0.00    -0.332 N 
ATOM      5  N   UNL     1      32.616 -23.405 -17.554  0.00  0.00    -0.283 N 
ATOM      6  C   UNL     1      35.049 -19.249 -21.567  0.00  0.00    +0.014 C 
ATOM      7  C   UNL     1      35.672 -20.039 -20.617  0.00  0.00    -0.008 C 
ATOM      8  C   UNL     1      34.905 -20.906 -19.825  0.00  0.00    +0.115 C 
ATOM      9  C   UNL     1      33.680 -19.365 -21.679  0.00  0.00    +0.108 C 
ATOM     10  C   UNL     1      33.517 -20.964 -20.001  0.00  0.00    +0.104 C 
ATOM     11  C   UNL     1      37.160 -19.902 -20.508  0.00  0.00    +0.032 C 
ATOM     12  C   UNL     1      35.458 -21.731 -18.849  0.00  0.00    +0.201 C 
ATOM     13  C   UNL     1      33.421 -22.544 -18.333  0.00  0.00    +0.206 C 
ATOM     14  H   UNL     1      37.218 -22.335 -17.903  0.00  0.00    +0.145 HD
ATOM     15  H   UNL     1      37.448 -21.160 -19.118  0.00  0.00    +0.145 HD
ATOM     16  H   UNL     1      31.643 -23.429 -17.696  0.00  0.00    +0.156 HD
ATOM     17  H   UNL     1      33.029 -23.980 -16.871  0.00  0.00    +0.156 HD
ENDROOT
BRANCH   6  18
ATOM     18  C   UNL     1      35.791 -18.306 -22.447  0.00  0.00    +0.119 C 
BRANCH  18  19
ATOM     19  N   UNL     1      34.984 -17.909 -23.582  0.00  0.00    -0.302 N 
ATOM     20  C   UNL     1      34.788 -18.868 -24.667  0.00  0.00    +0.112 C 
BRANCH  19  21
ATOM     21  C   UNL     1      34.410 -16.634 -23.655  0.00  0.00    +0.054 C 
ATOM     22  C   UNL     1      34.379 -15.806 -22.526  0.00  0.00    +0.055 C 
ATOM     23  C   UNL     1      33.862 -16.173 -24.858  0.00  0.00    +0.055 C 
ATOM     24  C   UNL     1      33.291 -14.902 -24.931  0.00  0.00    +0.177 C 
ATOM     25  C   UNL     1      33.807 -14.536 -22.599  0.00  0.00    +0.177 C 
ATOM     26  C   UNL     1      33.263 -14.083 -23.801  0.00  0.00    +0.206 C 
BRANCH  24  27
ATOM     27  O   UNL     1      32.763 -14.472 -26.111  0.00  0.00    -0.468 OA
ATOM     28  C   UNL     1      33.654 -13.845 -27.030  0.00  0.00    +0.253 C 
ENDBRANCH  24  27
BRANCH  25  29
ATOM     29  O   UNL     1      33.788 -13.746 -21.489  0.00  0.00    -0.468 OA
ATOM     30  C   UNL     1      32.736 -13.971 -20.552  0.00  0.00    +0.253 C 
ENDBRANCH  25  29
BRANCH  26  31
ATOM     31  O   UNL     1      32.706 -12.842 -23.872  0.00  0.00    -0.465 OA
ATOM     32  C   UNL     1      33.595 -11.743 -24.060  0.00  0.00    +0.253 C 
ENDBRANCH  26  31
ENDBRANCH  19  21
ENDBRANCH  18  19
ENDBRANCH   6  18
TORSDOF 6
ENDMDL
MODEL 3
REMARK VINA RESULT:     -10.3      4.270      8.769
REMARK  Name = 447815
REMARK  6 active torsions:
REMARK  status: ('A' for Active; 'I' for Inactive)
REMARK    1  A    between atoms: C_6  and  C_18
REMARK    2  A    between atoms: C_18  and  N_19
REMARK    3  A    between atoms: N_19  and  C_21
REMARK    4  A    between atoms: C_24  and  O_27
REMARK    5  A    between atoms: C_25  and  O_29
REMARK    6  A    between atoms: C_26  and  O_31
REMARK                            x       y       z     vdW  Elec       q    Type
REMARK                         _______ _______ _______ _____ _____    ______ ____
ROOT
ATOM      1  N   UNL     1      34.923 -16.049 -20.877  0.00  0.00    -0.182 NA
ATOM      2  N   UNL     1      34.438 -14.286 -22.296  0.00  0.00    -0.273 NA
ATOM      3  N   UNL     1      33.989 -14.641 -24.637  0.00  0.00    -0.312 NA
ATOM      4  N   UNL     1      34.027 -16.774 -25.555  0.00  0.00    -0.332 N 
ATOM      5  N   UNL     1      33.949 -12.485 -23.722  0.00  0.00    -0.283 N 
ATOM      6  C   UNL     1      34.997 -18.322 -21.691  0.00  0.00    +0.014 C 
ATOM      7  C   UNL     1      34.684 -17.864 -22.959  0.00  0.00    -0.008 C 
ATOM      8  C   UNL     1      34.493 -16.491 -23.171  0.00  0.00    +0.115 C 
ATOM      9  C   UNL     1      35.105 -17.379 -20.691  0.00  0.00    +0.108 C 
ATOM     10  C   UNL     1      34.619 -15.597 -22.101  0.00  0.00    +0.104 C 
ATOM     11  C   UNL     1      34.572 -18.901 -24.034  0.00  0.00    +0.032 C 
ATOM     12  C   UNL     1      34.176 -15.953 -24.416  0.00  0.00    +0.201 C 
ATOM     13  C   UNL     1      34.134 -13.875 -23.546  0.00  0.00    +0.206 C 
ATOM     14  H   UNL     1      33.803 -16.373 -26.426  0.00  0.00    +0.145 HD
ATOM     15  H   UNL     1      34.148 -17.749 -25.479  0.00  0.00    +0.145 HD
ATOM     16  H   UNL     1      34.043 -11.876 -22.955  0.00  0.00    +0.156 HD
ATOM     17  H   UNL     1      33.727 -12.127 -24.611  0.00  0.00    +0.156 HD
ENDROOT
BRANCH   6  18
ATOM     18  C   UNL     1      35.217 -19.762 -21.383  0.00  0.00    +0.119 C 
BRANCH  18  19
ATOM     19  N   UNL     1      34.104 -20.311 -20.636  0.00  0.00    -0.302 N 
ATOM     20  C   UNL     1      32.749 -19.910 -21.010  0.00  0.00    +0.112 C 
BRANCH  19  21
ATOM     21  C   UNL     1      34.311 -21.195 -19.570  0.00  0.00    +0.054 C 
ATOM     22  C   UNL     1      33.242 -21.932 -19.045  0.00  0.00    +0.055 C 
ATOM     23  C   UNL     1      35.588 -21.352 -19.019  0.00  0.00    +0.055 C 
ATOM     24  C   UNL     1      35.794 -22.234 -17.958  0.00  0.00    +0.177 C 
ATOM     25  C   UNL     1      33.448 -22.813 -17.983  0.00  0.00    +0.177 C 
ATOM     26  C   UNL     1      34.724 -22.964 -17.440  0.00  0.00    +0.206 C 
BRANCH  24  27
ATOM     27  O   UNL     1      37.045 -22.373 -17.436  0.00  0.00    -0.468 OA
ATOM     28  C   UNL     1      37.503 -21.338 -16.569  0.00  0.00    +0.253 C 
ENDBRANCH  24  27
BRANCH  25  29
ATOM     29  O   UNL     1      32.395 -23.520 -17.487  0.00  0.00    -0.468 OA
ATOM     30  C   UNL     1      31.456 -22.808 -16.685  0.00  0.00    +0.253 C 
ENDBRANCH  25  29
BRANCH  26  31
ATOM     31  O   UNL     1      34.925 -23.826 -16.403  0.00  0.00    -0.465 OA
ATOM     32  C   UNL     1      34.781 -23.299 -15.086  0.00  0.00    +0.253 C 
ENDBRANCH  26  31
ENDBRANCH  19  21
ENDBRANCH  18  19
ENDBRANCH   6  18
TORSDOF 6
ENDMDL
MODEL 4
REMARK VINA RESULT:     -10.3      4.215      8.688
REMARK  Name = 447815
REMARK  6 active torsions:
REMARK  status: ('A' for Active; 'I' for Inactive)
REMARK    1  A    between atoms: C_6  and  C_18
REMARK    2  A    between atoms: C_18  and  N_19
REMARK    3  A    between atoms: N_19  and  C_21
REMARK    4  A    between atoms: C_24  and  O_27
REMARK    5  A    between atoms: C_25  and  O_29
REMARK    6  A    between atoms: C_26  and  O_31
REMARK                            x       y       z     vdW  Elec       q    Type
REMARK                         _______ _______ _______ _____ _____    ______ ____
ROOT
ATOM      1  N   UNL     1      34.470 -18.333 -24.925  0.00  0.00    -0.182 NA
ATOM      2  N   UNL     1      33.867 -16.294 -25.840  0.00  0.00    -0.273 NA
ATOM      3  N   UNL     1      33.731 -14.300 -24.493  0.00  0.00    -0.312 NA
ATOM      4  N   UNL     1      34.202 -14.355 -22.220  0.00  0.00    -0.332 N 
ATOM      5  N   UNL     1      33.253 -14.233 -26.785  0.00  0.00    -0.283 N 
ATOM      6  C   UNL     1      34.988 -18.541 -22.575  0.00  0.00    +0.014 C 
ATOM      7  C   UNL     1      34.744 -17.188 -22.415  0.00  0.00    -0.008 C 
ATOM      8  C   UNL     1      34.361 -16.418 -23.523  0.00  0.00    +0.115 C 
ATOM      9  C   UNL     1      34.837 -19.061 -23.843  0.00  0.00    +0.108 C 
ATOM     10  C   UNL     1      34.231 -17.022 -24.780  0.00  0.00    +0.104 C 
ATOM     11  C   UNL     1      34.910 -16.640 -21.031  0.00  0.00    +0.032 C 
ATOM     12  C   UNL     1      34.098 -15.053 -23.443  0.00  0.00    +0.201 C 
ATOM     13  C   UNL     1      33.636 -14.977 -25.647  0.00  0.00    +0.206 C 
ATOM     14  H   UNL     1      34.011 -13.389 -22.186  0.00  0.00    +0.145 HD
ATOM     15  H   UNL     1      34.466 -14.833 -21.400  0.00  0.00    +0.145 HD
ATOM     16  H   UNL     1      33.167 -14.679 -27.658  0.00  0.00    +0.156 HD
ATOM     17  H   UNL     1      33.071 -13.269 -26.705  0.00  0.00    +0.156 HD
ENDROOT
BRANCH   6  18
ATOM     18  C   UNL     1      35.395 -19.428 -21.451  0.00  0.00    +0.119 C 
BRANCH  18  19
ATOM     19  N   UNL     1      34.240 -20.023 -20.812  0.00  0.00    -0.302 N 
ATOM     20  C   UNL     1      32.909 -19.620 -21.265  0.00  0.00    +0.112 C 
BRANCH  19  21
ATOM     21  C   UNL     1      34.381 -20.953 -19.776  0.00  0.00    +0.054 C 
ATOM     22  C   UNL     1      33.269 -21.661 -19.303  0.00  0.00    +0.055 C 
ATOM     23  C   UNL     1      35.637 -21.186 -19.202  0.00  0.00    +0.055 C 
ATOM     24  C   UNL     1      35.778 -22.114 -18.170  0.00  0.00    +0.177 C 
ATOM     25  C   UNL     1      33.411 -22.588 -18.270  0.00  0.00    +0.177 C 
ATOM     26  C   UNL     1      34.666 -22.815 -17.704  0.00  0.00    +0.206 C 
BRANCH  24  27
ATOM     27  O   UNL     1      37.009 -22.326 -17.624  0.00  0.00    -0.468 OA
ATOM     28  C   UNL     1      37.410 -21.454 -16.571  0.00  0.00    +0.253 C 
ENDBRANCH  24  27
BRANCH  25  29
ATOM     29  O   UNL     1      32.317 -23.266 -17.825  0.00  0.00    -0.468 OA
ATOM     30  C   UNL     1      31.509 -22.620 -16.844  0.00  0.00    +0.253 C 
ENDBRANCH  25  29
BRANCH  26  31
ATOM     31  O   UNL     1      34.804 -23.722 -16.695  0.00  0.00    -0.465 OA
ATOM     32  C   UNL     1      34.617 -23.244 -15.365  0.00  0.00    +0.253 C 
ENDBRANCH  26  31
ENDBRANCH  19  21
ENDBRANCH  18  19
ENDBRANCH   6  18
TORSDOF 6
ENDMDL
MODEL 5
REMARK VINA RESULT:     -10.3      4.280      8.787
REMARK  Name = 447815
REMARK  6 active torsions:
REMARK  status: ('A' for Active; 'I' for Inactive)
REMARK    1  A    between atoms: C_6  and  C_18
REMARK    2  A    between atoms: C_18  and  N_19
REMARK    3  A    between atoms: N_19  and  C_21
REMARK    4  A    between atoms: C_24  and  O_27
REMARK    5  A    between atoms: C_25  and  O_29
REMARK    6  A    between atoms: C_26  and  O_31
REMARK                            x       y       z     vdW  Elec       q    Type
REMARK                         _______ _______ _______ _____ _____    ______ ____
ROOT
ATOM      1  N   UNL     1      34.928 -16.119 -20.843  0.00  0.00    -0.182 NA
ATOM      2  N   UNL     1      34.438 -14.351 -22.254  0.00  0.00    -0.273 NA
ATOM      3  N   UNL     1      33.991 -14.697 -24.597  0.00  0.00    -0.312 NA
ATOM      4  N   UNL     1      34.037 -16.825 -25.526  0.00  0.00    -0.332 N 
ATOM      5  N   UNL     1      33.944 -12.546 -23.672  0.00  0.00    -0.283 N 
ATOM      6  C   UNL     1      35.010 -18.388 -21.668  0.00  0.00    +0.014 C 
ATOM      7  C   UNL     1      34.696 -17.925 -22.934  0.00  0.00    -0.008 C 
ATOM      8  C   UNL     1      34.501 -16.551 -23.140  0.00  0.00    +0.115 C 
ATOM      9  C   UNL     1      35.114 -17.450 -20.664  0.00  0.00    +0.108 C 
ATOM     10  C   UNL     1      34.623 -15.662 -22.065  0.00  0.00    +0.104 C 
ATOM     11  C   UNL     1      34.589 -18.957 -24.014  0.00  0.00    +0.032 C 
ATOM     12  C   UNL     1      34.183 -16.009 -24.382  0.00  0.00    +0.201 C 
ATOM     13  C   UNL     1      34.133 -13.935 -23.503  0.00  0.00    +0.206 C 
ATOM     14  H   UNL     1      33.813 -16.420 -26.394  0.00  0.00    +0.145 HD
ATOM     15  H   UNL     1      34.162 -17.800 -25.454  0.00  0.00    +0.145 HD
ATOM     16  H   UNL     1      34.035 -11.939 -22.902  0.00  0.00    +0.156 HD
ATOM     17  H   UNL     1      33.720 -12.184 -24.560  0.00  0.00    +0.156 HD
ENDROOT
BRANCH   6  18
ATOM     18  C   UNL     1      35.235 -19.829 -21.367  0.00  0.00    +0.119 C 
BRANCH  18  19
ATOM     19  N   UNL     1      34.122 -20.386 -20.628  0.00  0.00    -0.302 N 
ATOM     20  C   UNL     1      32.765 -20.014 -21.025  0.00  0.00    +0.112 C 
BRANCH  19  21
ATOM     21  C   UNL     1      34.328 -21.253 -19.548  0.00  0.00    +0.054 C 
ATOM     22  C   UNL     1      35.603 -21.393 -18.986  0.00  0.00    +0.055 C 
ATOM     23  C   UNL     1      33.262 -21.989 -19.018  0.00  0.00    +0.055 C 
ATOM     24  C   UNL     1      33.467 -22.852 -17.941  0.00  0.00    +0.177 C 
ATOM     25  C   UNL     1      35.808 -22.257 -17.911  0.00  0.00    +0.177 C 
ATOM     26  C   UNL     1      34.741 -22.987 -17.388  0.00  0.00    +0.206 C 
BRANCH  24  27
ATOM     27  O   UNL     1      32.415 -23.560 -17.441  0.00  0.00    -0.468 OA
ATOM     28  C   UNL     1      31.425 -22.827 -16.723  0.00  0.00    +0.253 C 
ENDBRANCH  24  27
BRANCH  25  29
ATOM     29  O   UNL     1      37.057 -22.379 -17.379  0.00  0.00    -0.468 OA
ATOM     30  C   UNL     1      37.481 -21.356 -16.480  0.00  0.00    +0.253 C 
ENDBRANCH  25  29
BRANCH  26  31
ATOM     31  O   UNL     1      34.942 -23.831 -16.336  0.00  0.00    -0.465 OA
ATOM     32  C   UNL     1      34.745 -23.294 -15.030  0.00  0.00    +0.253 C 
ENDBRANCH  26  31
ENDBRANCH  19  21
ENDBRANCH  18  19
ENDBRANCH   6  18
TORSDOF 6
ENDMDL
MODEL 6
REMARK VINA RESULT:     -10.3      4.272      8.754
REMARK  Name = 447815
REMARK  6 active torsions:
REMARK  status: ('A' for Active; 'I' for Inactive)
REMARK    1  A    between atoms: C_6  and  C_18
REMARK    2  A    between atoms: C_18  and  N_19
REMARK    3  A    between atoms: N_19  and  C_21
REMARK    4  A    between atoms: C_24  and  O_27
REMARK    5  A    between atoms: C_25  and  O_29
REMARK    6  A    between atoms: C_26  and  O_31
REMARK                            x       y       z     vdW  Elec       q    Type
REMARK                         _______ _______ _______ _____ _____    ______ ____
ROOT
ATOM      1  N   UNL     1      34.520 -18.589 -24.719  0.00  0.00    -0.182 NA
ATOM      2  N   UNL     1      33.920 -16.585 -25.709  0.00  0.00    -0.273 NA
ATOM      3  N   UNL     1      33.763 -14.548 -24.431  0.00  0.00    -0.312 NA
ATOM      4  N   UNL     1      34.209 -14.524 -22.152  0.00  0.00    -0.332 N 
ATOM      5  N   UNL     1      33.310 -14.559 -26.729  0.00  0.00    -0.283 N 
ATOM      6  C   UNL     1      35.013 -18.717 -22.358  0.00  0.00    +0.014 C 
ATOM      7  C   UNL     1      34.762 -17.360 -22.246  0.00  0.00    -0.008 C 
ATOM      8  C   UNL     1      34.389 -16.629 -23.383  0.00  0.00    +0.115 C 
ATOM      9  C   UNL     1      34.878 -19.279 -23.609  0.00  0.00    +0.108 C 
ATOM     10  C   UNL     1      34.275 -17.276 -24.620  0.00  0.00    +0.104 C 
ATOM     11  C   UNL     1      34.912 -16.765 -20.880  0.00  0.00    +0.032 C 
ATOM     12  C   UNL     1      34.120 -15.263 -23.352  0.00  0.00    +0.201 C 
ATOM     13  C   UNL     1      33.683 -15.263 -25.562  0.00  0.00    +0.206 C 
ATOM     14  H   UNL     1      34.015 -13.559 -22.153  0.00  0.00    +0.145 HD
ATOM     15  H   UNL     1      34.465 -14.973 -21.314  0.00  0.00    +0.145 HD
ATOM     16  H   UNL     1      33.235 -15.035 -27.587  0.00  0.00    +0.156 HD
ATOM     17  H   UNL     1      33.123 -13.594 -26.683  0.00  0.00    +0.156 HD
ENDROOT
BRANCH   6  18
ATOM     18  C   UNL     1      35.411 -19.563 -21.200  0.00  0.00    +0.119 C 
BRANCH  18  19
ATOM     19  N   UNL     1      34.256 -20.198 -20.597  0.00  0.00    -0.302 N 
ATOM     20  C   UNL     1      32.929 -19.843 -21.095  0.00  0.00    +0.112 C 
BRANCH  19  21
ATOM     21  C   UNL     1      34.397 -21.120 -19.554  0.00  0.00    +0.054 C 
ATOM     22  C   UNL     1      35.647 -21.333 -18.960  0.00  0.00    +0.055 C 
ATOM     23  C   UNL     1      33.288 -21.841 -19.093  0.00  0.00    +0.055 C 
ATOM     24  C   UNL     1      33.427 -22.760 -18.053  0.00  0.00    +0.177 C 
ATOM     25  C   UNL     1      35.786 -22.253 -17.921  0.00  0.00    +0.177 C 
ATOM     26  C   UNL     1      34.676 -22.966 -17.467  0.00  0.00    +0.206 C 
BRANCH  24  27
ATOM     27  O   UNL     1      32.335 -23.450 -17.620  0.00  0.00    -0.468 OA
ATOM     28  C   UNL     1      31.434 -22.762 -16.757  0.00  0.00    +0.253 C 
ENDBRANCH  24  27
BRANCH  25  29
ATOM     29  O   UNL     1      37.011 -22.444 -17.356  0.00  0.00    -0.468 OA
ATOM     30  C   UNL     1      37.496 -21.415 -16.496  0.00  0.00    +0.253 C 
ENDBRANCH  25  29
BRANCH  26  31
ATOM     31  O   UNL     1      34.813 -23.864 -16.450  0.00  0.00    -0.465 OA
ATOM     32  C   UNL     1      34.675 -23.364 -15.122  0.00  0.00    +0.253 C 
ENDBRANCH  26  31
ENDBRANCH  19  21
ENDBRANCH  18  19
ENDBRANCH   6  18
TORSDOF 6
ENDMDL
MODEL 7
REMARK VINA RESULT:      -9.9      3.430      6.249
REMARK  Name = 447815
REMARK  6 active torsions:
REMARK  status: ('A' for Active; 'I' for Inactive)
REMARK    1  A    between atoms: C_6  and  C_18
REMARK    2  A    between atoms: C_18  and  N_19
REMARK    3  A    between atoms: N_19  and  C_21
REMARK    4  A    between atoms: C_24  and  O_27
REMARK    5  A    between atoms: C_25  and  O_29
REMARK    6  A    between atoms: C_26  and  O_31
REMARK                            x       y       z     vdW  Elec       q    Type
REMARK                         _______ _______ _______ _____ _____    ______ ____
ROOT
ATOM      1  N   UNL     1      34.050 -15.246 -20.887  0.00  0.00    -0.182 NA
ATOM      2  N   UNL     1      35.306 -17.184 -20.730  0.00  0.00    -0.273 NA
ATOM      3  N   UNL     1      35.786 -18.533 -22.669  0.00  0.00    -0.312 NA
ATOM      4  N   UNL     1      35.001 -17.934 -24.771  0.00  0.00    -0.332 N 
ATOM      5  N   UNL     1      36.581 -19.148 -20.554  0.00  0.00    -0.283 N 
ATOM      6  C   UNL     1      33.168 -14.499 -23.007  0.00  0.00    +0.014 C 
ATOM      7  C   UNL     1      33.745 -15.597 -23.619  0.00  0.00    -0.008 C 
ATOM      8  C   UNL     1      34.474 -16.516 -22.849  0.00  0.00    +0.115 C 
ATOM      9  C   UNL     1      33.349 -14.371 -21.647  0.00  0.00    +0.108 C 
ATOM     10  C   UNL     1      34.613 -16.313 -21.471  0.00  0.00    +0.104 C 
ATOM     11  C   UNL     1      33.538 -15.722 -25.098  0.00  0.00    +0.032 C 
ATOM     12  C   UNL     1      35.084 -17.644 -23.392  0.00  0.00    +0.201 C 
ATOM     13  C   UNL     1      35.855 -18.245 -21.361  0.00  0.00    +0.206 C 
ATOM     14  H   UNL     1      35.439 -18.738 -25.133  0.00  0.00    +0.145 HD
ATOM     15  H   UNL     1      34.503 -17.332 -25.372  0.00  0.00    +0.145 HD
ATOM     16  H   UNL     1      36.665 -18.985 -19.587  0.00  0.00    +0.156 HD
ATOM     17  H   UNL     1      37.003 -19.940 -20.958  0.00  0.00    +0.156 HD
ENDROOT
BRANCH   6  18
ATOM     18  C   UNL     1      32.378 -13.480 -23.753  0.00  0.00    +0.119 C 
BRANCH  18  19
ATOM     19  N   UNL     1      33.121 -12.245 -23.892  0.00  0.00    -0.302 N 
ATOM     20  C   UNL     1      34.248 -12.211 -24.823  0.00  0.00    +0.112 C 
BRANCH  19  21
ATOM     21  C   UNL     1      32.785 -11.107 -23.149  0.00  0.00    +0.054 C 
ATOM     22  C   UNL     1      31.978 -11.218 -22.010  0.00  0.00    +0.055 C 
ATOM     23  C   UNL     1      33.253  -9.845 -23.537  0.00  0.00    +0.055 C 
ATOM     24  C   UNL     1      32.918  -8.712 -22.796  0.00  0.00    +0.177 C 
ATOM     25  C   UNL     1      31.644 -10.084 -21.270  0.00  0.00    +0.177 C 
ATOM     26  C   UNL     1      32.114  -8.831 -21.663  0.00  0.00    +0.206 C 
BRANCH  24  27
ATOM     27  O   UNL     1      33.384  -7.493 -23.191  0.00  0.00    -0.468 OA
ATOM     28  C   UNL     1      34.759  -7.412 -23.558  0.00  0.00    +0.253 C 
ENDBRANCH  24  27
BRANCH  25  29
ATOM     29  O   UNL     1      30.858 -10.214 -20.165  0.00  0.00    -0.468 OA
ATOM     30  C   UNL     1      31.476 -10.728 -18.987  0.00  0.00    +0.253 C 
ENDBRANCH  25  29
BRANCH  26  31
ATOM     31  O   UNL     1      31.787  -7.723 -20.939  0.00  0.00    -0.465 OA
ATOM     32  C   UNL     1      32.728  -7.290 -19.959  0.00  0.00    +0.253 C 
ENDBRANCH  26  31
ENDBRANCH  19  21
ENDBRANCH  18  19
ENDBRANCH   6  18
TORSDOF 6
ENDMDL
MODEL 8
REMARK VINA RESULT:      -9.9      3.437      5.981
REMARK  Name = 447815
REMARK  6 active torsions:
REMARK  status: ('A' for Active; 'I' for Inactive)
REMARK    1  A    between atoms: C_6  and  C_18
REMARK    2  A    between atoms: C_18  and  N_19
REMARK    3  A    between atoms: N_19  and  C_21
REMARK    4  A    between atoms: C_24  and  O_27
REMARK    5  A    between atoms: C_25  and  O_29
REMARK    6  A    between atoms: C_26  and  O_31
REMARK                            x       y       z     vdW  Elec       q    Type
REMARK                         _______ _______ _______ _____ _____    ______ ____
ROOT
ATOM      1  N   UNL     1      34.032 -15.266 -20.847  0.00  0.00    -0.182 NA
ATOM      2  N   UNL     1      35.297 -17.201 -20.721  0.00  0.00    -0.273 NA
ATOM      3  N   UNL     1      35.783 -18.516 -22.681  0.00  0.00    -0.312 NA
ATOM      4  N   UNL     1      34.996 -17.887 -24.774  0.00  0.00    -0.332 N 
ATOM      5  N   UNL     1      36.581 -19.161 -20.575  0.00  0.00    -0.283 N 
ATOM      6  C   UNL     1      33.147 -14.489 -22.956  0.00  0.00    +0.014 C 
ATOM      7  C   UNL     1      33.729 -15.575 -23.585  0.00  0.00    -0.008 C 
ATOM      8  C   UNL     1      34.462 -16.503 -22.830  0.00  0.00    +0.115 C 
ATOM      9  C   UNL     1      33.327 -14.382 -21.593  0.00  0.00    +0.108 C 
ATOM     10  C   UNL     1      34.599 -16.321 -21.448  0.00  0.00    +0.104 C 
ATOM     11  C   UNL     1      33.523 -15.678 -25.065  0.00  0.00    +0.032 C 
ATOM     12  C   UNL     1      35.077 -17.619 -23.389  0.00  0.00    +0.201 C 
ATOM     13  C   UNL     1      35.851 -18.249 -21.369  0.00  0.00    +0.206 C 
ATOM     14  H   UNL     1      35.438 -18.683 -25.148  0.00  0.00    +0.145 HD
ATOM     15  H   UNL     1      34.496 -17.279 -25.365  0.00  0.00    +0.145 HD
ATOM     16  H   UNL     1      36.664 -19.013 -19.606  0.00  0.00    +0.156 HD
ATOM     17  H   UNL     1      37.007 -19.944 -20.992  0.00  0.00    +0.156 HD
ENDROOT
BRANCH   6  18
ATOM     18  C   UNL     1      32.352 -13.463 -23.685  0.00  0.00    +0.119 C 
BRANCH  18  19
ATOM     19  N   UNL     1      33.106 -12.236 -23.842  0.00  0.00    -0.302 N 
ATOM     20  C   UNL     1      34.232 -12.225 -24.773  0.00  0.00    +0.112 C 
BRANCH  19  21
ATOM     21  C   UNL     1      32.779 -11.085 -23.115  0.00  0.00    +0.054 C 
ATOM     22  C   UNL     1      33.240  -9.830 -23.531  0.00  0.00    +0.055 C 
ATOM     23  C   UNL     1      31.988 -11.177 -21.963  0.00  0.00    +0.055 C 
ATOM     24  C   UNL     1      31.662 -10.030 -21.239  0.00  0.00    +0.177 C 
ATOM     25  C   UNL     1      32.914  -8.684 -22.806  0.00  0.00    +0.177 C 
ATOM     26  C   UNL     1      32.125  -8.784 -21.660  0.00  0.00    +0.206 C 
BRANCH  24  27
ATOM     27  O   UNL     1      30.891 -10.142 -20.121  0.00  0.00    -0.468 OA
ATOM     28  C   UNL     1      31.474 -10.791 -18.994  0.00  0.00    +0.253 C 
ENDBRANCH  24  27
BRANCH  25  29
ATOM     29  O   UNL     1      33.372  -7.472 -23.229  0.00  0.00    -0.468 OA
ATOM     30  C   UNL     1      34.737  -7.401 -23.633  0.00  0.00    +0.253 C 
ENDBRANCH  25  29
BRANCH  26  31
ATOM     31  O   UNL     1      31.806  -7.663 -20.952  0.00  0.00    -0.465 OA
ATOM     32  C   UNL     1      32.700  -7.281 -19.908  0.00  0.00    +0.253 C 
ENDBRANCH  26  31
ENDBRANCH  19  21
ENDBRANCH  18  19
ENDBRANCH   6  18
TORSDOF 6
ENDMDL
MODEL 9
REMARK VINA RESULT:      -9.8      3.392      6.198
REMARK  Name = 447815
REMARK  6 active torsions:
REMARK  status: ('A' for Active; 'I' for Inactive)
REMARK    1  A    between atoms: C_6  and  C_18
REMARK    2  A    between atoms: C_18  and  N_19
REMARK    3  A    between atoms: N_19  and  C_21
REMARK    4  A    between atoms: C_24  and  O_27
REMARK    5  A    between atoms: C_25  and  O_29
REMARK    6  A    between atoms: C_26  and  O_31
REMARK                            x       y       z     vdW  Elec       q    Type
REMARK                         _______ _______ _______ _____ _____    ______ ____
ROOT
ATOM      1  N   UNL     1      33.594 -15.168 -20.605  0.00  0.00    -0.182 NA
ATOM      2  N   UNL     1      34.971 -17.029 -20.644  0.00  0.00    -0.273 NA
ATOM      3  N   UNL     1      35.728 -17.990 -22.719  0.00  0.00    -0.312 NA
ATOM      4  N   UNL     1      35.102 -17.081 -24.763  0.00  0.00    -0.332 N 
ATOM      5  N   UNL     1      36.366 -18.917 -20.665  0.00  0.00    -0.283 N 
ATOM      6  C   UNL     1      32.862 -14.115 -22.652  0.00  0.00    +0.014 C 
ATOM      7  C   UNL     1      33.574 -15.056 -23.375  0.00  0.00    -0.008 C 
ATOM      8  C   UNL     1      34.293 -16.051 -22.697  0.00  0.00    +0.115 C 
ATOM      9  C   UNL     1      32.904 -14.215 -21.278  0.00  0.00    +0.108 C 
ATOM     10  C   UNL     1      34.287 -16.083 -21.297  0.00  0.00    +0.104 C 
ATOM     11  C   UNL     1      33.516 -14.934 -24.867  0.00  0.00    +0.032 C 
ATOM     12  C   UNL     1      35.033 -17.031 -23.353  0.00  0.00    +0.201 C 
ATOM     13  C   UNL     1      35.654 -17.930 -21.382  0.00  0.00    +0.206 C 
ATOM     14  H   UNL     1      35.630 -17.783 -25.206  0.00  0.00    +0.145 HD
ATOM     15  H   UNL     1      34.619 -16.414 -25.303  0.00  0.00    +0.145 HD
ATOM     16  H   UNL     1      36.347 -18.920 -19.681  0.00  0.00    +0.156 HD
ATOM     17  H   UNL     1      36.882 -19.601 -21.150  0.00  0.00    +0.156 HD
ENDROOT
BRANCH   6  18
ATOM     18  C   UNL     1      32.071 -13.030 -23.296  0.00  0.00    +0.119 C 
BRANCH  18  19
ATOM     19  N   UNL     1      32.032 -11.848 -22.459  0.00  0.00    -0.302 N 
ATOM     20  C   UNL     1      31.222 -11.883 -21.243  0.00  0.00    +0.112 C 
BRANCH  19  21
ATOM     21  C   UNL     1      32.740 -10.690 -22.803  0.00  0.00    +0.054 C 
ATOM     22  C   UNL     1      33.782 -10.749 -23.737  0.00  0.00    +0.055 C 
ATOM     23  C   UNL     1      32.412  -9.461 -22.218  0.00  0.00    +0.055 C 
ATOM     24  C   UNL     1      33.117  -8.307 -22.562  0.00  0.00    +0.177 C 
ATOM     25  C   UNL     1      34.486  -9.595 -24.079  0.00  0.00    +0.177 C 
ATOM     26  C   UNL     1      34.154  -8.374 -23.492  0.00  0.00    +0.206 C 
BRANCH  24  27
ATOM     27  O   UNL     1      32.782  -7.121 -21.980  0.00  0.00    -0.468 OA
ATOM     28  C   UNL     1      32.422  -7.154 -20.601  0.00  0.00    +0.253 C 
ENDBRANCH  24  27
BRANCH  25  29
ATOM     29  O   UNL     1      35.496  -9.673 -24.990  0.00  0.00    -0.468 OA
ATOM     30  C   UNL     1      35.321 -10.581 -26.076  0.00  0.00    +0.253 C 
ENDBRANCH  25  29
BRANCH  26  31
ATOM     31  O   UNL     1      34.842  -7.246 -23.828  0.00  0.00    -0.465 OA
ATOM     32  C   UNL     1      34.386  -6.526 -24.971  0.00  0.00    +0.253 C 
ENDBRANCH  26  31
ENDBRANCH  19  21
ENDBRANCH  18  19
ENDBRANCH   6  18
TORSDOF 6
ENDMDL
