MODEL 1
REMARK VINA RESULT:      -9.9      0.000      0.000
REMARK  Name = 67462786
REMARK  9 active torsions:
REMARK  status: ('A' for Active; 'I' for Inactive)
REMARK    1  A    between atoms: N_1  and  C_4
REMARK    2  A    between atoms: N_1  and  C_18
REMARK    3  A    between atoms: N_1  and  C_28
REMARK    4  A    between atoms: C_10  and  C_14
REMARK    5  A    between atoms: C_21  and  O_24
REMARK    6  A    between atoms: C_22  and  O_26
REMARK    7  A    between atoms: C_28  and  C_29
REMARK    8  A    between atoms: C_29  and  N_30
REMARK    9  A    between atoms: N_30  and  C_33
REMARK                            x       y       z     vdW  Elec       q    Type
REMARK                         _______ _______ _______ _____ _____    ______ ____
ROOT
ATOM      1  N   UNL     1      34.854 -23.374 -15.101  0.00  0.00    -0.292 N 
ENDROOT
BRANCH   1   4
ATOM      2  N   UNL     1      30.124 -22.972 -15.839  0.00  0.00    -0.407 NA
ATOM      3  N   UNL     1      29.670 -25.141 -14.162  0.00  0.00    -0.265 NA
ATOM      4  C   UNL     1      33.540 -23.823 -14.861  0.00  0.00    +0.032 C 
ATOM      5  C   UNL     1      32.459 -23.182 -15.464  0.00  0.00    +0.101 C 
ATOM      6  C   UNL     1      33.313 -24.905 -14.024  0.00  0.00    -0.009 C 
ATOM      7  C   UNL     1      31.151 -23.607 -15.244  0.00  0.00    +0.128 C 
ATOM      8  C   UNL     1      30.921 -24.705 -14.396  0.00  0.00    +0.084 C 
ATOM      9  C   UNL     1      32.008 -25.338 -13.798  0.00  0.00    +0.075 C 
ATOM     10  C   UNL     1      28.881 -23.424 -15.591  0.00  0.00    +0.136 C 
ATOM     11  C   UNL     1      28.657 -24.492 -14.765  0.00  0.00    +0.184 C 
BRANCH  10  14
ATOM     12  N   UNL     1      26.525 -21.901 -17.797  0.00  0.00    -0.208 N 
ATOM     13  N   UNL     1      25.913 -21.527 -16.661  0.00  0.00    -0.176 NA
ATOM     14  C   UNL     1      27.805 -22.734 -16.235  0.00  0.00    +0.064 C 
ATOM     15  C   UNL     1      27.663 -22.625 -17.598  0.00  0.00    +0.088 C 
ATOM     16  C   UNL     1      26.699 -22.039 -15.711  0.00  0.00    +0.121 C 
ATOM     17  C   UNL     1      25.961 -21.525 -19.072  0.00  0.00    +0.140 C 
ENDBRANCH  10  14
ENDBRANCH   1   4
BRANCH   1  18
ATOM     18  C   UNL     1      36.022 -23.743 -14.377  0.00  0.00    +0.057 C 
ATOM     19  C   UNL     1      35.988 -23.803 -12.984  0.00  0.00    +0.052 C 
ATOM     20  C   UNL     1      37.201 -24.045 -15.059  0.00  0.00    +0.052 C 
ATOM     21  C   UNL     1      38.346 -24.407 -14.349  0.00  0.00    +0.143 C 
ATOM     22  C   UNL     1      37.133 -24.164 -12.273  0.00  0.00    +0.143 C 
ATOM     23  C   UNL     1      38.312 -24.466 -12.955  0.00  0.00    +0.074 C 
BRANCH  21  24
ATOM     24  O   UNL     1      39.495 -24.700 -15.014  0.00  0.00    -0.471 OA
ATOM     25  C   UNL     1      40.304 -25.749 -14.484  0.00  0.00    +0.252 C 
ENDBRANCH  21  24
BRANCH  22  26
ATOM     26  O   UNL     1      37.101 -24.221 -10.913  0.00  0.00    -0.471 OA
ATOM     27  C   UNL     1      35.814 -24.249 -10.296  0.00  0.00    +0.252 C 
ENDBRANCH  22  26
ENDBRANCH   1  18
BRANCH   1  28
ATOM     28  C   UNL     1      35.038 -22.232 -16.014  0.00  0.00    +0.072 C 
BRANCH  28  29
ATOM     29  C   UNL     1      34.903 -22.702 -17.456  0.00  0.00    -0.059 C 
BRANCH  29  30
ATOM     30  N   UNL     1      35.837 -21.986 -18.313  0.00  0.00    +0.386 N 
ATOM     31  H   UNL     1      36.688 -22.540 -18.416  0.00  0.00    -0.084 HD
ATOM     32  H   UNL     1      36.049 -21.085 -17.884  0.00  0.00    -0.084 HD
BRANCH  30  33
ATOM     33  C   UNL     1      35.261 -21.749 -19.629  0.00  0.00    -0.062 C 
ATOM     34  C   UNL     1      35.904 -20.525 -20.275  0.00  0.00    -0.023 C 
ATOM     35  C   UNL     1      33.752 -21.570 -19.499  0.00  0.00    -0.023 C 
ENDBRANCH  30  33
ENDBRANCH  29  30
ENDBRANCH  28  29
ENDBRANCH   1  28
TORSDOF 9
ENDMDL
MODEL 2
REMARK VINA RESULT:      -9.8      0.075      2.124
REMARK  Name = 67462786
REMARK  9 active torsions:
REMARK  status: ('A' for Active; 'I' for Inactive)
REMARK    1  A    between atoms: N_1  and  C_4
REMARK    2  A    between atoms: N_1  and  C_18
REMARK    3  A    between atoms: N_1  and  C_28
REMARK    4  A    between atoms: C_10  and  C_14
REMARK    5  A    between atoms: C_21  and  O_24
REMARK    6  A    between atoms: C_22  and  O_26
REMARK    7  A    between atoms: C_28  and  C_29
REMARK    8  A    between atoms: C_29  and  N_30
REMARK    9  A    between atoms: N_30  and  C_33
REMARK                            x       y       z     vdW  Elec       q    Type
REMARK                         _______ _______ _______ _____ _____    ______ ____
ROOT
ATOM      1  N   UNL     1      34.856 -23.389 -15.114  0.00  0.00    -0.292 N 
ENDROOT
BRANCH   1   4
ATOM      2  N   UNL     1      30.127 -22.972 -15.845  0.00  0.00    -0.407 NA
ATOM      3  N   UNL     1      29.665 -25.107 -14.128  0.00  0.00    -0.265 NA
ATOM      4  C   UNL     1      33.540 -23.825 -14.862  0.00  0.00    +0.032 C 
ATOM      5  C   UNL     1      32.462 -23.189 -15.473  0.00  0.00    +0.101 C 
ATOM      6  C   UNL     1      33.309 -24.891 -14.005  0.00  0.00    -0.009 C 
ATOM      7  C   UNL     1      31.152 -23.602 -15.243  0.00  0.00    +0.128 C 
ATOM      8  C   UNL     1      30.918 -24.683 -14.373  0.00  0.00    +0.084 C 
ATOM      9  C   UNL     1      32.002 -25.312 -13.767  0.00  0.00    +0.075 C 
ATOM     10  C   UNL     1      28.882 -23.412 -15.586  0.00  0.00    +0.136 C 
ATOM     11  C   UNL     1      28.654 -24.463 -14.740  0.00  0.00    +0.184 C 
BRANCH  10  14
ATOM     12  N   UNL     1      26.532 -21.910 -17.813  0.00  0.00    -0.208 N 
ATOM     13  N   UNL     1      25.918 -21.522 -16.682  0.00  0.00    -0.176 NA
ATOM     14  C   UNL     1      27.808 -22.728 -16.240  0.00  0.00    +0.064 C 
ATOM     15  C   UNL     1      27.668 -22.633 -17.604  0.00  0.00    +0.088 C 
ATOM     16  C   UNL     1      26.702 -22.025 -15.725  0.00  0.00    +0.121 C 
ATOM     17  C   UNL     1      25.971 -21.547 -19.093  0.00  0.00    +0.140 C 
ENDBRANCH  10  14
ENDBRANCH   1   4
BRANCH   1  18
ATOM     18  C   UNL     1      36.026 -23.757 -14.390  0.00  0.00    +0.057 C 
ATOM     19  C   UNL     1      37.204 -24.055 -15.075  0.00  0.00    +0.052 C 
ATOM     20  C   UNL     1      35.994 -23.821 -12.998  0.00  0.00    +0.052 C 
ATOM     21  C   UNL     1      37.139 -24.182 -12.289  0.00  0.00    +0.143 C 
ATOM     22  C   UNL     1      38.349 -24.417 -14.367  0.00  0.00    +0.143 C 
ATOM     23  C   UNL     1      38.317 -24.481 -12.974  0.00  0.00    +0.074 C 
BRANCH  21  24
ATOM     24  O   UNL     1      37.107 -24.245 -10.930  0.00  0.00    -0.471 OA
ATOM     25  C   UNL     1      35.823 -24.255 -10.310  0.00  0.00    +0.252 C 
ENDBRANCH  21  24
BRANCH  22  26
ATOM     26  O   UNL     1      39.499 -24.709 -15.035  0.00  0.00    -0.471 OA
ATOM     27  C   UNL     1      40.325 -25.735 -14.485  0.00  0.00    +0.252 C 
ENDBRANCH  22  26
ENDBRANCH   1  18
BRANCH   1  28
ATOM     28  C   UNL     1      35.044 -22.260 -16.042  0.00  0.00    +0.072 C 
BRANCH  28  29
ATOM     29  C   UNL     1      34.878 -22.743 -17.477  0.00  0.00    -0.059 C 
BRANCH  29  30
ATOM     30  N   UNL     1      35.729 -21.972 -18.373  0.00  0.00    +0.386 N 
ATOM     31  H   UNL     1      36.595 -22.485 -18.536  0.00  0.00    -0.084 HD
ATOM     32  H   UNL     1      35.925 -21.070 -17.940  0.00  0.00    -0.084 HD
BRANCH  30  33
ATOM     33  C   UNL     1      35.066 -21.740 -19.648  0.00  0.00    -0.062 C 
ATOM     34  C   UNL     1      35.648 -20.505 -20.330  0.00  0.00    -0.023 C 
ATOM     35  C   UNL     1      33.566 -21.584 -19.421  0.00  0.00    -0.023 C 
ENDBRANCH  30  33
ENDBRANCH  29  30
ENDBRANCH  28  29
ENDBRANCH   1  28
TORSDOF 9
ENDMDL
MODEL 3
REMARK VINA RESULT:      -9.6      9.708     14.360
REMARK  Name = 67462786
REMARK  9 active torsions:
REMARK  status: ('A' for Active; 'I' for Inactive)
REMARK    1  A    between atoms: N_1  and  C_4
REMARK    2  A    between atoms: N_1  and  C_18
REMARK    3  A    between atoms: N_1  and  C_28
REMARK    4  A    between atoms: C_10  and  C_14
REMARK    5  A    between atoms: C_21  and  O_24
REMARK    6  A    between atoms: C_22  and  O_26
REMARK    7  A    between atoms: C_28  and  C_29
REMARK    8  A    between atoms: C_29  and  N_30
REMARK    9  A    between atoms: N_30  and  C_33
REMARK                            x       y       z     vdW  Elec       q    Type
REMARK                         _______ _______ _______ _____ _____    ______ ____
ROOT
ATOM      1  N   UNL     1      32.699 -12.612 -23.523  0.00  0.00    -0.292 N 
ENDROOT
BRANCH   1   4
ATOM      2  N   UNL     1      34.519 -16.882 -22.287  0.00  0.00    -0.407 NA
ATOM      3  N   UNL     1      34.523 -17.662 -24.954  0.00  0.00    -0.265 NA
ATOM      4  C   UNL     1      33.163 -13.892 -23.887  0.00  0.00    +0.032 C 
ATOM      5  C   UNL     1      33.621 -14.776 -22.913  0.00  0.00    +0.101 C 
ATOM      6  C   UNL     1      33.165 -14.282 -25.219  0.00  0.00    -0.009 C 
ATOM      7  C   UNL     1      34.082 -16.047 -23.246  0.00  0.00    +0.128 C 
ATOM      8  C   UNL     1      34.084 -16.442 -24.597  0.00  0.00    +0.084 C 
ATOM      9  C   UNL     1      33.624 -15.551 -25.564  0.00  0.00    +0.075 C 
ATOM     10  C   UNL     1      34.954 -18.098 -22.665  0.00  0.00    +0.136 C 
ATOM     11  C   UNL     1      34.957 -18.482 -23.979  0.00  0.00    +0.184 C 
BRANCH  10  14
ATOM     12  N   UNL     1      35.449 -20.560 -20.129  0.00  0.00    -0.208 N 
ATOM     13  N   UNL     1      36.672 -20.011 -20.030  0.00  0.00    -0.176 NA
ATOM     14  C   UNL     1      35.413 -18.970 -21.627  0.00  0.00    +0.064 C 
ATOM     15  C   UNL     1      34.656 -19.973 -21.070  0.00  0.00    +0.088 C 
ATOM     16  C   UNL     1      36.644 -19.041 -20.947  0.00  0.00    +0.121 C 
ATOM     17  C   UNL     1      35.090 -21.667 -19.276  0.00  0.00    +0.140 C 
ENDBRANCH  10  14
ENDBRANCH   1   4
BRANCH   1  18
ATOM     18  C   UNL     1      33.342 -11.370 -23.788  0.00  0.00    +0.057 C 
ATOM     19  C   UNL     1      32.920 -10.213 -23.132  0.00  0.00    +0.052 C 
ATOM     20  C   UNL     1      34.393 -11.308 -24.703  0.00  0.00    +0.052 C 
ATOM     21  C   UNL     1      35.022 -10.091 -24.963  0.00  0.00    +0.143 C 
ATOM     22  C   UNL     1      33.549  -8.996 -23.392  0.00  0.00    +0.143 C 
ATOM     23  C   UNL     1      34.600  -8.934 -24.307  0.00  0.00    +0.074 C 
BRANCH  21  24
ATOM     24  O   UNL     1      36.047 -10.032 -25.856  0.00  0.00    -0.471 OA
ATOM     25  C   UNL     1      35.859 -10.694 -27.105  0.00  0.00    +0.252 C 
ENDBRANCH  21  24
BRANCH  22  26
ATOM     26  O   UNL     1      33.137  -7.866 -22.753  0.00  0.00    -0.471 OA
ATOM     27  C   UNL     1      31.839  -7.373 -23.082  0.00  0.00    +0.252 C 
ENDBRANCH  22  26
ENDBRANCH   1  18
BRANCH   1  28
ATOM     28  C   UNL     1      31.583 -12.528 -22.566  0.00  0.00    +0.072 C 
BRANCH  28  29
ATOM     29  C   UNL     1      32.129 -12.336 -21.157  0.00  0.00    -0.059 C 
BRANCH  29  30
ATOM     30  N   UNL     1      31.209 -11.535 -20.361  0.00  0.00    +0.386 N 
ATOM     31  H   UNL     1      30.562 -12.155 -19.873  0.00  0.00    -0.084 HD
ATOM     32  H   UNL     1      30.699 -10.909 -20.984  0.00  0.00    -0.084 HD
BRANCH  30  33
ATOM     33  C   UNL     1      31.929 -10.733 -19.383  0.00  0.00    -0.062 C 
ATOM     34  C   UNL     1      31.306 -10.900 -17.999  0.00  0.00    -0.023 C 
ATOM     35  C   UNL     1      31.915  -9.270 -19.816  0.00  0.00    -0.023 C 
ENDBRANCH  30  33
ENDBRANCH  29  30
ENDBRANCH  28  29
ENDBRANCH   1  28
TORSDOF 9
ENDMDL
MODEL 4
REMARK VINA RESULT:      -9.6     10.272     14.763
REMARK  Name = 67462786
REMARK  9 active torsions:
REMARK  status: ('A' for Active; 'I' for Inactive)
REMARK    1  A    between atoms: N_1  and  C_4
REMARK    2  A    between atoms: N_1  and  C_18
REMARK    3  A    between atoms: N_1  and  C_28
REMARK    4  A    between atoms: C_10  and  C_14
REMARK    5  A    between atoms: C_21  and  O_24
REMARK    6  A    between atoms: C_22  and  O_26
REMARK    7  A    between atoms: C_28  and  C_29
REMARK    8  A    between atoms: C_29  and  N_30
REMARK    9  A    between atoms: N_30  and  C_33
REMARK                            x       y       z     vdW  Elec       q    Type
REMARK                         _______ _______ _______ _____ _____    ______ ____
ROOT
ATOM      1  N   UNL     1      33.693 -11.949 -24.339  0.00  0.00    -0.292 N 
ENDROOT
BRANCH   1   4
ATOM      2  N   UNL     1      34.715 -16.403 -22.859  0.00  0.00    -0.407 NA
ATOM      3  N   UNL     1      33.940 -17.410 -25.330  0.00  0.00    -0.265 NA
ATOM      4  C   UNL     1      33.756 -13.333 -24.593  0.00  0.00    +0.032 C 
ATOM      5  C   UNL     1      34.207 -14.207 -23.605  0.00  0.00    +0.101 C 
ATOM      6  C   UNL     1      33.369 -13.837 -25.826  0.00  0.00    -0.009 C 
ATOM      7  C   UNL     1      34.277 -15.580 -23.829  0.00  0.00    +0.128 C 
ATOM      8  C   UNL     1      33.884 -16.090 -25.080  0.00  0.00    +0.084 C 
ATOM      9  C   UNL     1      33.436 -15.209 -26.061  0.00  0.00    +0.075 C 
ATOM     10  C   UNL     1      34.763 -17.720 -23.130  0.00  0.00    +0.136 C 
ATOM     11  C   UNL     1      34.382 -18.216 -24.347  0.00  0.00    +0.184 C 
BRANCH  10  14
ATOM     12  N   UNL     1      35.285 -20.151 -20.570  0.00  0.00    -0.208 N 
ATOM     13  N   UNL     1      36.501 -19.585 -20.473  0.00  0.00    -0.176 NA
ATOM     14  C   UNL     1      35.231 -18.576 -22.083  0.00  0.00    +0.064 C 
ATOM     15  C   UNL     1      34.487 -19.584 -21.518  0.00  0.00    +0.088 C 
ATOM     16  C   UNL     1      36.461 -18.624 -21.400  0.00  0.00    +0.121 C 
ATOM     17  C   UNL     1      34.939 -21.255 -19.707  0.00  0.00    +0.140 C 
ENDBRANCH  10  14
ENDBRANCH   1   4
BRANCH   1  18
ATOM     18  C   UNL     1      32.838 -11.295 -23.407  0.00  0.00    +0.057 C 
ATOM     19  C   UNL     1      32.244 -10.078 -23.741  0.00  0.00    +0.052 C 
ATOM     20  C   UNL     1      32.596 -11.870 -22.159  0.00  0.00    +0.052 C 
ATOM     21  C   UNL     1      31.759 -11.229 -21.246  0.00  0.00    +0.143 C 
ATOM     22  C   UNL     1      31.407  -9.437 -22.827  0.00  0.00    +0.143 C 
ATOM     23  C   UNL     1      31.165 -10.012 -21.580  0.00  0.00    +0.074 C 
BRANCH  21  24
ATOM     24  O   UNL     1      31.524 -11.790 -20.029  0.00  0.00    -0.471 OA
ATOM     25  C   UNL     1      31.311 -10.902 -18.934  0.00  0.00    +0.252 C 
ENDBRANCH  21  24
BRANCH  22  26
ATOM     26  O   UNL     1      30.827  -8.249 -23.152  0.00  0.00    -0.471 OA
ATOM     27  C   UNL     1      31.284  -7.092 -22.452  0.00  0.00    +0.252 C 
ENDBRANCH  22  26
ENDBRANCH   1  18
BRANCH   1  28
ATOM     28  C   UNL     1      34.378 -11.042 -25.277  0.00  0.00    +0.072 C 
BRANCH  28  29
ATOM     29  C   UNL     1      35.112  -9.959 -24.498  0.00  0.00    -0.059 C 
BRANCH  29  30
ATOM     30  N   UNL     1      35.132  -8.715 -25.255  0.00  0.00    +0.386 N 
ATOM     31  H   UNL     1      34.722  -8.877 -26.175  0.00  0.00    -0.084 HD
ATOM     32  H   UNL     1      36.099  -8.404 -25.347  0.00  0.00    -0.084 HD
BRANCH  30  33
ATOM     33  C   UNL     1      34.373  -7.677 -24.572  0.00  0.00    -0.062 C 
ATOM     34  C   UNL     1      34.527  -6.343 -25.299  0.00  0.00    -0.023 C 
ATOM     35  C   UNL     1      34.845  -7.570 -23.126  0.00  0.00    -0.023 C 
ENDBRANCH  30  33
ENDBRANCH  29  30
ENDBRANCH  28  29
ENDBRANCH   1  28
TORSDOF 9
ENDMDL
MODEL 5
REMARK VINA RESULT:      -9.6     10.293     14.731
REMARK  Name = 67462786
REMARK  9 active torsions:
REMARK  status: ('A' for Active; 'I' for Inactive)
REMARK    1  A    between atoms: N_1  and  C_4
REMARK    2  A    between atoms: N_1  and  C_18
REMARK    3  A    between atoms: N_1  and  C_28
REMARK    4  A    between atoms: C_10  and  C_14
REMARK    5  A    between atoms: C_21  and  O_24
REMARK    6  A    between atoms: C_22  and  O_26
REMARK    7  A    between atoms: C_28  and  C_29
REMARK    8  A    between atoms: C_29  and  N_30
REMARK    9  A    between atoms: N_30  and  C_33
REMARK                            x       y       z     vdW  Elec       q    Type
REMARK                         _______ _______ _______ _____ _____    ______ ____
ROOT
ATOM      1  N   UNL     1      33.660 -11.913 -24.373  0.00  0.00    -0.292 N 
ENDROOT
BRANCH   1   4
ATOM      2  N   UNL     1      34.673 -16.368 -22.892  0.00  0.00    -0.407 NA
ATOM      3  N   UNL     1      33.920 -17.373 -25.370  0.00  0.00    -0.265 NA
ATOM      4  C   UNL     1      33.727 -13.297 -24.628  0.00  0.00    +0.032 C 
ATOM      5  C   UNL     1      34.170 -14.172 -23.639  0.00  0.00    +0.101 C 
ATOM      6  C   UNL     1      33.351 -13.799 -25.866  0.00  0.00    -0.009 C 
ATOM      7  C   UNL     1      34.243 -15.544 -23.864  0.00  0.00    +0.128 C 
ATOM      8  C   UNL     1      33.861 -16.053 -25.119  0.00  0.00    +0.084 C 
ATOM      9  C   UNL     1      33.420 -15.171 -26.102  0.00  0.00    +0.075 C 
ATOM     10  C   UNL     1      34.725 -17.685 -23.164  0.00  0.00    +0.136 C 
ATOM     11  C   UNL     1      34.355 -18.180 -24.385  0.00  0.00    +0.184 C 
BRANCH  10  14
ATOM     12  N   UNL     1      35.226 -20.117 -20.600  0.00  0.00    -0.208 N 
ATOM     13  N   UNL     1      36.443 -19.554 -20.497  0.00  0.00    -0.176 NA
ATOM     14  C   UNL     1      35.185 -18.542 -22.114  0.00  0.00    +0.064 C 
ATOM     15  C   UNL     1      34.434 -19.548 -21.553  0.00  0.00    +0.088 C 
ATOM     16  C   UNL     1      36.411 -18.594 -21.424  0.00  0.00    +0.121 C 
ATOM     17  C   UNL     1      34.872 -21.220 -19.739  0.00  0.00    +0.140 C 
ENDBRANCH  10  14
ENDBRANCH   1   4
BRANCH   1  18
ATOM     18  C   UNL     1      32.816 -11.264 -23.429  0.00  0.00    +0.057 C 
ATOM     19  C   UNL     1      32.569 -11.858 -22.192  0.00  0.00    +0.052 C 
ATOM     20  C   UNL     1      32.235 -10.034 -23.740  0.00  0.00    +0.052 C 
ATOM     21  C   UNL     1      31.407  -9.399 -22.815  0.00  0.00    +0.143 C 
ATOM     22  C   UNL     1      31.740 -11.223 -21.266  0.00  0.00    +0.143 C 
ATOM     23  C   UNL     1      31.160  -9.994 -21.577  0.00  0.00    +0.074 C 
BRANCH  21  24
ATOM     24  O   UNL     1      30.841  -8.200 -23.119  0.00  0.00    -0.471 OA
ATOM     25  C   UNL     1      31.300  -7.061 -22.394  0.00  0.00    +0.252 C 
ENDBRANCH  21  24
BRANCH  22  26
ATOM     26  O   UNL     1      31.497 -11.804 -20.059  0.00  0.00    -0.471 OA
ATOM     27  C   UNL     1      31.331 -10.930 -18.942  0.00  0.00    +0.252 C 
ENDBRANCH  22  26
ENDBRANCH   1  18
BRANCH   1  28
ATOM     28  C   UNL     1      34.328 -11.003 -25.320  0.00  0.00    +0.072 C 
BRANCH  28  29
ATOM     29  C   UNL     1      35.164  -9.988 -24.552  0.00  0.00    -0.059 C 
BRANCH  29  30
ATOM     30  N   UNL     1      35.184  -8.712 -25.254  0.00  0.00    +0.386 N 
ATOM     31  H   UNL     1      34.819  -8.844 -26.198  0.00  0.00    -0.084 HD
ATOM     32  H   UNL     1      36.145  -8.373 -25.288  0.00  0.00    -0.084 HD
BRANCH  30  33
ATOM     33  C   UNL     1      34.368  -7.724 -24.562  0.00  0.00    -0.062 C 
ATOM     34  C   UNL     1      34.426  -6.385 -25.293  0.00  0.00    -0.023 C 
ATOM     35  C   UNL     1      34.851  -7.583 -23.122  0.00  0.00    -0.023 C 
ENDBRANCH  30  33
ENDBRANCH  29  30
ENDBRANCH  28  29
ENDBRANCH   1  28
TORSDOF 9
ENDMDL
MODEL 6
REMARK VINA RESULT:      -9.6      9.712     14.514
REMARK  Name = 67462786
REMARK  9 active torsions:
REMARK  status: ('A' for Active; 'I' for Inactive)
REMARK    1  A    between atoms: N_1  and  C_4
REMARK    2  A    between atoms: N_1  and  C_18
REMARK    3  A    between atoms: N_1  and  C_28
REMARK    4  A    between atoms: C_10  and  C_14
REMARK    5  A    between atoms: C_21  and  O_24
REMARK    6  A    between atoms: C_22  and  O_26
REMARK    7  A    between atoms: C_28  and  C_29
REMARK    8  A    between atoms: C_29  and  N_30
REMARK    9  A    between atoms: N_30  and  C_33
REMARK                            x       y       z     vdW  Elec       q    Type
REMARK                         _______ _______ _______ _____ _____    ______ ____
ROOT
ATOM      1  N   UNL     1      32.698 -12.588 -23.499  0.00  0.00    -0.292 N 
ENDROOT
BRANCH   1   4
ATOM      2  N   UNL     1      34.526 -16.860 -22.282  0.00  0.00    -0.407 NA
ATOM      3  N   UNL     1      34.521 -17.632 -24.952  0.00  0.00    -0.265 NA
ATOM      4  C   UNL     1      33.161 -13.867 -23.870  0.00  0.00    +0.032 C 
ATOM      5  C   UNL     1      33.624 -14.753 -22.899  0.00  0.00    +0.101 C 
ATOM      6  C   UNL     1      33.158 -14.253 -25.202  0.00  0.00    -0.009 C 
ATOM      7  C   UNL     1      34.085 -16.023 -23.238  0.00  0.00    +0.128 C 
ATOM      8  C   UNL     1      34.082 -16.414 -24.590  0.00  0.00    +0.084 C 
ATOM      9  C   UNL     1      33.618 -15.521 -25.552  0.00  0.00    +0.075 C 
ATOM     10  C   UNL     1      34.961 -18.075 -22.666  0.00  0.00    +0.136 C 
ATOM     11  C   UNL     1      34.959 -18.455 -23.981  0.00  0.00    +0.184 C 
BRANCH  10  14
ATOM     12  N   UNL     1      35.466 -20.542 -20.137  0.00  0.00    -0.208 N 
ATOM     13  N   UNL     1      36.690 -19.995 -20.044  0.00  0.00    -0.176 NA
ATOM     14  C   UNL     1      35.424 -18.950 -21.632  0.00  0.00    +0.064 C 
ATOM     15  C   UNL     1      34.669 -19.953 -21.073  0.00  0.00    +0.088 C 
ATOM     16  C   UNL     1      36.658 -19.023 -20.959  0.00  0.00    +0.121 C 
ATOM     17  C   UNL     1      35.110 -21.651 -19.285  0.00  0.00    +0.140 C 
ENDBRANCH  10  14
ENDBRANCH   1   4
BRANCH   1  18
ATOM     18  C   UNL     1      33.334 -11.344 -23.771  0.00  0.00    +0.057 C 
ATOM     19  C   UNL     1      34.396 -11.287 -24.673  0.00  0.00    +0.052 C 
ATOM     20  C   UNL     1      32.897 -10.182 -23.135  0.00  0.00    +0.052 C 
ATOM     21  C   UNL     1      33.521  -8.964 -23.401  0.00  0.00    +0.143 C 
ATOM     22  C   UNL     1      35.021 -10.069 -24.939  0.00  0.00    +0.143 C 
ATOM     23  C   UNL     1      34.584  -8.907 -24.303  0.00  0.00    +0.074 C 
BRANCH  21  24
ATOM     24  O   UNL     1      33.094  -7.831 -22.780  0.00  0.00    -0.471 OA
ATOM     25  C   UNL     1      31.722  -7.477 -22.945  0.00  0.00    +0.252 C 
ENDBRANCH  21  24
BRANCH  22  26
ATOM     26  O   UNL     1      36.059 -10.012 -25.819  0.00  0.00    -0.471 OA
ATOM     27  C   UNL     1      35.880 -10.667 -27.074  0.00  0.00    +0.252 C 
ENDBRANCH  22  26
ENDBRANCH   1  18
BRANCH   1  28
ATOM     28  C   UNL     1      31.591 -12.508 -22.530  0.00  0.00    +0.072 C 
BRANCH  28  29
ATOM     29  C   UNL     1      32.153 -12.332 -21.125  0.00  0.00    -0.059 C 
BRANCH  29  30
ATOM     30  N   UNL     1      31.224 -11.572 -20.300  0.00  0.00    +0.386 N 
ATOM     31  H   UNL     1      30.612 -12.220 -19.802  0.00  0.00    -0.084 HD
ATOM     32  H   UNL     1      30.677 -10.959 -20.904  0.00  0.00    -0.084 HD
BRANCH  30  33
ATOM     33  C   UNL     1      31.938 -10.753 -19.331  0.00  0.00    -0.062 C 
ATOM     34  C   UNL     1      31.302 -10.890 -17.950  0.00  0.00    -0.023 C 
ATOM     35  C   UNL     1      31.935  -9.300 -19.793  0.00  0.00    -0.023 C 
ENDBRANCH  30  33
ENDBRANCH  29  30
ENDBRANCH  28  29
ENDBRANCH   1  28
TORSDOF 9
ENDMDL
MODEL 7
REMARK VINA RESULT:      -9.1     12.758     16.470
REMARK  Name = 67462786
REMARK  9 active torsions:
REMARK  status: ('A' for Active; 'I' for Inactive)
REMARK    1  A    between atoms: N_1  and  C_4
REMARK    2  A    between atoms: N_1  and  C_18
REMARK    3  A    between atoms: N_1  and  C_28
REMARK    4  A    between atoms: C_10  and  C_14
REMARK    5  A    between atoms: C_21  and  O_24
REMARK    6  A    between atoms: C_22  and  O_26
REMARK    7  A    between atoms: C_28  and  C_29
REMARK    8  A    between atoms: C_29  and  N_30
REMARK    9  A    between atoms: N_30  and  C_33
REMARK                            x       y       z     vdW  Elec       q    Type
REMARK                         _______ _______ _______ _____ _____    ______ ____
ROOT
ATOM      1  N   UNL     1      32.792 -12.258 -22.914  0.00  0.00    -0.292 N 
ENDROOT
BRANCH   1   4
ATOM      2  N   UNL     1      32.244  -7.547 -23.674  0.00  0.00    -0.407 NA
ATOM      3  N   UNL     1      34.745  -7.443 -24.881  0.00  0.00    -0.265 NA
ATOM      4  C   UNL     1      33.288 -11.038 -23.414  0.00  0.00    +0.032 C 
ATOM      5  C   UNL     1      32.528  -9.875 -23.306  0.00  0.00    +0.101 C 
ATOM      6  C   UNL     1      34.537 -10.986 -24.016  0.00  0.00    -0.009 C 
ATOM      7  C   UNL     1      32.997  -8.656 -23.791  0.00  0.00    +0.128 C 
ATOM      8  C   UNL     1      34.263  -8.603 -24.402  0.00  0.00    +0.084 C 
ATOM      9  C   UNL     1      35.014  -9.771 -24.505  0.00  0.00    +0.075 C 
ATOM     10  C   UNL     1      32.745  -6.397 -24.161  0.00  0.00    +0.136 C 
ATOM     11  C   UNL     1      33.977  -6.346 -24.755  0.00  0.00    +0.184 C 
BRANCH  10  14
ATOM     12  N   UNL     1      30.900  -3.359 -24.492  0.00  0.00    -0.208 N 
ATOM     13  N   UNL     1      30.541  -3.602 -23.219  0.00  0.00    -0.176 NA
ATOM     14  C   UNL     1      31.927  -5.230 -24.024  0.00  0.00    +0.064 C 
ATOM     15  C   UNL     1      31.730  -4.303 -25.020  0.00  0.00    +0.088 C 
ATOM     16  C   UNL     1      31.171  -4.746 -22.940  0.00  0.00    +0.121 C 
ATOM     17  C   UNL     1      30.407  -2.181 -25.163  0.00  0.00    +0.140 C 
ENDBRANCH  10  14
ENDBRANCH   1   4
BRANCH   1  18
ATOM     18  C   UNL     1      33.330 -13.555 -23.151  0.00  0.00    +0.057 C 
ATOM     19  C   UNL     1      33.229 -14.129 -24.419  0.00  0.00    +0.052 C 
ATOM     20  C   UNL     1      33.957 -14.251 -22.119  0.00  0.00    +0.052 C 
ATOM     21  C   UNL     1      34.484 -15.521 -22.352  0.00  0.00    +0.143 C 
ATOM     22  C   UNL     1      33.755 -15.400 -24.652  0.00  0.00    +0.143 C 
ATOM     23  C   UNL     1      34.382 -16.096 -23.619  0.00  0.00    +0.074 C 
BRANCH  21  24
ATOM     24  O   UNL     1      35.095 -16.200 -21.344  0.00  0.00    -0.471 OA
ATOM     25  C   UNL     1      35.294 -17.600 -21.530  0.00  0.00    +0.252 C 
ENDBRANCH  21  24
BRANCH  22  26
ATOM     26  O   UNL     1      33.656 -15.961 -25.888  0.00  0.00    -0.471 OA
ATOM     27  C   UNL     1      32.712 -15.383 -26.789  0.00  0.00    +0.252 C 
ENDBRANCH  22  26
ENDBRANCH   1  18
BRANCH   1  28
ATOM     28  C   UNL     1      31.457 -12.258 -22.290  0.00  0.00    +0.072 C 
BRANCH  28  29
ATOM     29  C   UNL     1      31.582 -11.906 -20.813  0.00  0.00    -0.059 C 
BRANCH  29  30
ATOM     30  N   UNL     1      30.568 -10.931 -20.437  0.00  0.00    +0.386 N 
ATOM     31  H   UNL     1      29.733 -11.423 -20.117  0.00  0.00    -0.084 HD
ATOM     32  H   UNL     1      30.351 -10.355 -21.250  0.00  0.00    -0.084 HD
BRANCH  30  33
ATOM     33  C   UNL     1      31.048 -10.065 -19.370  0.00  0.00    -0.062 C 
ATOM     34  C   UNL     1      32.166  -9.162 -19.884  0.00  0.00    -0.023 C 
ATOM     35  C   UNL     1      31.528 -10.918 -18.200  0.00  0.00    -0.023 C 
ENDBRANCH  30  33
ENDBRANCH  29  30
ENDBRANCH  28  29
ENDBRANCH   1  28
TORSDOF 9
ENDMDL
MODEL 8
REMARK VINA RESULT:      -9.1     12.772     16.425
REMARK  Name = 67462786
REMARK  9 active torsions:
REMARK  status: ('A' for Active; 'I' for Inactive)
REMARK    1  A    between atoms: N_1  and  C_4
REMARK    2  A    between atoms: N_1  and  C_18
REMARK    3  A    between atoms: N_1  and  C_28
REMARK    4  A    between atoms: C_10  and  C_14
REMARK    5  A    between atoms: C_21  and  O_24
REMARK    6  A    between atoms: C_22  and  O_26
REMARK    7  A    between atoms: C_28  and  C_29
REMARK    8  A    between atoms: C_29  and  N_30
REMARK    9  A    between atoms: N_30  and  C_33
REMARK                            x       y       z     vdW  Elec       q    Type
REMARK                         _______ _______ _______ _____ _____    ______ ____
ROOT
ATOM      1  N   UNL     1      32.778 -12.235 -22.890  0.00  0.00    -0.292 N 
ENDROOT
BRANCH   1   4
ATOM      2  N   UNL     1      32.235  -7.526 -23.669  0.00  0.00    -0.407 NA
ATOM      3  N   UNL     1      34.723  -7.435 -24.902  0.00  0.00    -0.265 NA
ATOM      4  C   UNL     1      33.273 -11.018 -23.402  0.00  0.00    +0.032 C 
ATOM      5  C   UNL     1      32.517  -9.853 -23.292  0.00  0.00    +0.101 C 
ATOM      6  C   UNL     1      34.515 -10.972 -24.017  0.00  0.00    -0.009 C 
ATOM      7  C   UNL     1      32.983  -8.638 -23.788  0.00  0.00    +0.128 C 
ATOM      8  C   UNL     1      34.243  -8.591 -24.412  0.00  0.00    +0.084 C 
ATOM      9  C   UNL     1      34.990  -9.762 -24.517  0.00  0.00    +0.075 C 
ATOM     10  C   UNL     1      32.733  -6.379 -24.166  0.00  0.00    +0.136 C 
ATOM     11  C   UNL     1      33.958  -6.334 -24.774  0.00  0.00    +0.184 C 
BRANCH  10  14
ATOM     12  N   UNL     1      30.913  -3.326 -24.485  0.00  0.00    -0.208 N 
ATOM     13  N   UNL     1      30.528  -3.586 -23.224  0.00  0.00    -0.176 NA
ATOM     14  C   UNL     1      31.920  -5.210 -24.027  0.00  0.00    +0.064 C 
ATOM     15  C   UNL     1      31.747  -4.267 -25.012  0.00  0.00    +0.088 C 
ATOM     16  C   UNL     1      31.146  -4.738 -22.950  0.00  0.00    +0.121 C 
ATOM     17  C   UNL     1      30.440  -2.134 -25.147  0.00  0.00    +0.140 C 
ENDBRANCH  10  14
ENDBRANCH   1   4
BRANCH   1  18
ATOM     18  C   UNL     1      33.312 -13.534 -23.125  0.00  0.00    +0.057 C 
ATOM     19  C   UNL     1      33.924 -14.234 -22.086  0.00  0.00    +0.052 C 
ATOM     20  C   UNL     1      33.223 -14.105 -24.394  0.00  0.00    +0.052 C 
ATOM     21  C   UNL     1      33.746 -15.378 -24.625  0.00  0.00    +0.143 C 
ATOM     22  C   UNL     1      34.448 -15.506 -22.317  0.00  0.00    +0.143 C 
ATOM     23  C   UNL     1      34.359 -16.078 -23.586  0.00  0.00    +0.074 C 
BRANCH  21  24
ATOM     24  O   UNL     1      33.660 -15.934 -25.863  0.00  0.00    -0.471 OA
ATOM     25  C   UNL     1      32.733 -15.350 -26.776  0.00  0.00    +0.252 C 
ENDBRANCH  21  24
BRANCH  22  26
ATOM     26  O   UNL     1      35.046 -16.191 -21.303  0.00  0.00    -0.471 OA
ATOM     27  C   UNL     1      35.420 -17.543 -21.566  0.00  0.00    +0.252 C 
ENDBRANCH  22  26
ENDBRANCH   1  18
BRANCH   1  28
ATOM     28  C   UNL     1      31.450 -12.228 -22.254  0.00  0.00    +0.072 C 
BRANCH  28  29
ATOM     29  C   UNL     1      31.592 -11.893 -20.775  0.00  0.00    -0.059 C 
BRANCH  29  30
ATOM     30  N   UNL     1      30.573 -10.933 -20.372  0.00  0.00    +0.386 N 
ATOM     31  H   UNL     1      29.754 -11.438 -20.030  0.00  0.00    -0.084 HD
ATOM     32  H   UNL     1      30.326 -10.361 -21.180  0.00  0.00    -0.084 HD
BRANCH  30  33
ATOM     33  C   UNL     1      31.068 -10.059 -19.318  0.00  0.00    -0.062 C 
ATOM     34  C   UNL     1      32.193  -9.175 -19.849  0.00  0.00    -0.023 C 
ATOM     35  C   UNL     1      31.544 -10.902 -18.140  0.00  0.00    -0.023 C 
ENDBRANCH  30  33
ENDBRANCH  29  30
ENDBRANCH  28  29
ENDBRANCH   1  28
TORSDOF 9
ENDMDL
MODEL 9
REMARK VINA RESULT:      -8.9     11.067     15.026
REMARK  Name = 67462786
REMARK  9 active torsions:
REMARK  status: ('A' for Active; 'I' for Inactive)
REMARK    1  A    between atoms: N_1  and  C_4
REMARK    2  A    between atoms: N_1  and  C_18
REMARK    3  A    between atoms: N_1  and  C_28
REMARK    4  A    between atoms: C_10  and  C_14
REMARK    5  A    between atoms: C_21  and  O_24
REMARK    6  A    between atoms: C_22  and  O_26
REMARK    7  A    between atoms: C_28  and  C_29
REMARK    8  A    between atoms: C_29  and  N_30
REMARK    9  A    between atoms: N_30  and  C_33
REMARK                            x       y       z     vdW  Elec       q    Type
REMARK                         _______ _______ _______ _____ _____    ______ ____
ROOT
ATOM      1  N   UNL     1      33.150 -14.337 -22.412  0.00  0.00    -0.292 N 
ENDROOT
BRANCH   1   4
ATOM      2  N   UNL     1      32.920  -9.630 -23.346  0.00  0.00    -0.407 NA
ATOM      3  N   UNL     1      31.511  -9.222 -20.986  0.00  0.00    -0.265 NA
ATOM      4  C   UNL     1      32.734 -13.040 -22.048  0.00  0.00    +0.032 C 
ATOM      5  C   UNL     1      33.027 -11.954 -22.870  0.00  0.00    +0.101 C 
ATOM      6  C   UNL     1      32.030 -12.836 -20.870  0.00  0.00    -0.009 C 
ATOM      7  C   UNL     1      32.626 -10.663 -22.535  0.00  0.00    +0.128 C 
ATOM      8  C   UNL     1      31.912 -10.456 -21.341  0.00  0.00    +0.084 C 
ATOM      9  C   UNL     1      31.625 -11.548 -20.525  0.00  0.00    +0.075 C 
ATOM     10  C   UNL     1      32.510  -8.404 -22.973  0.00  0.00    +0.136 C 
ATOM     11  C   UNL     1      31.816  -8.203 -21.811  0.00  0.00    +0.184 C 
BRANCH  10  14
ATOM     12  N   UNL     1      32.632  -5.528 -25.082  0.00  0.00    -0.208 N 
ATOM     13  N   UNL     1      33.922  -5.870 -25.240  0.00  0.00    -0.176 NA
ATOM     14  C   UNL     1      32.833  -7.322 -23.852  0.00  0.00    +0.064 C 
ATOM     15  C   UNL     1      31.936  -6.364 -24.261  0.00  0.00    +0.088 C 
ATOM     16  C   UNL     1      34.038  -6.966 -24.486  0.00  0.00    +0.121 C 
ATOM     17  C   UNL     1      32.112  -4.364 -25.759  0.00  0.00    +0.140 C 
ENDBRANCH  10  14
ENDBRANCH   1   4
BRANCH   1  18
ATOM     18  C   UNL     1      33.289 -14.843 -23.735  0.00  0.00    +0.057 C 
ATOM     19  C   UNL     1      32.734 -14.147 -24.809  0.00  0.00    +0.052 C 
ATOM     20  C   UNL     1      33.979 -16.034 -23.958  0.00  0.00    +0.052 C 
ATOM     21  C   UNL     1      34.115 -16.530 -25.254  0.00  0.00    +0.143 C 
ATOM     22  C   UNL     1      32.869 -14.643 -26.106  0.00  0.00    +0.143 C 
ATOM     23  C   UNL     1      33.560 -15.834 -26.328  0.00  0.00    +0.074 C 
BRANCH  21  24
ATOM     24  O   UNL     1      34.788 -17.692 -25.471  0.00  0.00    -0.471 OA
ATOM     25  C   UNL     1      34.253 -18.873 -24.876  0.00  0.00    +0.252 C 
ENDBRANCH  21  24
BRANCH  22  26
ATOM     26  O   UNL     1      32.327 -13.965 -27.154  0.00  0.00    -0.471 OA
ATOM     27  C   UNL     1      32.896 -12.695 -27.468  0.00  0.00    +0.252 C 
ENDBRANCH  22  26
ENDBRANCH   1  18
BRANCH   1  28
ATOM     28  C   UNL     1      33.215 -15.362 -21.357  0.00  0.00    +0.072 C 
BRANCH  28  29
ATOM     29  C   UNL     1      34.648 -15.491 -20.856  0.00  0.00    -0.059 C 
BRANCH  29  30
ATOM     30  N   UNL     1      34.893 -16.838 -20.360  0.00  0.00    +0.386 N 
ATOM     31  H   UNL     1      34.195 -17.066 -19.652  0.00  0.00    -0.084 HD
ATOM     32  H   UNL     1      35.830 -16.873 -19.960  0.00  0.00    -0.084 HD
BRANCH  30  33
ATOM     33  C   UNL     1      34.812 -17.813 -21.439  0.00  0.00    -0.062 C 
ATOM     34  C   UNL     1      33.901 -18.971 -21.039  0.00  0.00    -0.023 C 
ATOM     35  C   UNL     1      36.213 -18.312 -21.780  0.00  0.00    -0.023 C 
ENDBRANCH  30  33
ENDBRANCH  29  30
ENDBRANCH  28  29
ENDBRANCH   1  28
TORSDOF 9
ENDMDL
