MODEL 1
REMARK VINA RESULT:      -9.4      0.000      0.000
REMARK  Name = 12492
REMARK  4 active torsions:
REMARK  status: ('A' for Active; 'I' for Inactive)
REMARK    1  A    between atoms: C_2  and  C_10
REMARK    2  A    between atoms: C_5  and  S_20
REMARK    3  A    between atoms: N_9  and  N_12
REMARK    4  A    between atoms: S_20  and  N_23
REMARK                            x       y       z     vdW  Elec       q    Type
REMARK                         _______ _______ _______ _____ _____    ______ ____
ROOT
ATOM      1 CL   UNL     1      34.456  -7.335 -24.104  0.00  0.00    -0.081 Cl
ATOM      2  C   UNL     1      33.511 -11.703 -23.733  0.00  0.00    +0.056 C 
ATOM      3  C   UNL     1      32.869 -10.825 -22.887  0.00  0.00    +0.025 C 
ATOM      4  C   UNL     1      34.422 -11.283 -24.679  0.00  0.00    +0.005 C 
ATOM      5  C   UNL     1      33.151  -9.462 -22.990  0.00  0.00    +0.132 C 
ATOM      6  C   UNL     1      34.704  -9.921 -24.782  0.00  0.00    +0.013 C 
ATOM      7  C   UNL     1      34.069  -9.010 -23.937  0.00  0.00    +0.076 C 
ENDROOT
BRANCH   2  10
ATOM      8  O   UNL     1      32.055 -13.513 -23.412  0.00  0.00    -0.269 OA
ATOM      9  N   UNL     1      34.292 -13.995 -23.793  0.00  0.00    -0.243 N 
ATOM     10  C   UNL     1      33.212 -13.155 -23.624  0.00  0.00    +0.259 C 
ATOM     11  H   UNL     1      35.191 -13.631 -23.960  0.00  0.00    +0.170 HD
BRANCH   9  12
ATOM     12  N   UNL     1      34.082 -15.367 -23.724  0.00  0.00    -0.208 NA
ATOM     13  C   UNL     1      34.344 -15.979 -25.046  0.00  0.00    +0.076 C 
ATOM     14  C   UNL     1      34.926 -15.947 -22.655  0.00  0.00    +0.076 C 
ATOM     15  C   UNL     1      34.173 -17.508 -24.997  0.00  0.00    +0.018 C 
ATOM     16  C   UNL     1      34.764 -17.475 -22.581  0.00  0.00    +0.018 C 
ATOM     17  C   UNL     1      35.049 -18.132 -23.923  0.00  0.00    +0.003 C 
ATOM     18  C   UNL     1      33.389 -15.423 -26.114  0.00  0.00    +0.019 C 
ATOM     19  C   UNL     1      34.566 -15.359 -21.282  0.00  0.00    +0.019 C 
ENDBRANCH   9  12
ENDBRANCH   2  10
BRANCH   5  20
ATOM     20  S   UNL     1      32.323  -8.365 -21.902  0.00  0.00    +0.058 S 
ATOM     21  O   UNL     1      33.326  -7.616 -21.164  0.00  0.00    -0.153 OA
ATOM     22  O   UNL     1      31.298  -7.662 -22.658  0.00  0.00    -0.153 OA
BRANCH  20  23
ATOM     23  N   UNL     1      31.568  -9.473 -20.846  0.00  0.00    -0.203 NA
ATOM     24  H   UNL     1      30.576  -9.541 -21.077  0.00  0.00    +0.144 HD
ATOM     25  H   UNL     1      31.671  -9.151 -19.884  0.00  0.00    +0.144 HD
ENDBRANCH  20  23
ENDBRANCH   5  20
TORSDOF 4
ENDMDL
MODEL 2
REMARK VINA RESULT:      -8.8      9.939     12.412
REMARK  Name = 12492
REMARK  4 active torsions:
REMARK  status: ('A' for Active; 'I' for Inactive)
REMARK    1  A    between atoms: C_2  and  C_10
REMARK    2  A    between atoms: C_5  and  S_20
REMARK    3  A    between atoms: N_9  and  N_12
REMARK    4  A    between atoms: S_20  and  N_23
REMARK                            x       y       z     vdW  Elec       q    Type
REMARK                         _______ _______ _______ _____ _____    ______ ____
ROOT
ATOM      1 CL   UNL     1      31.167 -24.148 -13.558  0.00  0.00    -0.081 Cl
ATOM      2  C   UNL     1      33.143 -22.992 -17.413  0.00  0.00    +0.056 C 
ATOM      3  C   UNL     1      31.778 -22.830 -17.308  0.00  0.00    +0.025 C 
ATOM      4  C   UNL     1      33.909 -23.491 -16.380  0.00  0.00    +0.005 C 
ATOM      5  C   UNL     1      31.148 -23.184 -16.115  0.00  0.00    +0.132 C 
ATOM      6  C   UNL     1      33.279 -23.845 -15.188  0.00  0.00    +0.013 C 
ATOM      7  C   UNL     1      31.898 -23.692 -15.055  0.00  0.00    +0.076 C 
ENDROOT
BRANCH   2  10
ATOM      8  O   UNL     1      34.032 -23.485 -19.526  0.00  0.00    -0.269 OA
ATOM      9  N   UNL     1      34.129 -21.280 -18.815  0.00  0.00    -0.243 N 
ATOM     10  C   UNL     1      33.816 -22.616 -18.685  0.00  0.00    +0.259 C 
ATOM     11  H   UNL     1      33.923 -20.642 -18.093  0.00  0.00    +0.170 HD
BRANCH   9  12
ATOM     12  N   UNL     1      34.741 -20.853 -19.987  0.00  0.00    -0.208 NA
ATOM     13  C   UNL     1      33.942 -19.769 -20.602  0.00  0.00    +0.076 C 
ATOM     14  C   UNL     1      36.132 -20.436 -19.699  0.00  0.00    +0.076 C 
ATOM     15  C   UNL     1      34.616 -19.232 -21.877  0.00  0.00    +0.018 C 
ATOM     16  C   UNL     1      36.830 -19.904 -20.964  0.00  0.00    +0.018 C 
ATOM     17  C   UNL     1      36.039 -18.774 -21.603  0.00  0.00    +0.003 C 
ATOM     18  C   UNL     1      32.533 -20.260 -20.973  0.00  0.00    +0.019 C 
ATOM     19  C   UNL     1      36.961 -21.607 -19.150  0.00  0.00    +0.019 C 
ENDBRANCH   9  12
ENDBRANCH   2  10
BRANCH   5  20
ATOM     20  S   UNL     1      29.412 -22.971 -16.006  0.00  0.00    +0.058 S 
ATOM     21  O   UNL     1      29.120 -22.248 -14.780  0.00  0.00    -0.153 OA
ATOM     22  O   UNL     1      28.935 -22.463 -17.283  0.00  0.00    -0.153 OA
BRANCH  20  23
ATOM     23  N   UNL     1      28.902 -24.591 -15.831  0.00  0.00    -0.203 NA
ATOM     24  H   UNL     1      28.072 -24.750 -16.403  0.00  0.00    +0.144 HD
ATOM     25  H   UNL     1      28.681 -24.775 -14.853  0.00  0.00    +0.144 HD
ENDBRANCH  20  23
ENDBRANCH   5  20
TORSDOF 4
ENDMDL
MODEL 3
REMARK VINA RESULT:      -8.7      4.315      6.155
REMARK  Name = 12492
REMARK  4 active torsions:
REMARK  status: ('A' for Active; 'I' for Inactive)
REMARK    1  A    between atoms: C_2  and  C_10
REMARK    2  A    between atoms: C_5  and  S_20
REMARK    3  A    between atoms: N_9  and  N_12
REMARK    4  A    between atoms: S_20  and  N_23
REMARK                            x       y       z     vdW  Elec       q    Type
REMARK                         _______ _______ _______ _____ _____    ______ ____
ROOT
ATOM      1 CL   UNL     1      33.579 -12.309 -23.999  0.00  0.00    -0.081 Cl
ATOM      2  C   UNL     1      34.433 -16.615 -23.084  0.00  0.00    +0.056 C 
ATOM      3  C   UNL     1      33.970 -16.297 -24.342  0.00  0.00    +0.025 C 
ATOM      4  C   UNL     1      34.640 -15.659 -22.111  0.00  0.00    +0.005 C 
ATOM      5  C   UNL     1      33.699 -14.962 -24.644  0.00  0.00    +0.132 C 
ATOM      6  C   UNL     1      34.370 -14.324 -22.412  0.00  0.00    +0.013 C 
ATOM      7  C   UNL     1      33.900 -13.976 -23.678  0.00  0.00    +0.076 C 
ENDROOT
BRANCH   2  10
ATOM      8  O   UNL     1      34.876 -18.838 -23.680  0.00  0.00    -0.269 OA
ATOM      9  N   UNL     1      34.804 -18.333 -21.418  0.00  0.00    -0.243 N 
ATOM     10  C   UNL     1      34.720 -18.037 -22.761  0.00  0.00    +0.259 C 
ATOM     11  H   UNL     1      34.666 -17.633 -20.739  0.00  0.00    +0.170 HD
BRANCH   9  12
ATOM     12  N   UNL     1      35.091 -19.641 -21.043  0.00  0.00    -0.208 NA
ATOM     13  C   UNL     1      36.421 -19.695 -20.397  0.00  0.00    +0.076 C 
ATOM     14  C   UNL     1      34.015 -20.154 -20.166  0.00  0.00    +0.076 C 
ATOM     15  C   UNL     1      36.753 -21.120 -19.920  0.00  0.00    +0.018 C 
ATOM     16  C   UNL     1      34.320 -21.583 -19.683  0.00  0.00    +0.018 C 
ATOM     17  C   UNL     1      35.674 -21.662 -18.996  0.00  0.00    +0.003 C 
ATOM     18  C   UNL     1      37.527 -19.243 -21.365  0.00  0.00    +0.019 C 
ATOM     19  C   UNL     1      32.663 -20.173 -20.896  0.00  0.00    +0.019 C 
ENDBRANCH   9  12
ENDBRANCH   2  10
BRANCH   5  20
ATOM     20  S   UNL     1      33.110 -14.583 -26.250  0.00  0.00    +0.058 S 
ATOM     21  O   UNL     1      31.994 -13.662 -26.117  0.00  0.00    -0.153 OA
ATOM     22  O   UNL     1      34.250 -14.231 -27.082  0.00  0.00    -0.153 OA
BRANCH  20  23
ATOM     23  N   UNL     1      32.518 -16.107 -26.740  0.00  0.00    -0.203 NA
ATOM     24  H   UNL     1      32.256 -16.651 -25.917  0.00  0.00    +0.144 HD
ATOM     25  H   UNL     1      33.243 -16.604 -27.258  0.00  0.00    +0.144 HD
ENDBRANCH  20  23
ENDBRANCH   5  20
TORSDOF 4
ENDMDL
MODEL 4
REMARK VINA RESULT:      -8.7      4.051      7.233
REMARK  Name = 12492
REMARK  4 active torsions:
REMARK  status: ('A' for Active; 'I' for Inactive)
REMARK    1  A    between atoms: C_2  and  C_10
REMARK    2  A    between atoms: C_5  and  S_20
REMARK    3  A    between atoms: N_9  and  N_12
REMARK    4  A    between atoms: S_20  and  N_23
REMARK                            x       y       z     vdW  Elec       q    Type
REMARK                         _______ _______ _______ _____ _____    ______ ____
ROOT
ATOM      1 CL   UNL     1      35.193 -19.113 -23.944  0.00  0.00    -0.081 Cl
ATOM      2  C   UNL     1      33.808 -14.878 -24.444  0.00  0.00    +0.056 C 
ATOM      3  C   UNL     1      34.137 -15.309 -23.177  0.00  0.00    +0.025 C 
ATOM      4  C   UNL     1      33.894 -15.700 -25.548  0.00  0.00    +0.005 C 
ATOM      5  C   UNL     1      34.570 -16.625 -23.004  0.00  0.00    +0.132 C 
ATOM      6  C   UNL     1      34.327 -17.014 -25.376  0.00  0.00    +0.013 C 
ATOM      7  C   UNL     1      34.665 -17.477 -24.103  0.00  0.00    +0.076 C 
ENDROOT
BRANCH   2  10
ATOM      8  O   UNL     1      32.625 -13.208 -25.587  0.00  0.00    -0.269 OA
ATOM      9  N   UNL     1      33.766 -12.585 -23.667  0.00  0.00    -0.243 N 
ATOM     10  C   UNL     1      33.345 -13.478 -24.629  0.00  0.00    +0.259 C 
ATOM     11  H   UNL     1      34.344 -12.878 -22.927  0.00  0.00    +0.170 HD
BRANCH   9  12
ATOM     12  N   UNL     1      33.353 -11.261 -23.765  0.00  0.00    -0.208 NA
ATOM     13  C   UNL     1      32.717 -10.841 -22.497  0.00  0.00    +0.076 C 
ATOM     14  C   UNL     1      34.506 -10.406 -24.130  0.00  0.00    +0.076 C 
ATOM     15  C   UNL     1      32.294  -9.362 -22.547  0.00  0.00    +0.018 C 
ATOM     16  C   UNL     1      34.103  -8.922 -24.196  0.00  0.00    +0.018 C 
ATOM     17  C   UNL     1      33.466  -8.459 -22.896  0.00  0.00    +0.003 C 
ATOM     18  C   UNL     1      31.471 -11.688 -22.194  0.00  0.00    +0.019 C 
ATOM     19  C   UNL     1      35.085 -10.808 -25.495  0.00  0.00    +0.019 C 
ENDBRANCH   9  12
ENDBRANCH   2  10
BRANCH   5  20
ATOM     20  S   UNL     1      34.980 -17.150 -21.383  0.00  0.00    +0.058 S 
ATOM     21  O   UNL     1      36.161 -17.993 -21.466  0.00  0.00    -0.153 OA
ATOM     22  O   UNL     1      34.976 -15.985 -20.512  0.00  0.00    -0.153 OA
BRANCH  20  23
ATOM     23  N   UNL     1      33.627 -18.122 -21.011  0.00  0.00    -0.203 NA
ATOM     24  H   UNL     1      32.829 -17.525 -20.792  0.00  0.00    +0.144 HD
ATOM     25  H   UNL     1      33.842 -18.711 -20.207  0.00  0.00    +0.144 HD
ENDBRANCH  20  23
ENDBRANCH   5  20
TORSDOF 4
ENDMDL
MODEL 5
REMARK VINA RESULT:      -8.6      7.108     10.189
REMARK  Name = 12492
REMARK  4 active torsions:
REMARK  status: ('A' for Active; 'I' for Inactive)
REMARK    1  A    between atoms: C_2  and  C_10
REMARK    2  A    between atoms: C_5  and  S_20
REMARK    3  A    between atoms: N_9  and  N_12
REMARK    4  A    between atoms: S_20  and  N_23
REMARK                            x       y       z     vdW  Elec       q    Type
REMARK                         _______ _______ _______ _____ _____    ______ ____
ROOT
ATOM      1 CL   UNL     1      36.859 -22.616 -17.314  0.00  0.00    -0.081 Cl
ATOM      2  C   UNL     1      34.723 -20.194 -20.426  0.00  0.00    +0.056 C 
ATOM      3  C   UNL     1      33.994 -21.115 -19.706  0.00  0.00    +0.025 C 
ATOM      4  C   UNL     1      36.073 -19.997 -20.219  0.00  0.00    +0.005 C 
ATOM      5  C   UNL     1      34.643 -21.877 -18.733  0.00  0.00    +0.132 C 
ATOM      6  C   UNL     1      36.722 -20.758 -19.247  0.00  0.00    +0.013 C 
ATOM      7  C   UNL     1      36.007 -21.698 -18.504  0.00  0.00    +0.076 C 
ENDROOT
BRANCH   2  10
ATOM      8  O   UNL     1      32.869 -19.649 -21.752  0.00  0.00    -0.269 OA
ATOM      9  N   UNL     1      34.781 -18.363 -22.010  0.00  0.00    -0.243 N 
ATOM     10  C   UNL     1      34.033 -19.383 -21.463  0.00  0.00    +0.259 C 
ATOM     11  H   UNL     1      35.711 -18.212 -21.725  0.00  0.00    +0.170 HD
BRANCH   9  12
ATOM     12  N   UNL     1      34.192 -17.550 -22.972  0.00  0.00    -0.208 NA
ATOM     13  C   UNL     1      34.254 -16.137 -22.537  0.00  0.00    +0.076 C 
ATOM     14  C   UNL     1      34.850 -17.769 -24.279  0.00  0.00    +0.076 C 
ATOM     15  C   UNL     1      33.658 -15.199 -23.601  0.00  0.00    +0.018 C 
ATOM     16  C   UNL     1      34.263 -16.847 -25.363  0.00  0.00    +0.018 C 
ATOM     17  C   UNL     1      34.334 -15.386 -24.950  0.00  0.00    +0.003 C 
ATOM     18  C   UNL     1      33.482 -15.926 -21.224  0.00  0.00    +0.019 C 
ATOM     19  C   UNL     1      34.688 -19.224 -24.747  0.00  0.00    +0.019 C 
ENDBRANCH   9  12
ENDBRANCH   2  10
BRANCH   5  20
ATOM     20  S   UNL     1      33.695 -23.043 -17.831  0.00  0.00    +0.058 S 
ATOM     21  O   UNL     1      33.717 -24.302 -18.556  0.00  0.00    -0.153 OA
ATOM     22  O   UNL     1      34.118 -22.995 -16.440  0.00  0.00    -0.153 OA
BRANCH  20  23
ATOM     23  N   UNL     1      32.138 -22.355 -17.959  0.00  0.00    -0.203 NA
ATOM     24  H   UNL     1      32.098 -21.500 -17.404  0.00  0.00    +0.144 HD
ATOM     25  H   UNL     1      31.444 -23.017 -17.614  0.00  0.00    +0.144 HD
ENDBRANCH  20  23
ENDBRANCH   5  20
TORSDOF 4
ENDMDL
MODEL 6
REMARK VINA RESULT:      -8.5      9.039     11.945
REMARK  Name = 12492
REMARK  4 active torsions:
REMARK  status: ('A' for Active; 'I' for Inactive)
REMARK    1  A    between atoms: C_2  and  C_10
REMARK    2  A    between atoms: C_5  and  S_20
REMARK    3  A    between atoms: N_9  and  N_12
REMARK    4  A    between atoms: S_20  and  N_23
REMARK                            x       y       z     vdW  Elec       q    Type
REMARK                         _______ _______ _______ _____ _____    ______ ____
ROOT
ATOM      1 CL   UNL     1      37.163 -19.279 -20.816  0.00  0.00    -0.081 Cl
ATOM      2  C   UNL     1      34.580 -22.188 -18.586  0.00  0.00    +0.056 C 
ATOM      3  C   UNL     1      33.981 -21.371 -19.520  0.00  0.00    +0.025 C 
ATOM      4  C   UNL     1      35.932 -22.138 -18.321  0.00  0.00    +0.005 C 
ATOM      5  C   UNL     1      34.771 -20.460 -20.224  0.00  0.00    +0.132 C 
ATOM      6  C   UNL     1      36.722 -21.229 -19.024  0.00  0.00    +0.013 C 
ATOM      7  C   UNL     1      36.141 -20.389 -19.975  0.00  0.00    +0.076 C 
ENDROOT
BRANCH   2  10
ATOM      8  O   UNL     1      33.449 -24.229 -18.360  0.00  0.00    -0.269 OA
ATOM      9  N   UNL     1      33.364 -22.758 -16.570  0.00  0.00    -0.243 N 
ATOM     10  C   UNL     1      33.739 -23.157 -17.835  0.00  0.00    +0.259 C 
ATOM     11  H   UNL     1      33.637 -21.880 -16.218  0.00  0.00    +0.170 HD
BRANCH   9  12
ATOM     12  N   UNL     1      32.594 -23.624 -15.802  0.00  0.00    -0.208 NA
ATOM     13  C   UNL     1      33.328 -23.985 -14.569  0.00  0.00    +0.076 C 
ATOM     14  C   UNL     1      31.282 -23.002 -15.516  0.00  0.00    +0.076 C 
ATOM     15  C   UNL     1      32.486 -24.903 -13.666  0.00  0.00    +0.018 C 
ATOM     16  C   UNL     1      30.416 -23.907 -14.621  0.00  0.00    +0.018 C 
ATOM     17  C   UNL     1      31.140 -24.276 -13.337  0.00  0.00    +0.003 C 
ATOM     18  C   UNL     1      34.643 -24.712 -14.899  0.00  0.00    +0.019 C 
ATOM     19  C   UNL     1      30.504 -22.724 -16.812  0.00  0.00    +0.019 C 
ENDBRANCH   9  12
ENDBRANCH   2  10
BRANCH   5  20
ATOM     20  S   UNL     1      33.987 -19.431 -21.406  0.00  0.00    +0.058 S 
ATOM     21  O   UNL     1      34.060 -18.059 -20.932  0.00  0.00    -0.153 OA
ATOM     22  O   UNL     1      34.502 -19.776 -22.722  0.00  0.00    -0.153 OA
BRANCH  20  23
ATOM     23  N   UNL     1      32.374 -19.977 -21.284  0.00  0.00    -0.203 NA
ATOM     24  H   UNL     1      31.988 -20.109 -22.219  0.00  0.00    +0.144 HD
ATOM     25  H   UNL     1      31.817 -19.285 -20.781  0.00  0.00    +0.144 HD
ENDBRANCH  20  23
ENDBRANCH   5  20
TORSDOF 4
ENDMDL
MODEL 7
REMARK VINA RESULT:      -8.4      3.947      5.926
REMARK  Name = 12492
REMARK  4 active torsions:
REMARK  status: ('A' for Active; 'I' for Inactive)
REMARK    1  A    between atoms: C_2  and  C_10
REMARK    2  A    between atoms: C_5  and  S_20
REMARK    3  A    between atoms: N_9  and  N_12
REMARK    4  A    between atoms: S_20  and  N_23
REMARK                            x       y       z     vdW  Elec       q    Type
REMARK                         _______ _______ _______ _____ _____    ______ ____
ROOT
ATOM      1 CL   UNL     1      33.661 -14.644 -26.600  0.00  0.00    -0.081 Cl
ATOM      2  C   UNL     1      34.474 -16.871 -22.794  0.00  0.00    +0.056 C 
ATOM      3  C   UNL     1      33.955 -15.597 -22.704  0.00  0.00    +0.025 C 
ATOM      4  C   UNL     1      34.746 -17.472 -24.005  0.00  0.00    +0.005 C 
ATOM      5  C   UNL     1      33.695 -14.891 -23.879  0.00  0.00    +0.132 C 
ATOM      6  C   UNL     1      34.487 -16.766 -25.179  0.00  0.00    +0.013 C 
ATOM      7  C   UNL     1      33.961 -15.476 -25.116  0.00  0.00    +0.076 C 
ENDROOT
BRANCH   2  10
ATOM      8  O   UNL     1      35.067 -17.004 -20.529  0.00  0.00    -0.269 OA
ATOM      9  N   UNL     1      34.610 -18.992 -21.632  0.00  0.00    -0.243 N 
ATOM     10  C   UNL     1      34.753 -17.624 -21.543  0.00  0.00    +0.259 C 
ATOM     11  H   UNL     1      34.355 -19.416 -22.483  0.00  0.00    +0.170 HD
BRANCH   9  12
ATOM     12  N   UNL     1      34.835 -19.758 -20.494  0.00  0.00    -0.208 NA
ATOM     13  C   UNL     1      33.716 -20.708 -20.304  0.00  0.00    +0.076 C 
ATOM     14  C   UNL     1      36.144 -20.441 -20.605  0.00  0.00    +0.076 C 
ATOM     15  C   UNL     1      33.953 -21.613 -19.082  0.00  0.00    +0.018 C 
ATOM     16  C   UNL     1      36.407 -21.345 -19.387  0.00  0.00    +0.018 C 
ATOM     17  C   UNL     1      35.281 -22.345 -19.181  0.00  0.00    +0.003 C 
ATOM     18  C   UNL     1      32.386 -19.965 -20.101  0.00  0.00    +0.019 C 
ATOM     19  C   UNL     1      37.293 -19.426 -20.707  0.00  0.00    +0.019 C 
ENDBRANCH   9  12
ENDBRANCH   2  10
BRANCH   5  20
ATOM     20  S   UNL     1      33.036 -13.273 -23.738  0.00  0.00    +0.058 S 
ATOM     21  O   UNL     1      34.078 -12.327 -24.097  0.00  0.00    -0.153 OA
ATOM     22  O   UNL     1      31.755 -13.243 -24.427  0.00  0.00    -0.153 OA
BRANCH  20  23
ATOM     23  N   UNL     1      32.760 -13.186 -22.056  0.00  0.00    -0.203 NA
ATOM     24  H   UNL     1      32.054 -13.874 -21.791  0.00  0.00    +0.144 HD
ATOM     25  H   UNL     1      32.432 -12.252 -21.812  0.00  0.00    +0.144 HD
ENDBRANCH  20  23
ENDBRANCH   5  20
TORSDOF 4
ENDMDL
MODEL 8
REMARK VINA RESULT:      -8.3     10.009     12.865
REMARK  Name = 12492
REMARK  4 active torsions:
REMARK  status: ('A' for Active; 'I' for Inactive)
REMARK    1  A    between atoms: C_2  and  C_10
REMARK    2  A    between atoms: C_5  and  S_20
REMARK    3  A    between atoms: N_9  and  N_12
REMARK    4  A    between atoms: S_20  and  N_23
REMARK                            x       y       z     vdW  Elec       q    Type
REMARK                         _______ _______ _______ _____ _____    ______ ____
ROOT
ATOM      1 CL   UNL     1      31.660 -24.098 -13.474  0.00  0.00    -0.081 Cl
ATOM      2  C   UNL     1      33.399 -22.942 -17.442  0.00  0.00    +0.056 C 
ATOM      3  C   UNL     1      34.266 -23.289 -16.428  0.00  0.00    +0.025 C 
ATOM      4  C   UNL     1      32.030 -22.942 -17.274  0.00  0.00    +0.005 C 
ATOM      5  C   UNL     1      33.741 -23.652 -15.187  0.00  0.00    +0.132 C 
ATOM      6  C   UNL     1      31.505 -23.305 -16.033  0.00  0.00    +0.013 C 
ATOM      7  C   UNL     1      32.361 -23.660 -14.990  0.00  0.00    +0.076 C 
ENDROOT
BRANCH   2  10
ATOM      8  O   UNL     1      34.111 -23.418 -19.624  0.00  0.00    -0.269 OA
ATOM      9  N   UNL     1      34.243 -21.214 -18.914  0.00  0.00    -0.243 N 
ATOM     10  C   UNL     1      33.957 -22.554 -18.764  0.00  0.00    +0.259 C 
ATOM     11  H   UNL     1      34.092 -20.582 -18.175  0.00  0.00    +0.170 HD
BRANCH   9  12
ATOM     12  N   UNL     1      34.750 -20.777 -20.132  0.00  0.00    -0.208 NA
ATOM     13  C   UNL     1      33.887 -19.704 -20.674  0.00  0.00    +0.076 C 
ATOM     14  C   UNL     1      36.153 -20.340 -19.960  0.00  0.00    +0.076 C 
ATOM     15  C   UNL     1      34.444 -19.155 -22.000  0.00  0.00    +0.018 C 
ATOM     16  C   UNL     1      36.736 -19.796 -21.277  0.00  0.00    +0.018 C 
ATOM     17  C   UNL     1      35.878 -18.676 -21.845  0.00  0.00    +0.003 C 
ATOM     18  C   UNL     1      32.459 -20.215 -20.928  0.00  0.00    +0.019 C 
ATOM     19  C   UNL     1      37.042 -21.500 -19.486  0.00  0.00    +0.019 C 
ENDBRANCH   9  12
ENDBRANCH   2  10
BRANCH   5  20
ATOM     20  S   UNL     1      34.864 -24.087 -13.914  0.00  0.00    +0.058 S 
ATOM     21  O   UNL     1      35.965 -23.139 -13.937  0.00  0.00    -0.153 OA
ATOM     22  O   UNL     1      34.105 -24.293 -12.689  0.00  0.00    -0.153 OA
BRANCH  20  23
ATOM     23  N   UNL     1      35.418 -25.599 -14.480  0.00  0.00    -0.203 NA
ATOM     24  H   UNL     1      35.710 -25.510 -15.454  0.00  0.00    +0.144 HD
ATOM     25  H   UNL     1      34.667 -26.285 -14.412  0.00  0.00    +0.144 HD
ENDBRANCH  20  23
ENDBRANCH   5  20
TORSDOF 4
ENDMDL
MODEL 9
REMARK VINA RESULT:      -8.1      4.332      7.563
REMARK  Name = 12492
REMARK  4 active torsions:
REMARK  status: ('A' for Active; 'I' for Inactive)
REMARK    1  A    between atoms: C_2  and  C_10
REMARK    2  A    between atoms: C_5  and  S_20
REMARK    3  A    between atoms: N_9  and  N_12
REMARK    4  A    between atoms: S_20  and  N_23
REMARK                            x       y       z     vdW  Elec       q    Type
REMARK                         _______ _______ _______ _____ _____    ______ ____
ROOT
ATOM      1 CL   UNL     1      34.563 -19.111 -25.240  0.00  0.00    -0.081 Cl
ATOM      2  C   UNL     1      34.180 -15.024 -23.437  0.00  0.00    +0.056 C 
ATOM      3  C   UNL     1      34.715 -16.029 -22.660  0.00  0.00    +0.025 C 
ATOM      4  C   UNL     1      33.767 -15.235 -24.735  0.00  0.00    +0.005 C 
ATOM      5  C   UNL     1      34.841 -17.307 -23.206  0.00  0.00    +0.132 C 
ATOM      6  C   UNL     1      33.893 -16.512 -25.281  0.00  0.00    +0.013 C 
ATOM      7  C   UNL     1      34.431 -17.548 -24.517  0.00  0.00    +0.076 C 
ENDROOT
BRANCH   2  10
ATOM      8  O   UNL     1      34.662 -13.385 -21.830  0.00  0.00    -0.269 OA
ATOM      9  N   UNL     1      33.223 -12.802 -23.553  0.00  0.00    -0.243 N 
ATOM     10  C   UNL     1      34.044 -13.662 -22.855  0.00  0.00    +0.259 C 
ATOM     11  H   UNL     1      32.760 -13.099 -24.369  0.00  0.00    +0.170 HD
BRANCH   9  12
ATOM     12  N   UNL     1      33.065 -11.505 -23.077  0.00  0.00    -0.208 NA
ATOM     13  C   UNL     1      33.260 -10.541 -24.183  0.00  0.00    +0.076 C 
ATOM     14  C   UNL     1      31.738 -11.368 -22.436  0.00  0.00    +0.076 C 
ATOM     15  C   UNL     1      33.041  -9.094 -23.709  0.00  0.00    +0.018 C 
ATOM     16  C   UNL     1      31.500  -9.930 -21.944  0.00  0.00    +0.018 C 
ATOM     17  C   UNL     1      31.674  -8.920 -23.067  0.00  0.00    +0.003 C 
ATOM     18  C   UNL     1      34.679 -10.646 -24.767  0.00  0.00    +0.019 C 
ATOM     19  C   UNL     1      31.601 -12.316 -21.234  0.00  0.00    +0.019 C 
ENDBRANCH   9  12
ENDBRANCH   2  10
BRANCH   5  20
ATOM     20  S   UNL     1      35.522 -18.569 -22.199  0.00  0.00    +0.058 S 
ATOM     21  O   UNL     1      34.608 -19.699 -22.209  0.00  0.00    -0.153 OA
ATOM     22  O   UNL     1      36.914 -18.755 -22.581  0.00  0.00    -0.153 OA
BRANCH  20  23
ATOM     23  N   UNL     1      35.465 -17.820 -20.667  0.00  0.00    -0.203 NA
ATOM     24  H   UNL     1      36.285 -17.225 -20.548  0.00  0.00    +0.144 HD
ATOM     25  H   UNL     1      35.455 -18.534 -19.938  0.00  0.00    +0.144 HD
ENDBRANCH  20  23
ENDBRANCH   5  20
TORSDOF 4
ENDMDL
