MODEL 1
REMARK VINA RESULT:      -9.0      0.000      0.000
REMARK  Name = 57697
REMARK  1 active torsions:
REMARK  status: ('A' for Active; 'I' for Inactive)
REMARK    1  A    between atoms: C_7  and  C_17
REMARK                            x       y       z     vdW  Elec       q    Type
REMARK                         _______ _______ _______ _____ _____    ______ ____
ROOT
ATOM      1  O   UNL     1      35.125 -16.329 -20.251  0.00  0.00    -0.268 OA
ATOM      2  N   UNL     1      34.389 -15.722 -22.388  0.00  0.00    -0.217 N 
ATOM      3  N   UNL     1      34.392 -17.343 -24.130  0.00  0.00    -0.228 NA
ATOM      4  C   UNL     1      34.171 -16.133 -23.713  0.00  0.00    +0.137 C 
ATOM      5  C   UNL     1      33.656 -15.096 -24.679  0.00  0.00    +0.010 C 
ATOM      6  C   UNL     1      34.876 -16.615 -21.423  0.00  0.00    +0.269 C 
ATOM      7  C   UNL     1      35.105 -18.010 -21.918  0.00  0.00    +0.139 C 
ATOM      8  C   UNL     1      34.135 -14.409 -22.005  0.00  0.00    +0.074 C 
ATOM      9  C   UNL     1      33.433 -13.852 -24.231  0.00  0.00    -0.000 C 
ATOM     10  C   UNL     1      34.851 -18.244 -23.214  0.00  0.00    +0.115 C 
ATOM     11  C   UNL     1      33.677 -13.493 -22.863  0.00  0.00    +0.016 C 
ATOM     12  C   UNL     1      33.413 -15.505 -26.098  0.00  0.00    +0.034 C 
ENDROOT
BRANCH   7  17
ATOM     13  N   UNL     1      36.846 -19.198 -20.624  0.00  0.00    -0.109 NA
ATOM     14  N   UNL     1      34.699 -19.904 -20.475  0.00  0.00    -0.086 NA
ATOM     15  N   UNL     1      36.671 -20.251 -19.812  0.00  0.00    -0.140 N 
ATOM     16  N   UNL     1      35.415 -20.702 -19.693  0.00  0.00    -0.022 NA
ATOM     17  C   UNL     1      35.583 -19.021 -21.013  0.00  0.00    +0.079 C 
ATOM     18  H   UNL     1      37.423 -20.667 -19.330  0.00  0.00    +0.197 HD
ENDBRANCH   7  17
TORSDOF 1
ENDMDL
MODEL 2
REMARK VINA RESULT:      -8.9      8.082     10.359
REMARK  Name = 57697
REMARK  1 active torsions:
REMARK  status: ('A' for Active; 'I' for Inactive)
REMARK    1  A    between atoms: C_7  and  C_17
REMARK                            x       y       z     vdW  Elec       q    Type
REMARK                         _______ _______ _______ _____ _____    ______ ____
ROOT
ATOM      1  O   UNL     1      34.290 -23.964 -12.649  0.00  0.00    -0.268 OA
ATOM      2  N   UNL     1      33.774 -23.534 -14.891  0.00  0.00    -0.217 N 
ATOM      3  N   UNL     1      35.536 -23.121 -16.437  0.00  0.00    -0.228 NA
ATOM      4  C   UNL     1      34.269 -23.232 -16.170  0.00  0.00    +0.137 C 
ATOM      5  C   UNL     1      33.257 -23.029 -17.269  0.00  0.00    +0.010 C 
ATOM      6  C   UNL     1      34.641 -23.729 -13.806  0.00  0.00    +0.269 C 
ATOM      7  C   UNL     1      36.098 -23.617 -14.138  0.00  0.00    +0.139 C 
ATOM      8  C   UNL     1      32.405 -23.636 -14.670  0.00  0.00    +0.074 C 
ATOM      9  C   UNL     1      31.954 -23.147 -16.975  0.00  0.00    -0.000 C 
ATOM     10  C   UNL     1      36.410 -23.321 -15.409  0.00  0.00    +0.115 C 
ATOM     11  C   UNL     1      31.511 -23.458 -15.646  0.00  0.00    +0.016 C 
ATOM     12  C   UNL     1      33.755 -22.706 -18.643  0.00  0.00    +0.034 C 
ENDROOT
BRANCH   7  17
ATOM     13  N   UNL     1      37.486 -24.994 -12.623  0.00  0.00    -0.109 NA
ATOM     14  N   UNL     1      37.692 -22.739 -12.550  0.00  0.00    -0.086 NA
ATOM     15  N   UNL     1      38.381 -24.555 -11.727  0.00  0.00    -0.140 N 
ATOM     16  N   UNL     1      38.536 -23.226 -11.650  0.00  0.00    -0.022 NA
ATOM     17  C   UNL     1      37.083 -23.820 -13.110  0.00  0.00    +0.079 C 
ATOM     18  H   UNL     1      38.895 -25.173 -11.158  0.00  0.00    +0.197 HD
ENDBRANCH   7  17
TORSDOF 1
ENDMDL
MODEL 3
REMARK VINA RESULT:      -8.8      1.234      2.304
REMARK  Name = 57697
REMARK  1 active torsions:
REMARK  status: ('A' for Active; 'I' for Inactive)
REMARK    1  A    between atoms: C_7  and  C_17
REMARK                            x       y       z     vdW  Elec       q    Type
REMARK                         _______ _______ _______ _____ _____    ______ ____
ROOT
ATOM      1  O   UNL     1      35.113 -18.859 -23.756  0.00  0.00    -0.268 OA
ATOM      2  N   UNL     1      34.284 -16.671 -23.785  0.00  0.00    -0.217 N 
ATOM      3  N   UNL     1      34.045 -15.483 -21.736  0.00  0.00    -0.228 NA
ATOM      4  C   UNL     1      33.922 -15.544 -23.028  0.00  0.00    +0.137 C 
ATOM      5  C   UNL     1      33.363 -14.362 -23.778  0.00  0.00    +0.010 C 
ATOM      6  C   UNL     1      34.803 -17.820 -23.171  0.00  0.00    +0.269 C 
ATOM      7  C   UNL     1      34.956 -17.723 -21.684  0.00  0.00    +0.139 C 
ATOM      8  C   UNL     1      34.124 -16.673 -25.166  0.00  0.00    +0.074 C 
ATOM      9  C   UNL     1      33.243 -14.443 -25.111  0.00  0.00    -0.000 C 
ATOM     10  C   UNL     1      34.562 -16.578 -21.106  0.00  0.00    +0.115 C 
ATOM     11  C   UNL     1      33.630 -15.623 -25.828  0.00  0.00    +0.016 C 
ATOM     12  C   UNL     1      32.970 -13.147 -22.998  0.00  0.00    +0.034 C 
ENDROOT
BRANCH   7  17
ATOM     13  N   UNL     1      36.789 -19.055 -20.693  0.00  0.00    -0.109 NA
ATOM     14  N   UNL     1      34.655 -19.772 -20.442  0.00  0.00    -0.086 NA
ATOM     15  N   UNL     1      36.673 -20.196 -19.997  0.00  0.00    -0.140 N 
ATOM     16  N   UNL     1      35.427 -20.657 -19.823  0.00  0.00    -0.022 NA
ATOM     17  C   UNL     1      35.499 -18.832 -20.947  0.00  0.00    +0.079 C 
ATOM     18  H   UNL     1      37.458 -20.667 -19.634  0.00  0.00    +0.197 HD
ENDBRANCH   7  17
TORSDOF 1
ENDMDL
MODEL 4
REMARK VINA RESULT:      -8.8      6.952      9.353
REMARK  Name = 57697
REMARK  1 active torsions:
REMARK  status: ('A' for Active; 'I' for Inactive)
REMARK    1  A    between atoms: C_7  and  C_17
REMARK                            x       y       z     vdW  Elec       q    Type
REMARK                         _______ _______ _______ _____ _____    ______ ____
ROOT
ATOM      1  O   UNL     1      34.681 -23.843 -14.193  0.00  0.00    -0.268 OA
ATOM      2  N   UNL     1      34.956 -22.979 -16.351  0.00  0.00    -0.217 N 
ATOM      3  N   UNL     1      37.073 -22.105 -16.999  0.00  0.00    -0.228 NA
ATOM      4  C   UNL     1      35.829 -22.370 -17.266  0.00  0.00    +0.137 C 
ATOM      5  C   UNL     1      35.268 -22.013 -18.619  0.00  0.00    +0.010 C 
ATOM      6  C   UNL     1      35.388 -23.336 -15.065  0.00  0.00    +0.269 C 
ATOM      7  C   UNL     1      36.830 -23.042 -14.783  0.00  0.00    +0.139 C 
ATOM      8  C   UNL     1      33.634 -23.233 -16.698  0.00  0.00    +0.074 C 
ATOM      9  C   UNL     1      33.982 -22.294 -18.878  0.00  0.00    -0.000 C 
ATOM     10  C   UNL     1      37.533 -22.454 -15.762  0.00  0.00    +0.115 C 
ATOM     11  C   UNL     1      33.140 -22.918 -17.899  0.00  0.00    +0.016 C 
ATOM     12  C   UNL     1      36.176 -21.363 -19.617  0.00  0.00    +0.034 C 
ENDROOT
BRANCH   7  17
ATOM     13  N   UNL     1      37.748 -24.604 -13.099  0.00  0.00    -0.109 NA
ATOM     14  N   UNL     1      37.600 -22.403 -12.585  0.00  0.00    -0.086 NA
ATOM     15  N   UNL     1      38.187 -24.299 -11.869  0.00  0.00    -0.140 N 
ATOM     16  N   UNL     1      38.119 -23.006 -11.522  0.00  0.00    -0.022 NA
ATOM     17  C   UNL     1      37.392 -23.384 -13.504  0.00  0.00    +0.079 C 
ATOM     18  H   UNL     1      38.539 -24.985 -11.257  0.00  0.00    +0.197 HD
ENDBRANCH   7  17
TORSDOF 1
ENDMDL
MODEL 5
REMARK VINA RESULT:      -8.5      3.838      5.652
REMARK  Name = 57697
REMARK  1 active torsions:
REMARK  status: ('A' for Active; 'I' for Inactive)
REMARK    1  A    between atoms: C_7  and  C_17
REMARK                            x       y       z     vdW  Elec       q    Type
REMARK                         _______ _______ _______ _____ _____    ______ ____
ROOT
ATOM      1  O   UNL     1      34.184 -12.371 -25.057  0.00  0.00    -0.268 OA
ATOM      2  N   UNL     1      32.932 -11.552 -23.258  0.00  0.00    -0.217 N 
ATOM      3  N   UNL     1      32.063 -13.076 -21.648  0.00  0.00    -0.228 NA
ATOM      4  C   UNL     1      32.203 -11.865 -22.099  0.00  0.00    +0.137 C 
ATOM      5  C   UNL     1      31.559 -10.718 -21.361  0.00  0.00    +0.010 C 
ATOM      6  C   UNL     1      33.556 -12.555 -24.014  0.00  0.00    +0.269 C 
ATOM      7  C   UNL     1      33.401 -13.941 -23.467  0.00  0.00    +0.139 C 
ATOM      8  C   UNL     1      33.041 -10.235 -23.689  0.00  0.00    +0.074 C 
ATOM      9  C   UNL     1      31.714  -9.475 -21.840  0.00  0.00    -0.000 C 
ATOM     10  C   UNL     1      32.671 -14.075 -22.349  0.00  0.00    +0.115 C 
ATOM     11  C   UNL     1      32.470  -9.221 -23.032  0.00  0.00    +0.016 C 
ATOM     12  C   UNL     1      30.777 -11.021 -20.121  0.00  0.00    +0.034 C 
ENDROOT
BRANCH   7  17
ATOM     13  N   UNL     1      35.074 -15.744 -23.725  0.00  0.00    -0.109 NA
ATOM     14  N   UNL     1      33.506 -15.468 -25.336  0.00  0.00    -0.086 NA
ATOM     15  N   UNL     1      35.173 -16.614 -24.741  0.00  0.00    -0.140 N 
ATOM     16  N   UNL     1      34.265 -16.488 -25.717  0.00  0.00    -0.022 NA
ATOM     17  C   UNL     1      34.016 -15.050 -24.146  0.00  0.00    +0.079 C 
ATOM     18  H   UNL     1      35.874 -17.306 -24.766  0.00  0.00    +0.197 HD
ENDBRANCH   7  17
TORSDOF 1
ENDMDL
MODEL 6
REMARK VINA RESULT:      -8.5      2.775      6.114
REMARK  Name = 57697
REMARK  1 active torsions:
REMARK  status: ('A' for Active; 'I' for Inactive)
REMARK    1  A    between atoms: C_7  and  C_17
REMARK                            x       y       z     vdW  Elec       q    Type
REMARK                         _______ _______ _______ _____ _____    ______ ____
ROOT
ATOM      1  O   UNL     1      33.291 -14.699 -25.374  0.00  0.00    -0.268 OA
ATOM      2  N   UNL     1      34.220 -16.417 -24.086  0.00  0.00    -0.217 N 
ATOM      3  N   UNL     1      34.871 -15.974 -21.840  0.00  0.00    -0.228 NA
ATOM      4  C   UNL     1      34.767 -16.789 -22.847  0.00  0.00    +0.137 C 
ATOM      5  C   UNL     1      35.252 -18.209 -22.707  0.00  0.00    +0.010 C 
ATOM      6  C   UNL     1      33.753 -15.114 -24.310  0.00  0.00    +0.269 C 
ATOM      7  C   UNL     1      33.863 -14.196 -23.131  0.00  0.00    +0.139 C 
ATOM      8  C   UNL     1      34.140 -17.337 -25.125  0.00  0.00    +0.074 C 
ATOM      9  C   UNL     1      35.137 -19.036 -23.757  0.00  0.00    -0.000 C 
ATOM     10  C   UNL     1      34.411 -14.702 -22.017  0.00  0.00    +0.115 C 
ATOM     11  C   UNL     1      34.569 -18.596 -24.998  0.00  0.00    +0.016 C 
ATOM     12  C   UNL     1      35.840 -18.634 -21.397  0.00  0.00    +0.034 C 
ENDROOT
BRANCH   7  17
ATOM     13  N   UNL     1      33.916 -11.882 -24.003  0.00  0.00    -0.109 NA
ATOM     14  N   UNL     1      32.319 -12.449 -22.500  0.00  0.00    -0.086 NA
ATOM     15  N   UNL     1      33.084 -10.880 -23.684  0.00  0.00    -0.140 N 
ATOM     16  N   UNL     1      32.122 -11.171 -22.798  0.00  0.00    -0.022 NA
ATOM     17  C   UNL     1      33.395 -12.840 -23.236  0.00  0.00    +0.079 C 
ATOM     18  H   UNL     1      33.175  -9.982 -24.079  0.00  0.00    +0.197 HD
ENDBRANCH   7  17
TORSDOF 1
ENDMDL
MODEL 7
REMARK VINA RESULT:      -8.5      9.002     10.948
REMARK  Name = 57697
REMARK  1 active torsions:
REMARK  status: ('A' for Active; 'I' for Inactive)
REMARK    1  A    between atoms: C_7  and  C_17
REMARK                            x       y       z     vdW  Elec       q    Type
REMARK                         _______ _______ _______ _____ _____    ______ ____
ROOT
ATOM      1  O   UNL     1      36.633 -23.212 -15.420  0.00  0.00    -0.268 OA
ATOM      2  N   UNL     1      34.304 -23.401 -15.303  0.00  0.00    -0.217 N 
ATOM      3  N   UNL     1      33.276 -23.928 -13.222  0.00  0.00    -0.228 NA
ATOM      4  C   UNL     1      33.189 -23.670 -14.492  0.00  0.00    +0.137 C 
ATOM      5  C   UNL     1      31.835 -23.653 -15.156  0.00  0.00    +0.010 C 
ATOM      6  C   UNL     1      35.602 -23.405 -14.774  0.00  0.00    +0.269 C 
ATOM      7  C   UNL     1      35.680 -23.685 -13.304  0.00  0.00    +0.139 C 
ATOM      8  C   UNL     1      34.143 -23.134 -16.658  0.00  0.00    +0.074 C 
ATOM      9  C   UNL     1      31.765 -23.384 -16.468  0.00  0.00    -0.000 C 
ATOM     10  C   UNL     1      34.523 -23.924 -12.669  0.00  0.00    +0.115 C 
ATOM     11  C   UNL     1      32.942 -23.118 -17.243  0.00  0.00    +0.016 C 
ATOM     12  C   UNL     1      30.628 -23.935 -14.317  0.00  0.00    +0.034 C 
ENDROOT
BRANCH   7  17
ATOM     13  N   UNL     1      37.733 -24.758 -12.438  0.00  0.00    -0.109 NA
ATOM     14  N   UNL     1      37.470 -22.525 -12.170  0.00  0.00    -0.086 NA
ATOM     15  N   UNL     1      38.751 -24.160 -11.803  0.00  0.00    -0.140 N 
ATOM     16  N   UNL     1      38.638 -22.837 -11.622  0.00  0.00    -0.022 NA
ATOM     17  C   UNL     1      36.959 -23.693 -12.645  0.00  0.00    +0.079 C 
ATOM     18  H   UNL     1      39.537 -24.663 -11.488  0.00  0.00    +0.197 HD
ENDBRANCH   7  17
TORSDOF 1
ENDMDL
MODEL 8
REMARK VINA RESULT:      -8.5      8.992     10.867
REMARK  Name = 57697
REMARK  1 active torsions:
REMARK  status: ('A' for Active; 'I' for Inactive)
REMARK    1  A    between atoms: C_7  and  C_17
REMARK                            x       y       z     vdW  Elec       q    Type
REMARK                         _______ _______ _______ _____ _____    ______ ____
ROOT
ATOM      1  O   UNL     1      32.125 -22.748 -17.806  0.00  0.00    -0.268 OA
ATOM      2  N   UNL     1      33.427 -23.276 -15.935  0.00  0.00    -0.217 N 
ATOM      3  N   UNL     1      32.358 -23.948 -13.918  0.00  0.00    -0.228 NA
ATOM      4  C   UNL     1      33.437 -23.680 -14.590  0.00  0.00    +0.137 C 
ATOM      5  C   UNL     1      34.781 -23.799 -13.917  0.00  0.00    +0.010 C 
ATOM      6  C   UNL     1      32.224 -23.128 -16.639  0.00  0.00    +0.269 C 
ATOM      7  C   UNL     1      30.992 -23.461 -15.853  0.00  0.00    +0.139 C 
ATOM      8  C   UNL     1      34.619 -23.001 -16.598  0.00  0.00    +0.074 C 
ATOM      9  C   UNL     1      35.884 -23.518 -14.626  0.00  0.00    -0.000 C 
ATOM     10  C   UNL     1      31.168 -23.832 -14.576  0.00  0.00    +0.115 C 
ATOM     11  C   UNL     1      35.808 -23.109 -15.999  0.00  0.00    +0.016 C 
ATOM     12  C   UNL     1      34.822 -24.230 -12.484  0.00  0.00    +0.034 C 
ENDROOT
BRANCH   7  17
ATOM     13  N   UNL     1      29.123 -22.258 -16.938  0.00  0.00    -0.109 NA
ATOM     14  N   UNL     1      28.955 -24.497 -16.635  0.00  0.00    -0.086 NA
ATOM     15  N   UNL     1      27.976 -22.786 -17.387  0.00  0.00    -0.140 N 
ATOM     16  N   UNL     1      27.833 -24.109 -17.229  0.00  0.00    -0.022 NA
ATOM     17  C   UNL     1      29.699 -23.369 -16.477  0.00  0.00    +0.079 C 
ATOM     18  H   UNL     1      27.278 -22.234 -17.810  0.00  0.00    +0.197 HD
ENDBRANCH   7  17
TORSDOF 1
ENDMDL
MODEL 9
REMARK VINA RESULT:      -8.5      2.848      6.560
REMARK  Name = 57697
REMARK  1 active torsions:
REMARK  status: ('A' for Active; 'I' for Inactive)
REMARK    1  A    between atoms: C_7  and  C_17
REMARK                            x       y       z     vdW  Elec       q    Type
REMARK                         _______ _______ _______ _____ _____    ______ ____
ROOT
ATOM      1  O   UNL     1      33.218 -19.663 -21.743  0.00  0.00    -0.268 OA
ATOM      2  N   UNL     1      34.436 -20.725 -20.051  0.00  0.00    -0.217 N 
ATOM      3  N   UNL     1      36.726 -20.161 -19.727  0.00  0.00    -0.228 NA
ATOM      4  C   UNL     1      35.677 -20.858 -19.406  0.00  0.00    +0.137 C 
ATOM      5  C   UNL     1      35.769 -21.868 -18.291  0.00  0.00    +0.010 C 
ATOM      6  C   UNL     1      34.261 -19.817 -21.105  0.00  0.00    +0.269 C 
ATOM      7  C   UNL     1      35.475 -19.009 -21.447  0.00  0.00    +0.139 C 
ATOM      8  C   UNL     1      33.352 -21.504 -19.661  0.00  0.00    +0.074 C 
ATOM      9  C   UNL     1      34.677 -22.579 -17.974  0.00  0.00    -0.000 C 
ATOM     10  C   UNL     1      36.587 -19.255 -20.738  0.00  0.00    +0.115 C 
ATOM     11  C   UNL     1      33.437 -22.397 -18.671  0.00  0.00    +0.016 C 
ATOM     12  C   UNL     1      37.079 -22.031 -17.585  0.00  0.00    +0.034 C 
ENDROOT
BRANCH   7  17
ATOM     13  N   UNL     1      35.500 -18.268 -23.806  0.00  0.00    -0.109 NA
ATOM     14  N   UNL     1      35.238 -16.719 -22.175  0.00  0.00    -0.086 NA
ATOM     15  N   UNL     1      35.372 -17.012 -24.259  0.00  0.00    -0.140 N 
ATOM     16  N   UNL     1      35.215 -16.062 -23.328  0.00  0.00    -0.022 NA
ATOM     17  C   UNL     1      35.409 -18.029 -22.498  0.00  0.00    +0.079 C 
ATOM     18  H   UNL     1      35.393 -16.801 -25.221  0.00  0.00    +0.197 HD
ENDBRANCH   7  17
TORSDOF 1
ENDMDL
