MODEL 1
REMARK VINA RESULT:      -7.9      0.000      0.000
REMARK  Name = 11694089
REMARK  3 active torsions:
REMARK  status: ('A' for Active; 'I' for Inactive)
REMARK    1  A    between atoms: C_1  and  C_4
REMARK    2  A    between atoms: C_2  and  C_12
REMARK    3  A    between atoms: N_11  and  O_14
REMARK                            x       y       z     vdW  Elec       q    Type
REMARK                         _______ _______ _______ _____ _____    ______ ____
ROOT
ATOM      1  C   UNL     1      34.405 -18.811 -22.247  0.00  0.00    +0.005 C 
ATOM      2  C   UNL     1      35.202 -17.720 -22.287  0.00  0.00    +0.060 C 
ENDROOT
BRANCH   1   4
ATOM      3 CL   UNL     1      34.281 -22.821 -17.832  0.00  0.00    -0.082 Cl
ATOM      4  C   UNL     1      34.375 -19.788 -21.169  0.00  0.00    +0.000 C 
ATOM      5  C   UNL     1      33.155 -20.191 -20.627  0.00  0.00    +0.001 C 
ATOM      6  C   UNL     1      35.566 -20.322 -20.678  0.00  0.00    +0.001 C 
ATOM      7  C   UNL     1      33.125 -21.129 -19.595  0.00  0.00    +0.011 C 
ATOM      8  C   UNL     1      35.537 -21.260 -19.647  0.00  0.00    +0.011 C 
ATOM      9  C   UNL     1      34.316 -21.664 -19.105  0.00  0.00    +0.058 C 
ENDBRANCH   1   4
BRANCH   2  12
ATOM     10  O   UNL     1      35.238 -15.572 -23.329  0.00  0.00    -0.268 OA
ATOM     11  N   UNL     1      35.017 -17.466 -24.635  0.00  0.00    -0.193 N 
ATOM     12  C   UNL     1      35.156 -16.790 -23.450  0.00  0.00    +0.268 C 
ATOM     13  H   UNL     1      34.954 -18.448 -24.673  0.00  0.00    +0.183 HD
BRANCH  11  14
ATOM     14  O   UNL     1      34.968 -16.669 -25.786  0.00  0.00    -0.295 OA
ATOM     15  H   UNL     1      35.828 -16.697 -26.235  0.00  0.00    +0.241 HD
ENDBRANCH  11  14
ENDBRANCH   2  12
TORSDOF 3
ENDMDL
MODEL 2
REMARK VINA RESULT:      -7.6      1.413      1.728
REMARK  Name = 11694089
REMARK  3 active torsions:
REMARK  status: ('A' for Active; 'I' for Inactive)
REMARK    1  A    between atoms: C_1  and  C_4
REMARK    2  A    between atoms: C_2  and  C_12
REMARK    3  A    between atoms: N_11  and  O_14
REMARK                            x       y       z     vdW  Elec       q    Type
REMARK                         _______ _______ _______ _____ _____    ______ ____
ROOT
ATOM      1  C   UNL     1      34.780 -18.175 -21.939  0.00  0.00    +0.005 C 
ATOM      2  C   UNL     1      34.403 -16.907 -21.662  0.00  0.00    +0.060 C 
ENDROOT
BRANCH   1   4
ATOM      3 CL   UNL     1      33.718 -22.917 -18.478  0.00  0.00    -0.082 Cl
ATOM      4  C   UNL     1      34.521 -19.331 -21.094  0.00  0.00    +0.000 C 
ATOM      5  C   UNL     1      33.212 -19.662 -20.746  0.00  0.00    +0.001 C 
ATOM      6  C   UNL     1      35.583 -20.109 -20.632  0.00  0.00    +0.001 C 
ATOM      7  C   UNL     1      32.963 -20.770 -19.937  0.00  0.00    +0.011 C 
ATOM      8  C   UNL     1      35.335 -21.218 -19.823  0.00  0.00    +0.011 C 
ATOM      9  C   UNL     1      34.025 -21.549 -19.475  0.00  0.00    +0.058 C 
ENDBRANCH   1   4
BRANCH   2  12
ATOM     10  O   UNL     1      35.453 -15.948 -23.580  0.00  0.00    -0.268 OA
ATOM     11  N   UNL     1      34.133 -14.622 -22.223  0.00  0.00    -0.193 N 
ATOM     12  C   UNL     1      34.733 -15.797 -22.599  0.00  0.00    +0.268 C 
ATOM     13  H   UNL     1      33.563 -14.558 -21.422  0.00  0.00    +0.183 HD
BRANCH  11  14
ATOM     14  O   UNL     1      34.385 -13.520 -23.051  0.00  0.00    -0.295 OA
ATOM     15  H   UNL     1      33.848 -12.767 -22.758  0.00  0.00    +0.241 HD
ENDBRANCH  11  14
ENDBRANCH   2  12
TORSDOF 3
ENDMDL
MODEL 3
REMARK VINA RESULT:      -7.5      1.137      1.961
REMARK  Name = 11694089
REMARK  3 active torsions:
REMARK  status: ('A' for Active; 'I' for Inactive)
REMARK    1  A    between atoms: C_1  and  C_4
REMARK    2  A    between atoms: C_2  and  C_12
REMARK    3  A    between atoms: N_11  and  O_14
REMARK                            x       y       z     vdW  Elec       q    Type
REMARK                         _______ _______ _______ _____ _____    ______ ____
ROOT
ATOM      1  C   UNL     1      34.410 -18.046 -22.425  0.00  0.00    +0.005 C 
ATOM      2  C   UNL     1      34.696 -18.154 -23.742  0.00  0.00    +0.060 C 
ENDROOT
BRANCH   1   4
ATOM      3 CL   UNL     1      34.666 -22.505 -18.471  0.00  0.00    -0.082 Cl
ATOM      4  C   UNL     1      34.472 -19.135 -21.461  0.00  0.00    +0.000 C 
ATOM      5  C   UNL     1      35.708 -19.641 -21.060  0.00  0.00    +0.001 C 
ATOM      6  C   UNL     1      33.296 -19.671 -20.938  0.00  0.00    +0.001 C 
ATOM      7  C   UNL     1      35.769 -20.683 -20.135  0.00  0.00    +0.011 C 
ATOM      8  C   UNL     1      33.355 -20.713 -20.013  0.00  0.00    +0.011 C 
ATOM      9  C   UNL     1      34.592 -21.220 -19.612  0.00  0.00    +0.058 C 
ENDBRANCH   1   4
BRANCH   2  12
ATOM     10  O   UNL     1      34.979 -16.982 -25.803  0.00  0.00    -0.268 OA
ATOM     11  N   UNL     1      34.004 -15.904 -24.005  0.00  0.00    -0.193 N 
ATOM     12  C   UNL     1      34.587 -16.970 -24.640  0.00  0.00    +0.268 C 
ATOM     13  H   UNL     1      33.709 -15.950 -23.067  0.00  0.00    +0.183 HD
BRANCH  11  14
ATOM     14  O   UNL     1      33.857 -14.744 -24.778  0.00  0.00    -0.295 OA
ATOM     15  H   UNL     1      33.042 -14.285 -24.520  0.00  0.00    +0.241 HD
ENDBRANCH  11  14
ENDBRANCH   2  12
TORSDOF 3
ENDMDL
MODEL 4
REMARK VINA RESULT:      -7.5      1.128      1.424
REMARK  Name = 11694089
REMARK  3 active torsions:
REMARK  status: ('A' for Active; 'I' for Inactive)
REMARK    1  A    between atoms: C_1  and  C_4
REMARK    2  A    between atoms: C_2  and  C_12
REMARK    3  A    between atoms: N_11  and  O_14
REMARK                            x       y       z     vdW  Elec       q    Type
REMARK                         _______ _______ _______ _____ _____    ______ ____
ROOT
ATOM      1  C   UNL     1      34.274 -18.069 -22.449  0.00  0.00    +0.005 C 
ATOM      2  C   UNL     1      34.824 -18.067 -23.683  0.00  0.00    +0.060 C 
ENDROOT
BRANCH   1   4
ATOM      3 CL   UNL     1      34.741 -22.501 -18.484  0.00  0.00    -0.082 Cl
ATOM      4  C   UNL     1      34.387 -19.149 -21.481  0.00  0.00    +0.000 C 
ATOM      5  C   UNL     1      33.239 -19.710 -20.923  0.00  0.00    +0.001 C 
ATOM      6  C   UNL     1      35.646 -19.625 -21.111  0.00  0.00    +0.001 C 
ATOM      7  C   UNL     1      33.348 -20.747 -19.996  0.00  0.00    +0.011 C 
ATOM      8  C   UNL     1      35.755 -20.662 -20.185  0.00  0.00    +0.011 C 
ATOM      9  C   UNL     1      34.606 -21.222 -19.627  0.00  0.00    +0.058 C 
ENDBRANCH   1   4
BRANCH   2  12
ATOM     10  O   UNL     1      35.002 -16.915 -25.767  0.00  0.00    -0.268 OA
ATOM     11  N   UNL     1      34.005 -15.863 -23.966  0.00  0.00    -0.193 N 
ATOM     12  C   UNL     1      34.633 -16.906 -24.597  0.00  0.00    +0.268 C 
ATOM     13  H   UNL     1      33.731 -15.910 -23.022  0.00  0.00    +0.183 HD
BRANCH  11  14
ATOM     14  O   UNL     1      33.779 -14.725 -24.754  0.00  0.00    -0.295 OA
ATOM     15  H   UNL     1      32.946 -14.307 -24.486  0.00  0.00    +0.241 HD
ENDBRANCH  11  14
ENDBRANCH   2  12
TORSDOF 3
ENDMDL
MODEL 5
REMARK VINA RESULT:      -7.3      4.984      6.271
REMARK  Name = 11694089
REMARK  3 active torsions:
REMARK  status: ('A' for Active; 'I' for Inactive)
REMARK    1  A    between atoms: C_1  and  C_4
REMARK    2  A    between atoms: C_2  and  C_12
REMARK    3  A    between atoms: N_11  and  O_14
REMARK                            x       y       z     vdW  Elec       q    Type
REMARK                         _______ _______ _______ _____ _____    ______ ____
ROOT
ATOM      1  C   UNL     1      34.580 -20.038 -20.629  0.00  0.00    +0.005 C 
ATOM      2  C   UNL     1      33.494 -20.765 -20.283  0.00  0.00    +0.060 C 
ENDROOT
BRANCH   1   4
ATOM      3 CL   UNL     1      34.808 -16.110 -25.112  0.00  0.00    -0.082 Cl
ATOM      4  C   UNL     1      34.634 -19.079 -21.722  0.00  0.00    +0.000 C 
ATOM      5  C   UNL     1      34.562 -17.712 -21.456  0.00  0.00    +0.001 C 
ATOM      6  C   UNL     1      34.760 -19.528 -23.037  0.00  0.00    +0.001 C 
ATOM      7  C   UNL     1      34.615 -16.794 -22.504  0.00  0.00    +0.011 C 
ATOM      8  C   UNL     1      34.814 -18.610 -24.086  0.00  0.00    +0.011 C 
ATOM      9  C   UNL     1      34.741 -17.243 -23.819  0.00  0.00    +0.058 C 
ENDBRANCH   1   4
BRANCH   2  12
ATOM     10  O   UNL     1      32.553 -22.195 -18.619  0.00  0.00    -0.268 OA
ATOM     11  N   UNL     1      34.850 -22.009 -18.792  0.00  0.00    -0.193 N 
ATOM     12  C   UNL     1      33.556 -21.727 -19.147  0.00  0.00    +0.268 C 
ATOM     13  H   UNL     1      35.620 -21.602 -19.252  0.00  0.00    +0.183 HD
BRANCH  11  14
ATOM     14  O   UNL     1      35.005 -22.912 -17.731  0.00  0.00    -0.295 OA
ATOM     15  H   UNL     1      34.902 -22.441 -16.889  0.00  0.00    +0.241 HD
ENDBRANCH  11  14
ENDBRANCH   2  12
TORSDOF 3
ENDMDL
MODEL 6
REMARK VINA RESULT:      -7.2      4.861      6.413
REMARK  Name = 11694089
REMARK  3 active torsions:
REMARK  status: ('A' for Active; 'I' for Inactive)
REMARK    1  A    between atoms: C_1  and  C_4
REMARK    2  A    between atoms: C_2  and  C_12
REMARK    3  A    between atoms: N_11  and  O_14
REMARK                            x       y       z     vdW  Elec       q    Type
REMARK                         _______ _______ _______ _____ _____    ______ ____
ROOT
ATOM      1  C   UNL     1      34.721 -18.244 -21.084  0.00  0.00    +0.005 C 
ATOM      2  C   UNL     1      33.783 -19.214 -21.022  0.00  0.00    +0.060 C 
ENDROOT
BRANCH   1   4
ATOM      3 CL   UNL     1      34.044 -12.968 -23.785  0.00  0.00    -0.082 Cl
ATOM      4  C   UNL     1      34.555 -16.957 -21.743  0.00  0.00    +0.000 C 
ATOM      5  C   UNL     1      34.315 -15.811 -20.985  0.00  0.00    +0.001 C 
ATOM      6  C   UNL     1      34.637 -16.869 -23.133  0.00  0.00    +0.001 C 
ATOM      7  C   UNL     1      34.157 -14.577 -21.616  0.00  0.00    +0.011 C 
ATOM      8  C   UNL     1      34.479 -15.636 -23.764  0.00  0.00    +0.011 C 
ATOM      9  C   UNL     1      34.239 -14.490 -23.006  0.00  0.00    +0.058 C 
ENDBRANCH   1   4
BRANCH   2  12
ATOM     10  O   UNL     1      35.206 -20.929 -20.163  0.00  0.00    -0.268 OA
ATOM     11  N   UNL     1      32.916 -21.116 -19.907  0.00  0.00    -0.193 N 
ATOM     12  C   UNL     1      34.068 -20.501 -20.327  0.00  0.00    +0.268 C 
ATOM     13  H   UNL     1      32.026 -20.726 -20.068  0.00  0.00    +0.183 HD
BRANCH  11  14
ATOM     14  O   UNL     1      33.089 -22.335 -19.238  0.00  0.00    -0.295 OA
ATOM     15  H   UNL     1      33.670 -22.911 -19.760  0.00  0.00    +0.241 HD
ENDBRANCH  11  14
ENDBRANCH   2  12
TORSDOF 3
ENDMDL
MODEL 7
REMARK VINA RESULT:      -7.2      4.948      6.260
REMARK  Name = 11694089
REMARK  3 active torsions:
REMARK  status: ('A' for Active; 'I' for Inactive)
REMARK    1  A    between atoms: C_1  and  C_4
REMARK    2  A    between atoms: C_2  and  C_12
REMARK    3  A    between atoms: N_11  and  O_14
REMARK                            x       y       z     vdW  Elec       q    Type
REMARK                         _______ _______ _______ _____ _____    ______ ____
ROOT
ATOM      1  C   UNL     1      35.220 -19.874 -20.986  0.00  0.00    +0.005 C 
ATOM      2  C   UNL     1      34.300 -20.467 -20.193  0.00  0.00    +0.060 C 
ENDROOT
BRANCH   1   4
ATOM      3 CL   UNL     1      34.368 -14.841 -24.072  0.00  0.00    -0.082 Cl
ATOM      4  C   UNL     1      35.013 -18.646 -21.739  0.00  0.00    +0.000 C 
ATOM      5  C   UNL     1      35.010 -18.675 -23.133  0.00  0.00    +0.001 C 
ATOM      6  C   UNL     1      34.818 -17.440 -21.066  0.00  0.00    +0.001 C 
ATOM      7  C   UNL     1      34.810 -17.499 -23.855  0.00  0.00    +0.011 C 
ATOM      8  C   UNL     1      34.618 -16.263 -21.787  0.00  0.00    +0.011 C 
ATOM      9  C   UNL     1      34.615 -16.293 -23.182  0.00  0.00    +0.058 C 
ENDBRANCH   1   4
BRANCH   2  12
ATOM     10  O   UNL     1      35.728 -21.966 -19.004  0.00  0.00    -0.268 OA
ATOM     11  N   UNL     1      33.534 -22.568 -19.413  0.00  0.00    -0.193 N 
ATOM     12  C   UNL     1      34.620 -21.732 -19.474  0.00  0.00    +0.268 C 
ATOM     13  H   UNL     1      32.666 -22.328 -19.810  0.00  0.00    +0.183 HD
BRANCH  11  14
ATOM     14  O   UNL     1      33.743 -23.784 -18.749  0.00  0.00    -0.295 OA
ATOM     15  H   UNL     1      34.542 -24.210 -19.098  0.00  0.00    +0.241 HD
ENDBRANCH  11  14
ENDBRANCH   2  12
TORSDOF 3
ENDMDL
MODEL 8
REMARK VINA RESULT:      -7.1      4.704      6.317
REMARK  Name = 11694089
REMARK  3 active torsions:
REMARK  status: ('A' for Active; 'I' for Inactive)
REMARK    1  A    between atoms: C_1  and  C_4
REMARK    2  A    between atoms: C_2  and  C_12
REMARK    3  A    between atoms: N_11  and  O_14
REMARK                            x       y       z     vdW  Elec       q    Type
REMARK                         _______ _______ _______ _____ _____    ______ ____
ROOT
ATOM      1  C   UNL     1      35.559 -18.509 -21.581  0.00  0.00    +0.005 C 
ATOM      2  C   UNL     1      35.155 -19.763 -21.281  0.00  0.00    +0.060 C 
ENDROOT
BRANCH   1   4
ATOM      3 CL   UNL     1      33.556 -15.248 -26.157  0.00  0.00    -0.082 Cl
ATOM      4  C   UNL     1      35.070 -17.713 -22.697  0.00  0.00    +0.000 C 
ATOM      5  C   UNL     1      34.840 -16.348 -22.533  0.00  0.00    +0.001 C 
ATOM      6  C   UNL     1      34.831 -18.317 -23.932  0.00  0.00    +0.001 C 
ATOM      7  C   UNL     1      34.372 -15.584 -23.602  0.00  0.00    +0.011 C 
ATOM      8  C   UNL     1      34.363 -17.555 -25.002  0.00  0.00    +0.011 C 
ATOM      9  C   UNL     1      34.133 -16.188 -24.837  0.00  0.00    +0.058 C 
ENDBRANCH   1   4
BRANCH   2  12
ATOM     10  O   UNL     1      36.778 -20.144 -19.572  0.00  0.00    -0.268 OA
ATOM     11  N   UNL     1      34.958 -21.558 -19.749  0.00  0.00    -0.193 N 
ATOM     12  C   UNL     1      35.734 -20.488 -20.116  0.00  0.00    +0.268 C 
ATOM     13  H   UNL     1      34.127 -21.790 -20.224  0.00  0.00    +0.183 HD
BRANCH  11  14
ATOM     14  O   UNL     1      35.426 -22.299 -18.655  0.00  0.00    -0.295 OA
ATOM     15  H   UNL     1      35.410 -21.745 -17.859  0.00  0.00    +0.241 HD
ENDBRANCH  11  14
ENDBRANCH   2  12
TORSDOF 3
ENDMDL
MODEL 9
REMARK VINA RESULT:      -7.0      4.694      6.339
REMARK  Name = 11694089
REMARK  3 active torsions:
REMARK  status: ('A' for Active; 'I' for Inactive)
REMARK    1  A    between atoms: C_1  and  C_4
REMARK    2  A    between atoms: C_2  and  C_12
REMARK    3  A    between atoms: N_11  and  O_14
REMARK                            x       y       z     vdW  Elec       q    Type
REMARK                         _______ _______ _______ _____ _____    ______ ____
ROOT
ATOM      1  C   UNL     1      35.148 -18.605 -21.743  0.00  0.00    +0.005 C 
ATOM      2  C   UNL     1      34.472 -19.704 -21.341  0.00  0.00    +0.060 C 
ENDROOT
BRANCH   1   4
ATOM      3 CL   UNL     1      33.547 -15.040 -26.250  0.00  0.00    -0.082 Cl
ATOM      4  C   UNL     1      34.759 -17.735 -22.843  0.00  0.00    +0.000 C 
ATOM      5  C   UNL     1      34.726 -18.231 -24.146  0.00  0.00    +0.001 C 
ATOM      6  C   UNL     1      34.417 -16.406 -22.593  0.00  0.00    +0.001 C 
ATOM      7  C   UNL     1      34.351 -17.398 -25.200  0.00  0.00    +0.011 C 
ATOM      8  C   UNL     1      34.042 -15.572 -23.647  0.00  0.00    +0.011 C 
ATOM      9  C   UNL     1      34.009 -16.068 -24.951  0.00  0.00    +0.058 C 
ENDBRANCH   1   4
BRANCH   2  12
ATOM     10  O   UNL     1      34.308 -21.424 -19.693  0.00  0.00    -0.268 OA
ATOM     11  N   UNL     1      36.236 -20.157 -19.827  0.00  0.00    -0.193 N 
ATOM     12  C   UNL     1      34.971 -20.528 -20.205  0.00  0.00    +0.268 C 
ATOM     13  H   UNL     1      36.723 -19.427 -20.274  0.00  0.00    +0.183 HD
BRANCH  11  14
ATOM     14  O   UNL     1      36.790 -20.884 -18.764  0.00  0.00    -0.295 OA
ATOM     15  H   UNL     1      37.206 -21.690 -19.107  0.00  0.00    +0.241 HD
ENDBRANCH  11  14
ENDBRANCH   2  12
TORSDOF 3
ENDMDL
