MODEL 1
REMARK VINA RESULT:      -9.7      0.000      0.000
REMARK  Name = 71819
REMARK  9 active torsions:
REMARK  status: ('A' for Active; 'I' for Inactive)
REMARK    1  A    between atoms: C_1  and  C_17
REMARK    2  A    between atoms: C_4  and  O_7
REMARK    3  A    between atoms: O_7  and  C_8
REMARK    4  A    between atoms: C_11  and  N_16
REMARK    5  A    between atoms: C_17  and  N_19
REMARK    6  A    between atoms: N_19  and  C_24
REMARK    7  A    between atoms: C_20  and  C_23
REMARK    8  A    between atoms: C_24  and  C_25
REMARK    9  A    between atoms: C_25  and  O_26
REMARK                            x       y       z     vdW  Elec       q    Type
REMARK                         _______ _______ _______ _____ _____    ______ ____
ROOT
ATOM      1  C   UNL     1      35.202 -19.562 -20.592  0.00  0.00    -0.002 C 
ATOM      2  C   UNL     1      35.891 -20.660 -20.092  0.00  0.00    +0.001 C 
ATOM      3  C   UNL     1      33.813 -19.544 -20.613  0.00  0.00    +0.001 C 
ATOM      4  C   UNL     1      33.785 -21.749 -19.624  0.00  0.00    +0.145 C 
ATOM      5  C   UNL     1      35.180 -21.758 -19.606  0.00  0.00    +0.037 C 
ATOM      6  C   UNL     1      33.102 -20.641 -20.126  0.00  0.00    +0.037 C 
ENDROOT
BRANCH   4   7
ATOM      7  O   UNL     1      33.091 -22.819 -19.149  0.00  0.00    -0.453 OA
BRANCH   7   8
ATOM      8  C   UNL     1      33.037 -22.994 -17.777  0.00  0.00    +0.145 C 
ATOM      9  C   UNL     1      31.810 -22.947 -17.139  0.00  0.00    +0.039 C 
ATOM     10  C   UNL     1      34.211 -23.214 -17.079  0.00  0.00    +0.039 C 
ATOM     11  C   UNL     1      32.929 -23.346 -15.035  0.00  0.00    +0.143 C 
ATOM     12  C   UNL     1      31.757 -23.124 -15.756  0.00  0.00    +0.027 C 
ATOM     13  C   UNL     1      34.157 -23.390 -15.697  0.00  0.00    +0.027 C 
BRANCH  11  16
ATOM     14  O   UNL     1      31.849 -23.154 -13.008  0.00  0.00    -0.126 OA
ATOM     15  O   UNL     1      33.853 -24.048 -13.043  0.00  0.00    -0.126 OA
ATOM     16  N   UNL     1      32.874 -23.524 -13.628  0.00  0.00    +0.058 N 
ENDBRANCH  11  16
ENDBRANCH   7   8
ENDBRANCH   4   7
BRANCH   1  17
ATOM     17  C   UNL     1      35.967 -18.381 -21.115  0.00  0.00    +0.120 C 
BRANCH  17  19
ATOM     18  O   UNL     1      33.961 -16.273 -23.340  0.00  0.00    -0.272 OA
ATOM     19  N   UNL     1      35.348 -17.812 -22.308  0.00  0.00    -0.271 N 
ATOM     20  C   UNL     1      34.466 -16.727 -22.308  0.00  0.00    +0.256 C 
BRANCH  20  23
ATOM     21 CL   UNL     1      34.818 -14.466 -20.952  0.00  0.00    -0.087 Cl
ATOM     22 CL   UNL     1      32.377 -16.052 -20.758  0.00  0.00    -0.087 Cl
ATOM     23  C   UNL     1      34.144 -16.105 -20.961  0.00  0.00    +0.234 C 
ENDBRANCH  20  23
BRANCH  19  24
ATOM     24  C   UNL     1      35.662 -18.485 -23.562  0.00  0.00    +0.125 C 
BRANCH  24  25
ATOM     25  C   UNL     1      34.411 -19.010 -24.242  0.00  0.00    +0.159 C 
BRANCH  25  26
ATOM     26  O   UNL     1      34.177 -18.273 -25.434  0.00  0.00    -0.380 OA
ATOM     27  H   UNL     1      35.024 -17.986 -25.809  0.00  0.00    +0.211 HD
ENDBRANCH  25  26
ENDBRANCH  24  25
ENDBRANCH  19  24
ENDBRANCH  17  19
ENDBRANCH   1  17
TORSDOF 9
ENDMDL
MODEL 2
REMARK VINA RESULT:      -9.5      5.810     10.415
REMARK  Name = 71819
REMARK  9 active torsions:
REMARK  status: ('A' for Active; 'I' for Inactive)
REMARK    1  A    between atoms: C_1  and  C_17
REMARK    2  A    between atoms: C_4  and  O_7
REMARK    3  A    between atoms: O_7  and  C_8
REMARK    4  A    between atoms: C_11  and  N_16
REMARK    5  A    between atoms: C_17  and  N_19
REMARK    6  A    between atoms: N_19  and  C_24
REMARK    7  A    between atoms: C_20  and  C_23
REMARK    8  A    between atoms: C_24  and  C_25
REMARK    9  A    between atoms: C_25  and  O_26
REMARK                            x       y       z     vdW  Elec       q    Type
REMARK                         _______ _______ _______ _____ _____    ______ ____
ROOT
ATOM      1  C   UNL     1      34.250 -14.943 -22.476  0.00  0.00    -0.002 C 
ATOM      2  C   UNL     1      33.399 -15.076 -21.386  0.00  0.00    +0.001 C 
ATOM      3  C   UNL     1      34.073 -13.915 -23.394  0.00  0.00    +0.001 C 
ATOM      4  C   UNL     1      32.168 -13.135 -22.128  0.00  0.00    +0.145 C 
ATOM      5  C   UNL     1      32.354 -14.170 -21.211  0.00  0.00    +0.037 C 
ATOM      6  C   UNL     1      33.028 -13.007 -23.219  0.00  0.00    +0.037 C 
ENDROOT
BRANCH   4   7
ATOM      7  O   UNL     1      31.148 -12.249 -21.959  0.00  0.00    -0.453 OA
BRANCH   7   8
ATOM      8  C   UNL     1      31.474 -10.959 -21.575  0.00  0.00    +0.145 C 
ATOM      9  C   UNL     1      31.604 -10.669 -20.229  0.00  0.00    +0.039 C 
ATOM     10  C   UNL     1      31.664  -9.995 -22.548  0.00  0.00    +0.039 C 
ATOM     11  C   UNL     1      32.128  -8.383 -20.809  0.00  0.00    +0.143 C 
ATOM     12  C   UNL     1      31.934  -9.369 -19.843  0.00  0.00    +0.027 C 
ATOM     13  C   UNL     1      31.993  -8.696 -22.162  0.00  0.00    +0.027 C 
BRANCH  11  16
ATOM     14  O   UNL     1      32.122  -6.102 -21.151  0.00  0.00    -0.126 OA
ATOM     15  O   UNL     1      33.088  -6.885 -19.342  0.00  0.00    -0.126 OA
ATOM     16  N   UNL     1      32.462  -7.060 -20.416  0.00  0.00    +0.058 N 
ENDBRANCH  11  16
ENDBRANCH   7   8
ENDBRANCH   4   7
BRANCH   1  17
ATOM     17  C   UNL     1      35.375 -15.919 -22.663  0.00  0.00    +0.120 C 
BRANCH  17  19
ATOM     18  O   UNL     1      34.293 -19.257 -23.715  0.00  0.00    -0.272 OA
ATOM     19  N   UNL     1      34.979 -17.058 -23.485  0.00  0.00    -0.271 N 
ATOM     20  C   UNL     1      34.622 -18.316 -22.987  0.00  0.00    +0.256 C 
BRANCH  20  23
ATOM     21 CL   UNL     1      33.442 -19.714 -21.057  0.00  0.00    -0.087 Cl
ATOM     22 CL   UNL     1      36.274 -19.022 -20.989  0.00  0.00    -0.087 Cl
ATOM     23  C   UNL     1      34.650 -18.488 -21.479  0.00  0.00    +0.234 C 
ENDBRANCH  20  23
BRANCH  19  24
ATOM     24  C   UNL     1      35.020 -16.840 -24.926  0.00  0.00    +0.125 C 
BRANCH  24  25
ATOM     25  C   UNL     1      33.639 -16.550 -25.485  0.00  0.00    +0.159 C 
BRANCH  25  26
ATOM     26  O   UNL     1      33.739 -15.566 -26.505  0.00  0.00    -0.380 OA
ATOM     27  H   UNL     1      34.171 -15.950 -27.284  0.00  0.00    +0.211 HD
ENDBRANCH  25  26
ENDBRANCH  24  25
ENDBRANCH  19  24
ENDBRANCH  17  19
ENDBRANCH   1  17
TORSDOF 9
ENDMDL
MODEL 3
REMARK VINA RESULT:      -9.4      4.626      9.295
REMARK  Name = 71819
REMARK  9 active torsions:
REMARK  status: ('A' for Active; 'I' for Inactive)
REMARK    1  A    between atoms: C_1  and  C_17
REMARK    2  A    between atoms: C_4  and  O_7
REMARK    3  A    between atoms: O_7  and  C_8
REMARK    4  A    between atoms: C_11  and  N_16
REMARK    5  A    between atoms: C_17  and  N_19
REMARK    6  A    between atoms: N_19  and  C_24
REMARK    7  A    between atoms: C_20  and  C_23
REMARK    8  A    between atoms: C_24  and  C_25
REMARK    9  A    between atoms: C_25  and  O_26
REMARK                            x       y       z     vdW  Elec       q    Type
REMARK                         _______ _______ _______ _____ _____    ______ ____
ROOT
ATOM      1  C   UNL     1      36.446 -22.813 -15.786  0.00  0.00    -0.002 C 
ATOM      2  C   UNL     1      36.970 -22.168 -16.899  0.00  0.00    +0.001 C 
ATOM      3  C   UNL     1      35.140 -23.285 -15.788  0.00  0.00    +0.001 C 
ATOM      4  C   UNL     1      34.862 -22.460 -18.042  0.00  0.00    +0.145 C 
ATOM      5  C   UNL     1      36.175 -21.989 -18.031  0.00  0.00    +0.037 C 
ATOM      6  C   UNL     1      34.344 -23.108 -16.921  0.00  0.00    +0.037 C 
ENDROOT
BRANCH   4   7
ATOM      7  O   UNL     1      34.085 -22.287 -19.147  0.00  0.00    -0.453 OA
BRANCH   7   8
ATOM      8  C   UNL     1      34.241 -21.113 -19.865  0.00  0.00    +0.145 C 
ATOM      9  C   UNL     1      35.509 -20.731 -20.264  0.00  0.00    +0.039 C 
ATOM     10  C   UNL     1      33.124 -20.356 -20.168  0.00  0.00    +0.039 C 
ATOM     11  C   UNL     1      34.552 -18.771 -21.303  0.00  0.00    +0.143 C 
ATOM     12  C   UNL     1      35.665 -19.549 -20.989  0.00  0.00    +0.027 C 
ATOM     13  C   UNL     1      33.281 -19.175 -20.892  0.00  0.00    +0.027 C 
BRANCH  11  16
ATOM     14  O   UNL     1      34.984 -16.509 -21.424  0.00  0.00    -0.126 OA
ATOM     15  O   UNL     1      34.576 -17.595 -23.287  0.00  0.00    -0.126 OA
ATOM     16  N   UNL     1      34.712 -17.567 -22.039  0.00  0.00    +0.058 N 
ENDBRANCH  11  16
ENDBRANCH   7   8
ENDBRANCH   4   7
BRANCH   1  17
ATOM     17  C   UNL     1      37.303 -23.005 -14.568  0.00  0.00    +0.120 C 
BRANCH  17  19
ATOM     18  O   UNL     1      36.815 -26.055 -12.597  0.00  0.00    -0.272 OA
ATOM     19  N   UNL     1      37.326 -24.397 -14.130  0.00  0.00    -0.271 N 
ATOM     20  C   UNL     1      36.774 -24.867 -12.934  0.00  0.00    +0.256 C 
BRANCH  20  23
ATOM     21 CL   UNL     1      35.398 -24.707 -10.664  0.00  0.00    -0.087 Cl
ATOM     22 CL   UNL     1      37.324 -22.675 -11.481  0.00  0.00    -0.087 Cl
ATOM     23  C   UNL     1      36.102 -23.841 -12.040  0.00  0.00    +0.234 C 
ENDBRANCH  20  23
BRANCH  19  24
ATOM     24  C   UNL     1      38.028 -25.322 -15.012  0.00  0.00    +0.125 C 
BRANCH  24  25
ATOM     25  C   UNL     1      39.528 -25.275 -14.790  0.00  0.00    +0.159 C 
BRANCH  25  26
ATOM     26  O   UNL     1      40.193 -25.748 -15.953  0.00  0.00    -0.380 OA
ATOM     27  H   UNL     1      39.599 -25.679 -16.717  0.00  0.00    +0.211 HD
ENDBRANCH  25  26
ENDBRANCH  24  25
ENDBRANCH  19  24
ENDBRANCH  17  19
ENDBRANCH   1  17
TORSDOF 9
ENDMDL
MODEL 4
REMARK VINA RESULT:      -9.4      3.508      5.782
REMARK  Name = 71819
REMARK  9 active torsions:
REMARK  status: ('A' for Active; 'I' for Inactive)
REMARK    1  A    between atoms: C_1  and  C_17
REMARK    2  A    between atoms: C_4  and  O_7
REMARK    3  A    between atoms: O_7  and  C_8
REMARK    4  A    between atoms: C_11  and  N_16
REMARK    5  A    between atoms: C_17  and  N_19
REMARK    6  A    between atoms: N_19  and  C_24
REMARK    7  A    between atoms: C_20  and  C_23
REMARK    8  A    between atoms: C_24  and  C_25
REMARK    9  A    between atoms: C_25  and  O_26
REMARK                            x       y       z     vdW  Elec       q    Type
REMARK                         _______ _______ _______ _____ _____    ______ ____
ROOT
ATOM      1  C   UNL     1      33.504 -15.140 -23.492  0.00  0.00    -0.002 C 
ATOM      2  C   UNL     1      34.064 -16.074 -24.355  0.00  0.00    +0.001 C 
ATOM      3  C   UNL     1      33.789 -15.167 -22.133  0.00  0.00    +0.001 C 
ATOM      4  C   UNL     1      35.214 -17.087 -22.487  0.00  0.00    +0.145 C 
ATOM      5  C   UNL     1      34.921 -17.051 -23.851  0.00  0.00    +0.037 C 
ATOM      6  C   UNL     1      34.648 -16.144 -21.628  0.00  0.00    +0.037 C 
ENDROOT
BRANCH   4   7
ATOM      7  O   UNL     1      36.051 -18.041 -21.994  0.00  0.00    -0.453 OA
BRANCH   7   8
ATOM      8  C   UNL     1      35.490 -19.072 -21.261  0.00  0.00    +0.145 C 
ATOM      9  C   UNL     1      36.315 -19.904 -20.527  0.00  0.00    +0.039 C 
ATOM     10  C   UNL     1      34.117 -19.242 -21.281  0.00  0.00    +0.039 C 
ATOM     11  C   UNL     1      34.366 -21.132 -19.795  0.00  0.00    +0.143 C 
ATOM     12  C   UNL     1      35.748 -20.944 -19.788  0.00  0.00    +0.027 C 
ATOM     13  C   UNL     1      33.551 -20.281 -20.542  0.00  0.00    +0.027 C 
BRANCH  11  16
ATOM     14  O   UNL     1      34.502 -23.177 -18.739  0.00  0.00    -0.126 OA
ATOM     15  O   UNL     1      32.584 -22.109 -18.706  0.00  0.00    -0.126 OA
ATOM     16  N   UNL     1      33.790 -22.190 -19.044  0.00  0.00    +0.058 N 
ENDBRANCH  11  16
ENDBRANCH   7   8
ENDBRANCH   4   7
BRANCH   1  17
ATOM     17  C   UNL     1      32.581 -14.087 -24.035  0.00  0.00    +0.120 C 
BRANCH  17  19
ATOM     18  O   UNL     1      33.210 -10.667 -22.884  0.00  0.00    -0.272 OA
ATOM     19  N   UNL     1      33.140 -12.746 -23.899  0.00  0.00    -0.271 N 
ATOM     20  C   UNL     1      32.711 -11.793 -22.969  0.00  0.00    +0.256 C 
BRANCH  20  23
ATOM     21 CL   UNL     1      32.311 -12.759 -20.523  0.00  0.00    -0.087 Cl
ATOM     22 CL   UNL     1      30.536 -10.794 -21.747  0.00  0.00    -0.087 Cl
ATOM     23  C   UNL     1      31.582 -12.203 -22.040  0.00  0.00    +0.234 C 
ENDBRANCH  20  23
BRANCH  19  24
ATOM     24  C   UNL     1      34.188 -12.401 -24.851  0.00  0.00    +0.125 C 
BRANCH  24  25
ATOM     25  C   UNL     1      33.610 -12.007 -26.198  0.00  0.00    +0.159 C 
BRANCH  25  26
ATOM     26  O   UNL     1      33.747 -13.092 -27.106  0.00  0.00    -0.380 OA
ATOM     27  H   UNL     1      32.875 -13.482 -27.279  0.00  0.00    +0.211 HD
ENDBRANCH  25  26
ENDBRANCH  24  25
ENDBRANCH  19  24
ENDBRANCH  17  19
ENDBRANCH   1  17
TORSDOF 9
ENDMDL
MODEL 5
REMARK VINA RESULT:      -9.3      3.583      5.535
REMARK  Name = 71819
REMARK  9 active torsions:
REMARK  status: ('A' for Active; 'I' for Inactive)
REMARK    1  A    between atoms: C_1  and  C_17
REMARK    2  A    between atoms: C_4  and  O_7
REMARK    3  A    between atoms: O_7  and  C_8
REMARK    4  A    between atoms: C_11  and  N_16
REMARK    5  A    between atoms: C_17  and  N_19
REMARK    6  A    between atoms: N_19  and  C_24
REMARK    7  A    between atoms: C_20  and  C_23
REMARK    8  A    between atoms: C_24  and  C_25
REMARK    9  A    between atoms: C_25  and  O_26
REMARK                            x       y       z     vdW  Elec       q    Type
REMARK                         _______ _______ _______ _____ _____    ______ ____
ROOT
ATOM      1  C   UNL     1      33.845 -14.975 -22.758  0.00  0.00    -0.002 C 
ATOM      2  C   UNL     1      34.148 -15.193 -21.420  0.00  0.00    +0.001 C 
ATOM      3  C   UNL     1      34.272 -15.864 -23.736  0.00  0.00    +0.001 C 
ATOM      4  C   UNL     1      35.324 -17.213 -22.029  0.00  0.00    +0.145 C 
ATOM      5  C   UNL     1      34.890 -16.315 -21.054  0.00  0.00    +0.037 C 
ATOM      6  C   UNL     1      35.014 -16.988 -23.370  0.00  0.00    +0.037 C 
ENDROOT
BRANCH   4   7
ATOM      7  O   UNL     1      36.048 -18.309 -21.673  0.00  0.00    -0.453 OA
BRANCH   7   8
ATOM      8  C   UNL     1      35.389 -19.326 -21.004  0.00  0.00    +0.145 C 
ATOM      9  C   UNL     1      34.012 -19.417 -21.104  0.00  0.00    +0.039 C 
ATOM     10  C   UNL     1      36.124 -20.228 -20.255  0.00  0.00    +0.039 C 
ATOM     11  C   UNL     1      34.072 -21.361 -19.670  0.00  0.00    +0.143 C 
ATOM     12  C   UNL     1      33.348 -20.443 -20.430  0.00  0.00    +0.027 C 
ATOM     13  C   UNL     1      35.461 -21.253 -19.582  0.00  0.00    +0.027 C 
BRANCH  11  16
ATOM     14  O   UNL     1      33.881 -23.560 -19.004  0.00  0.00    -0.126 OA
ATOM     15  O   UNL     1      32.330 -22.139 -18.374  0.00  0.00    -0.126 OA
ATOM     16  N   UNL     1      33.396 -22.403 -18.983  0.00  0.00    +0.058 N 
ENDBRANCH  11  16
ENDBRANCH   7   8
ENDBRANCH   4   7
BRANCH   1  17
ATOM     17  C   UNL     1      33.046 -13.767 -23.151  0.00  0.00    +0.120 C 
BRANCH  17  19
ATOM     18  O   UNL     1      34.095 -11.626 -25.933  0.00  0.00    -0.272 OA
ATOM     19  N   UNL     1      33.394 -13.292 -24.487  0.00  0.00    -0.271 N 
ATOM     20  C   UNL     1      33.809 -11.991 -24.788  0.00  0.00    +0.256 C 
BRANCH  20  23
ATOM     21 CL   UNL     1      34.931  -9.668 -24.142  0.00  0.00    -0.087 Cl
ATOM     22 CL   UNL     1      32.268 -10.434 -23.232  0.00  0.00    -0.087 Cl
ATOM     23  C   UNL     1      33.902 -11.016 -23.629  0.00  0.00    +0.234 C 
ENDBRANCH  20  23
BRANCH  19  24
ATOM     24  C   UNL     1      33.238 -14.265 -25.561  0.00  0.00    +0.125 C 
BRANCH  24  25
ATOM     25  C   UNL     1      32.766 -13.608 -26.845  0.00  0.00    +0.159 C 
BRANCH  25  26
ATOM     26  O   UNL     1      33.804 -13.665 -27.814  0.00  0.00    -0.380 OA
ATOM     27  H   UNL     1      33.831 -14.551 -28.208  0.00  0.00    +0.211 HD
ENDBRANCH  25  26
ENDBRANCH  24  25
ENDBRANCH  19  24
ENDBRANCH  17  19
ENDBRANCH   1  17
TORSDOF 9
ENDMDL
MODEL 6
REMARK VINA RESULT:      -9.3      4.552      9.752
REMARK  Name = 71819
REMARK  9 active torsions:
REMARK  status: ('A' for Active; 'I' for Inactive)
REMARK    1  A    between atoms: C_1  and  C_17
REMARK    2  A    between atoms: C_4  and  O_7
REMARK    3  A    between atoms: O_7  and  C_8
REMARK    4  A    between atoms: C_11  and  N_16
REMARK    5  A    between atoms: C_17  and  N_19
REMARK    6  A    between atoms: N_19  and  C_24
REMARK    7  A    between atoms: C_20  and  C_23
REMARK    8  A    between atoms: C_24  and  C_25
REMARK    9  A    between atoms: C_25  and  O_26
REMARK                            x       y       z     vdW  Elec       q    Type
REMARK                         _______ _______ _______ _____ _____    ______ ____
ROOT
ATOM      1  C   UNL     1      36.032 -22.902 -15.010  0.00  0.00    -0.002 C 
ATOM      2  C   UNL     1      34.751 -23.415 -15.164  0.00  0.00    +0.001 C 
ATOM      3  C   UNL     1      36.719 -22.368 -16.095  0.00  0.00    +0.001 C 
ATOM      4  C   UNL     1      34.827 -22.863 -17.515  0.00  0.00    +0.145 C 
ATOM      5  C   UNL     1      34.146 -23.396 -16.421  0.00  0.00    +0.037 C 
ATOM      6  C   UNL     1      36.114 -22.349 -17.352  0.00  0.00    +0.037 C 
ENDROOT
BRANCH   4   7
ATOM      7  O   UNL     1      34.238 -22.844 -18.742  0.00  0.00    -0.453 OA
BRANCH   7   8
ATOM      8  C   UNL     1      34.342 -21.682 -19.487  0.00  0.00    +0.145 C 
ATOM      9  C   UNL     1      35.589 -21.261 -19.909  0.00  0.00    +0.039 C 
ATOM     10  C   UNL     1      33.193 -20.974 -19.793  0.00  0.00    +0.039 C 
ATOM     11  C   UNL     1      34.548 -19.361 -20.979  0.00  0.00    +0.143 C 
ATOM     12  C   UNL     1      35.693 -20.090 -20.661  0.00  0.00    +0.027 C 
ATOM     13  C   UNL     1      33.297 -19.804 -20.545  0.00  0.00    +0.027 C 
BRANCH  11  16
ATOM     14  O   UNL     1      34.805 -17.076 -21.146  0.00  0.00    -0.126 OA
ATOM     15  O   UNL     1      34.593 -18.242 -22.994  0.00  0.00    -0.126 OA
ATOM     16  N   UNL     1      34.654 -18.169 -21.742  0.00  0.00    +0.058 N 
ENDBRANCH  11  16
ENDBRANCH   7   8
ENDBRANCH   4   7
BRANCH   1  17
ATOM     17  C   UNL     1      36.683 -22.921 -13.657  0.00  0.00    +0.120 C 
BRANCH  17  19
ATOM     18  O   UNL     1      36.727 -26.421 -12.576  0.00  0.00    -0.272 OA
ATOM     19  N   UNL     1      36.402 -24.157 -12.934  0.00  0.00    -0.271 N 
ATOM     20  C   UNL     1      36.991 -25.396 -13.211  0.00  0.00    +0.256 C 
BRANCH  20  23
ATOM     21 CL   UNL     1      39.603 -25.653 -13.637  0.00  0.00    -0.087 Cl
ATOM     22 CL   UNL     1      37.600 -26.803 -15.418  0.00  0.00    -0.087 Cl
ATOM     23  C   UNL     1      37.995 -25.437 -14.349  0.00  0.00    +0.234 C 
ENDBRANCH  20  23
BRANCH  19  24
ATOM     24  C   UNL     1      35.394 -24.058 -11.885  0.00  0.00    +0.125 C 
BRANCH  24  25
ATOM     25  C   UNL     1      36.027 -23.847 -10.522  0.00  0.00    +0.159 C 
BRANCH  25  26
ATOM     26  O   UNL     1      35.327 -24.616  -9.553  0.00  0.00    -0.380 OA
ATOM     27  H   UNL     1      34.602 -24.089  -9.182  0.00  0.00    +0.211 HD
ENDBRANCH  25  26
ENDBRANCH  24  25
ENDBRANCH  19  24
ENDBRANCH  17  19
ENDBRANCH   1  17
TORSDOF 9
ENDMDL
MODEL 7
REMARK VINA RESULT:      -9.3      3.886      6.387
REMARK  Name = 71819
REMARK  9 active torsions:
REMARK  status: ('A' for Active; 'I' for Inactive)
REMARK    1  A    between atoms: C_1  and  C_17
REMARK    2  A    between atoms: C_4  and  O_7
REMARK    3  A    between atoms: O_7  and  C_8
REMARK    4  A    between atoms: C_11  and  N_16
REMARK    5  A    between atoms: C_17  and  N_19
REMARK    6  A    between atoms: N_19  and  C_24
REMARK    7  A    between atoms: C_20  and  C_23
REMARK    8  A    between atoms: C_24  and  C_25
REMARK    9  A    between atoms: C_25  and  O_26
REMARK                            x       y       z     vdW  Elec       q    Type
REMARK                         _______ _______ _______ _____ _____    ______ ____
ROOT
ATOM      1  C   UNL     1      33.424 -14.796 -23.293  0.00  0.00    -0.002 C 
ATOM      2  C   UNL     1      34.063 -15.664 -24.170  0.00  0.00    +0.001 C 
ATOM      3  C   UNL     1      33.617 -14.902 -21.921  0.00  0.00    +0.001 C 
ATOM      4  C   UNL     1      35.108 -16.768 -22.292  0.00  0.00    +0.145 C 
ATOM      5  C   UNL     1      34.908 -16.654 -23.668  0.00  0.00    +0.037 C 
ATOM      6  C   UNL     1      34.463 -15.892 -21.419  0.00  0.00    +0.037 C 
ENDROOT
BRANCH   4   7
ATOM      7  O   UNL     1      35.932 -17.734 -21.801  0.00  0.00    -0.453 OA
BRANCH   7   8
ATOM      8  C   UNL     1      35.346 -18.829 -21.189  0.00  0.00    +0.145 C 
ATOM      9  C   UNL     1      33.969 -18.955 -21.208  0.00  0.00    +0.039 C 
ATOM     10  C   UNL     1      36.154 -19.771 -20.577  0.00  0.00    +0.039 C 
ATOM     11  C   UNL     1      34.177 -21.019 -19.969  0.00  0.00    +0.143 C 
ATOM     12  C   UNL     1      33.380 -20.059 -20.592  0.00  0.00    +0.027 C 
ATOM     13  C   UNL     1      35.565 -20.875 -19.962  0.00  0.00    +0.027 C 
BRANCH  11  16
ATOM     14  O   UNL     1      34.141 -23.259 -19.423  0.00  0.00    -0.126 OA
ATOM     15  O   UNL     1      32.496 -21.986 -18.722  0.00  0.00    -0.126 OA
ATOM     16  N   UNL     1      33.576 -22.142 -19.341  0.00  0.00    +0.058 N 
ENDBRANCH  11  16
ENDBRANCH   7   8
ENDBRANCH   4   7
BRANCH   1  17
ATOM     17  C   UNL     1      32.515 -13.730 -23.834  0.00  0.00    +0.120 C 
BRANCH  17  19
ATOM     18  O   UNL     1      33.947 -10.381 -23.442  0.00  0.00    -0.272 OA
ATOM     19  N   UNL     1      32.843 -12.411 -23.303  0.00  0.00    -0.271 N 
ATOM     20  C   UNL     1      33.693 -11.490 -23.924  0.00  0.00    +0.256 C 
BRANCH  20  23
ATOM     21 CL   UNL     1      32.980 -12.183 -26.390  0.00  0.00    -0.087 Cl
ATOM     22 CL   UNL     1      35.367 -10.603 -25.829  0.00  0.00    -0.087 Cl
ATOM     23  C   UNL     1      34.306 -11.908 -25.247  0.00  0.00    +0.234 C 
ENDBRANCH  20  23
BRANCH  19  24
ATOM     24  C   UNL     1      32.258 -12.092 -22.006  0.00  0.00    +0.125 C 
BRANCH  24  25
ATOM     25  C   UNL     1      31.043 -11.194 -22.149  0.00  0.00    +0.159 C 
BRANCH  25  26
ATOM     26  O   UNL     1      31.432  -9.840 -21.960  0.00  0.00    -0.380 OA
ATOM     27  H   UNL     1      32.383  -9.799 -21.772  0.00  0.00    +0.211 HD
ENDBRANCH  25  26
ENDBRANCH  24  25
ENDBRANCH  19  24
ENDBRANCH  17  19
ENDBRANCH   1  17
TORSDOF 9
ENDMDL
MODEL 8
REMARK VINA RESULT:      -9.2      1.022      1.496
REMARK  Name = 71819
REMARK  9 active torsions:
REMARK  status: ('A' for Active; 'I' for Inactive)
REMARK    1  A    between atoms: C_1  and  C_17
REMARK    2  A    between atoms: C_4  and  O_7
REMARK    3  A    between atoms: O_7  and  C_8
REMARK    4  A    between atoms: C_11  and  N_16
REMARK    5  A    between atoms: C_17  and  N_19
REMARK    6  A    between atoms: N_19  and  C_24
REMARK    7  A    between atoms: C_20  and  C_23
REMARK    8  A    between atoms: C_24  and  C_25
REMARK    9  A    between atoms: C_25  and  O_26
REMARK                            x       y       z     vdW  Elec       q    Type
REMARK                         _______ _______ _______ _____ _____    ______ ____
ROOT
ATOM      1  C   UNL     1      33.905 -19.416 -20.937  0.00  0.00    -0.002 C 
ATOM      2  C   UNL     1      35.265 -19.616 -20.736  0.00  0.00    +0.001 C 
ATOM      3  C   UNL     1      32.972 -20.295 -20.401  0.00  0.00    +0.001 C 
ATOM      4  C   UNL     1      34.770 -21.598 -19.448  0.00  0.00    +0.145 C 
ATOM      5  C   UNL     1      35.700 -20.710 -19.990  0.00  0.00    +0.037 C 
ATOM      6  C   UNL     1      33.406 -21.390 -19.653  0.00  0.00    +0.037 C 
ENDROOT
BRANCH   4   7
ATOM      7  O   UNL     1      35.193 -22.667 -18.719  0.00  0.00    -0.453 OA
BRANCH   7   8
ATOM      8  C   UNL     1      34.577 -22.899 -17.501  0.00  0.00    +0.145 C 
ATOM      9  C   UNL     1      33.229 -23.207 -17.475  0.00  0.00    +0.039 C 
ATOM     10  C   UNL     1      35.327 -22.820 -16.341  0.00  0.00    +0.039 C 
ATOM     11  C   UNL     1      33.347 -23.364 -15.067  0.00  0.00    +0.143 C 
ATOM     12  C   UNL     1      32.608 -23.440 -16.247  0.00  0.00    +0.027 C 
ATOM     13  C   UNL     1      34.707 -23.054 -15.114  0.00  0.00    +0.027 C 
BRANCH  11  16
ATOM     14  O   UNL     1      33.291 -24.327 -12.973  0.00  0.00    -0.126 OA
ATOM     15  O   UNL     1      31.597 -23.077 -13.593  0.00  0.00    -0.126 OA
ATOM     16  N   UNL     1      32.715 -23.601 -13.818  0.00  0.00    +0.058 N 
ENDBRANCH  11  16
ENDBRANCH   7   8
ENDBRANCH   4   7
BRANCH   1  17
ATOM     17  C   UNL     1      33.438 -18.237 -21.740  0.00  0.00    +0.120 C 
BRANCH  17  19
ATOM     18  O   UNL     1      35.710 -15.978 -23.517  0.00  0.00    -0.272 OA
ATOM     19  N   UNL     1      34.485 -17.725 -22.619  0.00  0.00    -0.271 N 
ATOM     20  C   UNL     1      34.816 -16.373 -22.761  0.00  0.00    +0.256 C 
BRANCH  20  23
ATOM     21 CL   UNL     1      34.752 -15.327 -20.317  0.00  0.00    -0.087 Cl
ATOM     22 CL   UNL     1      34.105 -13.783 -22.706  0.00  0.00    -0.087 Cl
ATOM     23  C   UNL     1      34.022 -15.382 -21.931  0.00  0.00    +0.234 C 
ENDBRANCH  20  23
BRANCH  19  24
ATOM     24  C   UNL     1      35.177 -18.725 -23.423  0.00  0.00    +0.125 C 
BRANCH  24  25
ATOM     25  C   UNL     1      34.442 -19.004 -24.720  0.00  0.00    +0.159 C 
BRANCH  25  26
ATOM     26  O   UNL     1      34.529 -17.865 -25.567  0.00  0.00    -0.380 OA
ATOM     27  H   UNL     1      34.298 -18.118 -26.474  0.00  0.00    +0.211 HD
ENDBRANCH  25  26
ENDBRANCH  24  25
ENDBRANCH  19  24
ENDBRANCH  17  19
ENDBRANCH   1  17
TORSDOF 9
ENDMDL
MODEL 9
REMARK VINA RESULT:      -9.2      4.227      9.261
REMARK  Name = 71819
REMARK  9 active torsions:
REMARK  status: ('A' for Active; 'I' for Inactive)
REMARK    1  A    between atoms: C_1  and  C_17
REMARK    2  A    between atoms: C_4  and  O_7
REMARK    3  A    between atoms: O_7  and  C_8
REMARK    4  A    between atoms: C_11  and  N_16
REMARK    5  A    between atoms: C_17  and  N_19
REMARK    6  A    between atoms: N_19  and  C_24
REMARK    7  A    between atoms: C_20  and  C_23
REMARK    8  A    between atoms: C_24  and  C_25
REMARK    9  A    between atoms: C_25  and  O_26
REMARK                            x       y       z     vdW  Elec       q    Type
REMARK                         _______ _______ _______ _____ _____    ______ ____
ROOT
ATOM      1  C   UNL     1      35.725 -22.579 -16.127  0.00  0.00    -0.002 C 
ATOM      2  C   UNL     1      36.830 -21.988 -16.727  0.00  0.00    +0.001 C 
ATOM      3  C   UNL     1      34.586 -22.872 -16.867  0.00  0.00    +0.001 C 
ATOM      4  C   UNL     1      35.656 -21.973 -18.839  0.00  0.00    +0.145 C 
ATOM      5  C   UNL     1      36.796 -21.684 -18.088  0.00  0.00    +0.037 C 
ATOM      6  C   UNL     1      34.552 -22.568 -18.228  0.00  0.00    +0.037 C 
ENDROOT
BRANCH   4   7
ATOM      7  O   UNL     1      35.622 -21.677 -20.167  0.00  0.00    -0.453 OA
BRANCH   7   8
ATOM      8  C   UNL     1      35.249 -20.393 -20.530  0.00  0.00    +0.145 C 
ATOM      9  C   UNL     1      36.230 -19.468 -20.838  0.00  0.00    +0.039 C 
ATOM     10  C   UNL     1      33.904 -20.071 -20.577  0.00  0.00    +0.039 C 
ATOM     11  C   UNL     1      34.503 -17.831 -21.257  0.00  0.00    +0.143 C 
ATOM     12  C   UNL     1      35.853 -18.176 -21.204  0.00  0.00    +0.027 C 
ATOM     13  C   UNL     1      33.529 -18.779 -20.943  0.00  0.00    +0.027 C 
BRANCH  11  16
ATOM     14  O   UNL     1      33.036 -16.053 -21.201  0.00  0.00    -0.126 OA
ATOM     15  O   UNL     1      34.880 -15.849 -22.374  0.00  0.00    -0.126 OA
ATOM     16  N   UNL     1      34.121 -16.515 -21.628  0.00  0.00    +0.058 N 
ENDBRANCH  11  16
ENDBRANCH   7   8
ENDBRANCH   4   7
BRANCH   1  17
ATOM     17  C   UNL     1      35.763 -22.907 -14.662  0.00  0.00    +0.120 C 
BRANCH  17  19
ATOM     18  O   UNL     1      36.681 -26.376 -13.925  0.00  0.00    -0.272 OA
ATOM     19  N   UNL     1      35.688 -24.345 -14.422  0.00  0.00    -0.271 N 
ATOM     20  C   UNL     1      36.784 -25.161 -14.121  0.00  0.00    +0.256 C 
BRANCH  20  23
ATOM     21 CL   UNL     1      38.532 -24.275 -12.323  0.00  0.00    -0.087 Cl
ATOM     22 CL   UNL     1      39.351 -25.520 -14.830  0.00  0.00    -0.087 Cl
ATOM     23  C   UNL     1      38.140 -24.485 -14.039  0.00  0.00    +0.234 C 
ENDBRANCH  20  23
BRANCH  19  24
ATOM     24  C   UNL     1      34.365 -24.939 -14.563  0.00  0.00    +0.125 C 
BRANCH  24  25
ATOM     25  C   UNL     1      33.347 -24.251 -13.673  0.00  0.00    +0.159 C 
BRANCH  25  26
ATOM     26  O   UNL     1      32.410 -25.209 -13.198  0.00  0.00    -0.380 OA
ATOM     27  H   UNL     1      32.851 -26.066 -13.091  0.00  0.00    +0.211 HD
ENDBRANCH  25  26
ENDBRANCH  24  25
ENDBRANCH  19  24
ENDBRANCH  17  19
ENDBRANCH   1  17
TORSDOF 9
ENDMDL
