MODEL 1
REMARK VINA RESULT:      -5.7      0.000      0.000
REMARK  Name = 6432
REMARK  2 active torsions:
REMARK  status: ('A' for Active; 'I' for Inactive)
REMARK    1  A    between atoms: C_3  and  C_7
REMARK    2  A    between atoms: C_3  and  C_11
REMARK                            x       y       z     vdW  Elec       q    Type
REMARK                         _______ _______ _______ _____ _____    ______ ____
ROOT
ATOM      1  F   UNL     1      34.852 -15.925 -20.291  0.00  0.00    -0.186 F 
ATOM      2  F   UNL     1      33.782 -17.505 -21.341  0.00  0.00    -0.186 F 
ATOM      3  C   UNL     1      33.941 -16.158 -21.269  0.00  0.00    +0.434 C 
ENDROOT
BRANCH   3   7
ATOM      4  F   UNL     1      32.105 -14.809 -21.888  0.00  0.00    -0.165 F 
ATOM      5  F   UNL     1      32.792 -14.705 -19.820  0.00  0.00    -0.165 F 
ATOM      6  F   UNL     1      31.721 -16.469 -20.524  0.00  0.00    -0.165 F 
ATOM      7  C   UNL     1      32.627 -15.532 -20.875  0.00  0.00    +0.463 C 
ENDBRANCH   3   7
BRANCH   3  11
ATOM      8  F   UNL     1      35.634 -16.304 -22.893  0.00  0.00    -0.165 F 
ATOM      9  F   UNL     1      33.615 -15.863 -23.588  0.00  0.00    -0.165 F 
ATOM     10  F   UNL     1      34.762 -14.339 -22.529  0.00  0.00    -0.165 F 
ATOM     11  C   UNL     1      34.489 -15.659 -22.580  0.00  0.00    +0.463 C 
ENDBRANCH   3  11
TORSDOF 2
ENDMDL
MODEL 2
REMARK VINA RESULT:      -5.7      0.033      3.170
REMARK  Name = 6432
REMARK  2 active torsions:
REMARK  status: ('A' for Active; 'I' for Inactive)
REMARK    1  A    between atoms: C_3  and  C_7
REMARK    2  A    between atoms: C_3  and  C_11
REMARK                            x       y       z     vdW  Elec       q    Type
REMARK                         _______ _______ _______ _____ _____    ______ ____
ROOT
ATOM      1  F   UNL     1      33.780 -17.516 -21.302  0.00  0.00    -0.186 F 
ATOM      2  F   UNL     1      34.849 -15.921 -20.272  0.00  0.00    -0.186 F 
ATOM      3  C   UNL     1      33.941 -16.170 -21.251  0.00  0.00    +0.434 C 
ENDROOT
BRANCH   3   7
ATOM      4  F   UNL     1      33.633 -15.917 -23.577  0.00  0.00    -0.165 F 
ATOM      5  F   UNL     1      35.649 -16.336 -22.858  0.00  0.00    -0.165 F 
ATOM      6  F   UNL     1      34.764 -14.368 -22.536  0.00  0.00    -0.165 F 
ATOM      7  C   UNL     1      34.498 -15.692 -22.567  0.00  0.00    +0.463 C 
ENDBRANCH   3   7
BRANCH   3  11
ATOM      8  F   UNL     1      32.792 -14.688 -19.832  0.00  0.00    -0.165 F 
ATOM      9  F   UNL     1      32.113 -14.824 -21.900  0.00  0.00    -0.165 F 
ATOM     10  F   UNL     1      31.717 -16.460 -20.511  0.00  0.00    -0.165 F 
ATOM     11  C   UNL     1      32.628 -15.533 -20.873  0.00  0.00    +0.463 C 
ENDBRANCH   3  11
TORSDOF 2
ENDMDL
MODEL 3
REMARK VINA RESULT:      -5.7      1.923      2.752
REMARK  Name = 6432
REMARK  2 active torsions:
REMARK  status: ('A' for Active; 'I' for Inactive)
REMARK    1  A    between atoms: C_3  and  C_7
REMARK    2  A    between atoms: C_3  and  C_11
REMARK                            x       y       z     vdW  Elec       q    Type
REMARK                         _______ _______ _______ _____ _____    ______ ____
ROOT
ATOM      1  F   UNL     1      35.915 -18.262 -20.680  0.00  0.00    -0.186 F 
ATOM      2  F   UNL     1      33.778 -18.635 -20.892  0.00  0.00    -0.186 F 
ATOM      3  C   UNL     1      34.830 -17.974 -21.442  0.00  0.00    +0.434 C 
ENDROOT
BRANCH   3   7
ATOM      4  F   UNL     1      35.244 -15.828 -22.333  0.00  0.00    -0.165 F 
ATOM      5  F   UNL     1      34.942 -15.994 -20.179  0.00  0.00    -0.165 F 
ATOM      6  F   UNL     1      33.251 -16.221 -21.537  0.00  0.00    -0.165 F 
ATOM      7  C   UNL     1      34.563 -16.492 -21.377  0.00  0.00    +0.463 C 
ENDBRANCH   3   7
BRANCH   3  11
ATOM      8  F   UNL     1      34.726 -19.801 -22.918  0.00  0.00    -0.165 F 
ATOM      9  F   UNL     1      34.310 -17.824 -23.741  0.00  0.00    -0.165 F 
ATOM     10  F   UNL     1      36.352 -18.375 -23.201  0.00  0.00    -0.165 F 
ATOM     11  C   UNL     1      35.058 -18.494 -22.838  0.00  0.00    +0.463 C 
ENDBRANCH   3  11
TORSDOF 2
ENDMDL
MODEL 4
REMARK VINA RESULT:      -5.7      9.914     11.462
REMARK  Name = 6432
REMARK  2 active torsions:
REMARK  status: ('A' for Active; 'I' for Inactive)
REMARK    1  A    between atoms: C_3  and  C_7
REMARK    2  A    between atoms: C_3  and  C_11
REMARK                            x       y       z     vdW  Elec       q    Type
REMARK                         _______ _______ _______ _____ _____    ______ ____
ROOT
ATOM      1  F   UNL     1      30.778 -23.548 -16.258  0.00  0.00    -0.186 F 
ATOM      2  F   UNL     1      29.824 -22.575 -14.557  0.00  0.00    -0.186 F 
ATOM      3  C   UNL     1      29.685 -23.586 -15.454  0.00  0.00    +0.434 C 
ENDROOT
BRANCH   3   7
ATOM      4  F   UNL     1      28.658 -22.350 -17.182  0.00  0.00    -0.165 F 
ATOM      5  F   UNL     1      27.416 -22.973 -15.501  0.00  0.00    -0.165 F 
ATOM      6  F   UNL     1      28.086 -24.445 -16.964  0.00  0.00    -0.165 F 
ATOM      7  C   UNL     1      28.454 -23.337 -16.286  0.00  0.00    +0.463 C 
ENDBRANCH   3   7
BRANCH   3  11
ATOM      8  F   UNL     1      30.185 -25.884 -15.478  0.00  0.00    -0.165 F 
ATOM      9  F   UNL     1      30.399 -24.832 -13.579  0.00  0.00    -0.165 F 
ATOM     10  F   UNL     1      28.412 -25.256 -14.374  0.00  0.00    -0.165 F 
ATOM     11  C   UNL     1      29.668 -24.898 -14.712  0.00  0.00    +0.463 C 
ENDBRANCH   3  11
TORSDOF 2
ENDMDL
MODEL 5
REMARK VINA RESULT:      -5.7      1.921      3.654
REMARK  Name = 6432
REMARK  2 active torsions:
REMARK  status: ('A' for Active; 'I' for Inactive)
REMARK    1  A    between atoms: C_3  and  C_7
REMARK    2  A    between atoms: C_3  and  C_11
REMARK                            x       y       z     vdW  Elec       q    Type
REMARK                         _______ _______ _______ _____ _____    ______ ____
ROOT
ATOM      1  F   UNL     1      33.731 -18.611 -20.945  0.00  0.00    -0.186 F 
ATOM      2  F   UNL     1      35.870 -18.279 -20.695  0.00  0.00    -0.186 F 
ATOM      3  C   UNL     1      34.803 -17.971 -21.477  0.00  0.00    +0.434 C 
ENDROOT
BRANCH   3   7
ATOM      4  F   UNL     1      34.306 -17.837 -23.781  0.00  0.00    -0.165 F 
ATOM      5  F   UNL     1      34.727 -19.807 -22.944  0.00  0.00    -0.165 F 
ATOM      6  F   UNL     1      36.346 -18.372 -23.219  0.00  0.00    -0.165 F 
ATOM      7  C   UNL     1      35.048 -18.497 -22.868  0.00  0.00    +0.463 C 
ENDBRANCH   3   7
BRANCH   3  11
ATOM      8  F   UNL     1      34.951 -15.989 -20.220  0.00  0.00    -0.165 F 
ATOM      9  F   UNL     1      35.266 -15.836 -22.374  0.00  0.00    -0.165 F 
ATOM     10  F   UNL     1      33.261 -16.187 -21.585  0.00  0.00    -0.165 F 
ATOM     11  C   UNL     1      34.566 -16.484 -21.417  0.00  0.00    +0.463 C 
ENDBRANCH   3  11
TORSDOF 2
ENDMDL
MODEL 6
REMARK VINA RESULT:      -5.7     10.106     11.375
REMARK  Name = 6432
REMARK  2 active torsions:
REMARK  status: ('A' for Active; 'I' for Inactive)
REMARK    1  A    between atoms: C_3  and  C_7
REMARK    2  A    between atoms: C_3  and  C_11
REMARK                            x       y       z     vdW  Elec       q    Type
REMARK                         _______ _______ _______ _____ _____    ______ ____
ROOT
ATOM      1  F   UNL     1      28.548 -25.133 -14.435  0.00  0.00    -0.186 F 
ATOM      2  F   UNL     1      30.037 -25.487 -15.986  0.00  0.00    -0.186 F 
ATOM      3  C   UNL     1      29.356 -24.512 -15.332  0.00  0.00    +0.434 C 
ENDROOT
BRANCH   3   7
ATOM      4  F   UNL     1      27.509 -23.090 -15.708  0.00  0.00    -0.165 F 
ATOM      5  F   UNL     1      27.938 -24.617 -17.206  0.00  0.00    -0.165 F 
ATOM      6  F   UNL     1      29.234 -22.871 -17.026  0.00  0.00    -0.165 F 
ATOM      7  C   UNL     1      28.503 -23.763 -16.324  0.00  0.00    +0.463 C 
ENDBRANCH   3   7
BRANCH   3  11
ATOM      8  F   UNL     1      31.505 -23.562 -15.263  0.00  0.00    -0.165 F 
ATOM      9  F   UNL     1      29.864 -22.388 -14.434  0.00  0.00    -0.165 F 
ATOM     10  F   UNL     1      30.604 -24.140 -13.363  0.00  0.00    -0.165 F 
ATOM     11  C   UNL     1      30.338 -23.643 -14.589  0.00  0.00    +0.463 C 
ENDBRANCH   3  11
TORSDOF 2
ENDMDL
MODEL 7
REMARK VINA RESULT:      -5.6     10.090     11.334
REMARK  Name = 6432
REMARK  2 active torsions:
REMARK  status: ('A' for Active; 'I' for Inactive)
REMARK    1  A    between atoms: C_3  and  C_7
REMARK    2  A    between atoms: C_3  and  C_11
REMARK                            x       y       z     vdW  Elec       q    Type
REMARK                         _______ _______ _______ _____ _____    ______ ____
ROOT
ATOM      1  F   UNL     1      30.063 -25.430 -16.013  0.00  0.00    -0.186 F 
ATOM      2  F   UNL     1      28.559 -25.120 -14.467  0.00  0.00    -0.186 F 
ATOM      3  C   UNL     1      29.353 -24.475 -15.360  0.00  0.00    +0.434 C 
ENDROOT
BRANCH   3   7
ATOM      4  F   UNL     1      31.484 -23.464 -15.259  0.00  0.00    -0.165 F 
ATOM      5  F   UNL     1      30.561 -24.082 -13.381  0.00  0.00    -0.165 F 
ATOM      6  F   UNL     1      29.796 -22.341 -14.450  0.00  0.00    -0.165 F 
ATOM      7  C   UNL     1      30.307 -23.581 -14.610  0.00  0.00    +0.463 C 
ENDBRANCH   3   7
BRANCH   3  11
ATOM      8  F   UNL     1      27.930 -24.615 -17.227  0.00  0.00    -0.165 F 
ATOM      9  F   UNL     1      27.477 -23.090 -15.734  0.00  0.00    -0.165 F 
ATOM     10  F   UNL     1      29.193 -22.845 -17.061  0.00  0.00    -0.165 F 
ATOM     11  C   UNL     1      28.482 -23.747 -16.352  0.00  0.00    +0.463 C 
ENDBRANCH   3  11
TORSDOF 2
ENDMDL
MODEL 8
REMARK VINA RESULT:      -5.6      0.712      3.029
REMARK  Name = 6432
REMARK  2 active torsions:
REMARK  status: ('A' for Active; 'I' for Inactive)
REMARK    1  A    between atoms: C_3  and  C_7
REMARK    2  A    between atoms: C_3  and  C_11
REMARK                            x       y       z     vdW  Elec       q    Type
REMARK                         _______ _______ _______ _____ _____    ______ ____
ROOT
ATOM      1  F   UNL     1      34.787 -14.304 -22.457  0.00  0.00    -0.186 F 
ATOM      2  F   UNL     1      33.468 -15.716 -23.464  0.00  0.00    -0.186 F 
ATOM      3  C   UNL     1      33.895 -15.304 -22.242  0.00  0.00    +0.434 C 
ENDROOT
BRANCH   3   7
ATOM      4  F   UNL     1      34.990 -16.111 -20.313  0.00  0.00    -0.165 F 
ATOM      5  F   UNL     1      35.697 -16.815 -22.253  0.00  0.00    -0.165 F 
ATOM      6  F   UNL     1      33.795 -17.530 -21.462  0.00  0.00    -0.165 F 
ATOM      7  C   UNL     1      34.597 -16.449 -21.559  0.00  0.00    +0.463 C 
ENDBRANCH   3   7
BRANCH   3  11
ATOM      8  F   UNL     1      31.945 -13.991 -22.268  0.00  0.00    -0.165 F 
ATOM      9  F   UNL     1      31.949 -15.752 -20.982  0.00  0.00    -0.165 F 
ATOM     10  F   UNL     1      33.124 -13.997 -20.434  0.00  0.00    -0.165 F 
ATOM     11  C   UNL     1      32.720 -14.758 -21.472  0.00  0.00    +0.463 C 
ENDBRANCH   3  11
TORSDOF 2
ENDMDL
MODEL 9
REMARK VINA RESULT:      -5.6      1.028      3.093
REMARK  Name = 6432
REMARK  2 active torsions:
REMARK  status: ('A' for Active; 'I' for Inactive)
REMARK    1  A    between atoms: C_3  and  C_7
REMARK    2  A    between atoms: C_3  and  C_11
REMARK                            x       y       z     vdW  Elec       q    Type
REMARK                         _______ _______ _______ _____ _____    ______ ____
ROOT
ATOM      1  F   UNL     1      34.974 -15.057 -19.890  0.00  0.00    -0.186 F 
ATOM      2  F   UNL     1      34.803 -14.277 -21.918  0.00  0.00    -0.186 F 
ATOM      3  C   UNL     1      34.236 -15.131 -21.027  0.00  0.00    +0.434 C 
ENDROOT
BRANCH   3   7
ATOM      4  F   UNL     1      34.120 -16.551 -22.909  0.00  0.00    -0.165 F 
ATOM      5  F   UNL     1      33.373 -17.318 -21.008  0.00  0.00    -0.165 F 
ATOM      6  F   UNL     1      35.519 -17.090 -21.323  0.00  0.00    -0.165 F 
ATOM      7  C   UNL     1      34.315 -16.533 -21.574  0.00  0.00    +0.463 C 
ENDBRANCH   3   7
BRANCH   3  11
ATOM      8  F   UNL     1      32.382 -15.219 -19.583  0.00  0.00    -0.165 F 
ATOM      9  F   UNL     1      32.777 -13.326 -20.592  0.00  0.00    -0.165 F 
ATOM     10  F   UNL     1      31.981 -15.017 -21.718  0.00  0.00    -0.165 F 
ATOM     11  C   UNL     1      32.832 -14.667 -20.731  0.00  0.00    +0.463 C 
ENDBRANCH   3  11
TORSDOF 2
ENDMDL
